data_image0
_chemical_formula_structural       FeS2FeS2FeSFeHS2HCFeCSFeS2FeSHFeSCFeSFeCSHSCFeCFeS2FeSFeS3C2HC2HCSCS2C2H2C3H3CFeC5SH3N2C3HC6H4C6H4C6H4CH2C3NC2H5NC3HCHCH2NHCHNH2SFeS2CSH4FeHCNC5H7C3HCS2CHC2HCHC5HC3H5CNHSHCHCHCH3SHFeC2HCHCHCH2SHC5HCH2SCS2H2FeH4C2HC2HNHC2H2CH2CH3CHFeCHCH3NC2SCNCSH2FeSC2HSFe2SHFeHSHCHCHSH2SC2HCH2C6HC2HSH6C6SH4SFeS2FeS2FeS2HFeSFeHSCFeHFeS2FeS3CFeC2H2C4H2C2H2CHC6H4CSC5H7NCSCSC2S2CH4CNC3NFeSHC2HSFeCH3CHC2HC3HCHCSH3C3FeH2NCH2C2HC3SHC2H3CHCFeH2FeSHCNC2SC3HCHC2H2CHFeH2NHNH5C3H2CSH3CFeHSH2CHCHC4HCHCSHCFeS2FeS2FeSFeS3FeSHFeCNHSFeSFeSCFeCSFeHSCNHSHC2HCHC3HSHC4HCH4CSCHSCH2C7HCH2CHC2H3C3NC2H3C6H4CHCH2C2FeHSH2C3H2NC2HS2CNC2HCHC2H3FeC2H2C2SH4SHC4H3CHSHC2FeCSCH3C2HSCFeCSHC4HCH2SHC3HC3HNSH4CH2CH2CNH2CHCH2C3H4CH4CFeC3SHCH2FeSH2CS2Fe2CH2SCHS2C3HCHCHC7H4C2H2CH3NHCH2CH2C2SH3CHNHCHCSHSHCSNSCHCFeCFeC2HCSC4H6Fe2HSH2C2H2CHNCHSH2C5HSHCH2SHSCHC3NCSHS2HC2H4SH3CHSCHSH2SFeHC2HCHNC2H5CNHSH3CHNC8H4CH5C3HCHSC2NC2S2FeHSCHCNC3HFeCSHSHC6H3CH2CHC2H2C3SHCSFeCHCHCHNC2HCH5CNH3CH4SHCH3SCH2CSH3SFeCH2C2NCHCHCH2CH2CHSC3HC3HC2H2CH2FeCH7CSC3SHS2HCH2FeHC4NC2H2SC2NH3SNCHC6HC2HFeHC2HSC2H3C2HCH4CSHCH2CH2SNCH8Fe2CHCFeHCFeCSHC2SHFeHSHC2HCHSH2SFeSFeSFeCFeS2FeS2FeSFeS2H2CFeS2C6H4SHCHC6H3C5SCH2FeC2H2C5H3CH4SH2CH2NC6HC3SH2SH2NC6H8CH4S2C3H2NHCH3C2H4C3S2C2SC3HC3H2CHC4HCHSC3FeNHC4SCHFeHSHCHCFeSHC2SH3CSFeHNSH2CHFeH2C2HS2CHFeC2HCH2CH3C3NHCFe2SFeSHS2H2FeS2FeS2C7H3C3H2C6H4CSH2C4HC2HCH3CH2Fe2SCHCSCSHCSFeSFe2S2FeS2C3FeHCH4C3H2C4H3SC5H2C3H2C3NCH3Fe3HCH2NC2H3CFeH5C2FeCS2CSHFeC2FeH2SC2H3NHCH3C2HCFeH2NHC2HFeSNCSC4SH3CSCHCNC2H5SHC3H4C2HCSC2H2SCSHS2HC2HC2H2CH2NFeSFe2NSHC2SC3SFeSHFeSFeS3HSHSCFeS2FeS2FeSFeS3HCHFeS2C6H6C2SFeC5H3FeC6H4C6H4C2H2NC6H3C2HFeHCHSH2C7HC2HCHSCH4NC6H6C3H4CHCH2CFeSH2C3S2HCSHC2HC3H4CH2C3H2SHSH2C2H2NHSCHSHC2H2SCHNCHFeCNCHNSCH3CHCH2CHCNCNH5C2FeHSH2C3H2CHSH2CH4C
_chemical_formula_sum              "Fe128 S256 H768 C768 N64"
_cell_length_a       44.3488
_cell_length_b       44.1513
_cell_length_c       49.237
_cell_angle_alpha    90.3996
_cell_angle_beta     89.8681
_cell_angle_gamma    86.7851

_space_group_name_H-M_alt    "P 1"
_space_group_IT_number       1

loop_
  _space_group_symop_operation_xyz
  'x, y, z'

loop_
  _atom_site_type_symbol
  _atom_site_label
  _atom_site_symmetry_multiplicity
  _atom_site_fract_x
  _atom_site_fract_y
  _atom_site_fract_z
  _atom_site_occupancy
  Fe  Fe1       1.0  0.31526  0.14372  0.24220  1.0000
  S   S1        1.0  0.33511  0.18870  0.24886  1.0000
  S   S2        1.0  0.34426  0.09973  0.24326  1.0000
  Fe  Fe2       1.0  0.25123  0.17203  0.23342  1.0000
  S   S3        1.0  0.26706  0.21909  0.23900  1.0000
  S   S4        1.0  0.20008  0.16969  0.23021  1.0000
  Fe  Fe3       1.0  0.30650  0.20316  0.21320  1.0000
  S   S5        1.0  0.32765  0.23170  0.18136  1.0000
  Fe  Fe4       1.0  0.29392  0.20026  0.27432  1.0000
  H   H1        1.0  0.13479  0.13691  0.06509  1.0000
  S   S6        1.0  0.28897  0.15732  0.20470  1.0000
  S   S7        1.0  0.27574  0.15399  0.27057  1.0000
  H   H2        1.0  0.38310  0.12924  0.01073  1.0000
  C   C1        1.0  0.04690  0.16478  0.98371  1.0000
  Fe  Fe5       1.0  0.36399  0.26580  0.00396  1.0000
  C   C2        1.0  0.13825  0.21664  0.10418  1.0000
  S   S8        1.0  0.36994  0.31647  0.00623  1.0000
  Fe  Fe6       1.0  0.32909  0.21458  0.02681  1.0000
  S   S9        1.0  0.29699  0.20065  0.05943  1.0000
  S   S10       1.0  0.37549  0.23015  0.03512  1.0000
  Fe  Fe7       1.0  0.03367  0.18444  0.08509  1.0000
  S   S11       1.0  0.05438  0.13729  0.08039  1.0000
  H   H3        1.0  0.03218  0.27785  0.30758  1.0000
  Fe  Fe8       1.0  0.01860  0.17441  0.14469  1.0000
  S   S12       1.0  0.03793  0.12642  0.14414  1.0000
  C   C3        1.0  0.99647  0.52528  0.16954  1.0000
  Fe  Fe9       1.0  0.07600  0.14575  0.12094  1.0000
  S   S13       1.0  0.12565  0.13199  0.12667  1.0000
  Fe  Fe10      1.0  0.01407  0.12340  0.10405  1.0000
  C   C4        1.0  0.43151  0.13064  0.00866  1.0000
  S   S14       1.0  0.05811  0.19424  0.12404  1.0000
  H   H4        1.0  0.48000  0.12425  0.00721  1.0000
  S   S15       1.0  0.07500  0.18199  0.28807  1.0000
  C   C5        1.0  0.20100  0.49443  0.07625  1.0000
  Fe  Fe11      1.0  0.38353  0.50287  0.11652  1.0000
  C   C6        1.0  0.29496  0.51060  0.24417  1.0000
  Fe  Fe12      1.0  0.35879  0.43953  0.11918  1.0000
  S   S16       1.0  0.31073  0.45807  0.12352  1.0000
  S   S17       1.0  0.36788  0.38836  0.11877  1.0000
  Fe  Fe13      1.0  0.32297  0.49013  0.09074  1.0000
  S   S18       1.0  0.99963  0.45138  0.28924  1.0000
  Fe  Fe14      1.0  0.32934  0.49192  0.15243  1.0000
  S   S19       1.0  0.30405  0.51128  0.18930  1.0000
  S   S20       1.0  0.36995  0.46969  0.08457  1.0000
  S   S21       1.0  0.37665  0.47083  0.15115  1.0000
  C   C7        1.0  0.31725  0.47294  0.27493  1.0000
  C   C8        1.0  0.29955  0.49967  0.27065  1.0000
  H   H5        1.0  0.49028  0.09468  0.28924  1.0000
  C   C9        1.0  0.30849  0.49524  0.22183  1.0000
  C   C10       1.0  0.32623  0.46851  0.22606  1.0000
  H   H6        1.0  0.20141  0.49159  0.00760  1.0000
  C   C11       1.0  0.36863  0.53095  0.23160  1.0000
  S   S22       1.0  0.42710  0.52642  0.10976  1.0000
  C   C12       1.0  0.45895  0.11325  0.00946  1.0000
  S   S23       1.0  0.06853  0.49677  0.19063  1.0000
  S   S24       1.0  0.43217  0.16994  0.00236  1.0000
  C   C13       1.0  0.30192  0.48755  0.02475  1.0000
  C   C14       1.0  0.32507  0.46484  0.02239  1.0000
  H   H7        1.0  0.23257  0.48113  0.02966  1.0000
  H   H8        1.0  0.33486  0.45456  0.04034  1.0000
  C   C15       1.0  0.39592  0.17431  0.09023  1.0000
  C   C16       1.0  0.04395  0.17492  0.01071  1.0000
  C   C17       1.0  0.03081  0.20376  0.01647  1.0000
  H   H9        1.0  0.12915  0.20915  0.26762  1.0000
  H   H10       1.0  0.05220  0.16049  0.02693  1.0000
  H   H11       1.0  0.16302  0.22045  0.25178  1.0000
  C   C18       1.0  0.01698  0.18685  0.21151  1.0000
  Fe  Fe15      1.0  0.38909  0.19984  0.99980  1.0000
  C   C19       1.0  0.02132  0.18114  0.26039  1.0000
  C   C20       1.0  0.05251  0.18390  0.25870  1.0000
  C   C21       1.0  0.06599  0.18750  0.23325  1.0000
  C   C22       1.0  0.04830  0.18865  0.20963  1.0000
  C   C23       1.0  0.45935  0.08160  0.01250  1.0000
  S   S25       1.0  0.34337  0.18174  0.99350  1.0000
  H   H12       1.0  0.09008  0.18950  0.23180  1.0000
  H   H13       1.0  0.05875  0.19172  0.19004  1.0000
  H   H14       1.0  0.39200  0.49805  0.25697  1.0000
  N   N1        1.0  0.12597  0.11432  0.23947  1.0000
  N   N2        1.0  0.19100  0.49114  0.05020  1.0000
  C   C24       1.0  0.02044  0.22231  0.99499  1.0000
  C   C25       1.0  0.07442  0.50396  0.13583  1.0000
  C   C26       1.0  0.43231  0.06708  0.01523  1.0000
  H   H15       1.0  0.28918  0.51179  0.28767  1.0000
  C   C27       1.0  0.37002  0.36858  0.08736  1.0000
  C   C28       1.0  0.37224  0.33668  0.08714  1.0000
  C   C29       1.0  0.37190  0.32035  0.06246  1.0000
  C   C30       1.0  0.37003  0.33586  0.03778  1.0000
  C   C31       1.0  0.36816  0.36771  0.03801  1.0000
  C   C32       1.0  0.36781  0.38399  0.06267  1.0000
  H   H16       1.0  0.37387  0.32456  0.10615  1.0000
  H   H17       1.0  0.37346  0.29582  0.06254  1.0000
  H   H18       1.0  0.36703  0.37995  0.01907  1.0000
  H   H19       1.0  0.36601  0.40846  0.06251  1.0000
  C   C33       1.0  0.18107  0.16332  0.19929  1.0000
  C   C34       1.0  0.19511  0.14715  0.17779  1.0000
  C   C35       1.0  0.17805  0.13865  0.15515  1.0000
  C   C36       1.0  0.14693  0.14647  0.15371  1.0000
  C   C37       1.0  0.13319  0.16385  0.17464  1.0000
  C   C38       1.0  0.15019  0.17205  0.19739  1.0000
  H   H20       1.0  0.21884  0.14012  0.17907  1.0000
  H   H21       1.0  0.18887  0.12518  0.13906  1.0000
  H   H22       1.0  0.10925  0.16995  0.17380  1.0000
  H   H23       1.0  0.13923  0.18459  0.21389  1.0000
  C   C39       1.0  0.31894  0.22289  0.14763  1.0000
  C   C40       1.0  0.29424  0.20584  0.14138  1.0000
  C   C41       1.0  0.28755  0.19934  0.11419  1.0000
  C   C42       1.0  0.30558  0.20977  0.09320  1.0000
  C   C43       1.0  0.33023  0.22690  0.09952  1.0000
  C   C44       1.0  0.33690  0.23346  0.12669  1.0000
  H   H24       1.0  0.28000  0.19803  0.15743  1.0000
  H   H25       1.0  0.26838  0.18615  0.10939  1.0000
  H   H26       1.0  0.34392  0.23552  0.08357  1.0000
  H   H27       1.0  0.35595  0.24682  0.13145  1.0000
  C   C45       1.0  0.19809  0.20878  0.29326  1.0000
  H   H28       1.0  0.08013  0.12607  0.25016  1.0000
  H   H29       1.0  0.09478  0.08718  0.17075  1.0000
  C   C46       1.0  0.38345  0.09912  0.23622  1.0000
  C   C47       1.0  0.40054  0.07141  0.23737  1.0000
  C   C48       1.0  0.13809  0.12739  0.26434  1.0000
  N   N3        1.0  0.30000  0.31757  0.12727  1.0000
  C   C49       1.0  0.30387  0.34719  0.12080  1.0000
  C   C50       1.0  0.30591  0.30699  0.15502  1.0000
  H   H30       1.0  0.31081  0.36315  0.13615  1.0000
  H   H31       1.0  0.30162  0.32550  0.17018  1.0000
  H   H32       1.0  0.29129  0.28827  0.16047  1.0000
  H   H33       1.0  0.32986  0.29834  0.15682  1.0000
  H   H34       1.0  0.37336  0.15986  0.05404  1.0000
  N   N4        1.0  0.12692  0.18485  0.06613  1.0000
  C   C51       1.0  0.10590  0.20636  0.05720  1.0000
  C   C52       1.0  0.14353  0.19002  0.08891  1.0000
  C   C53       1.0  0.10017  0.23334  0.07184  1.0000
  H   H35       1.0  0.21805  0.52014  0.02788  1.0000
  C   C54       1.0  0.11633  0.23838  0.09558  1.0000
  H   H36       1.0  0.11906  0.47323  0.06276  1.0000
  C   C55       1.0  0.47132  0.08218  0.29612  1.0000
  H   H37       1.0  0.01551  0.25061  0.23173  1.0000
  H   H38       1.0  0.08284  0.24992  0.06500  1.0000
  N   N5        1.0  0.15433  0.50135  0.28460  1.0000
  H   H39       1.0  0.05967  0.10909  0.20633  1.0000
  C   C56       1.0  0.13248  0.15643  0.05090  1.0000
  H   H40       1.0  0.44483  0.04886  0.23515  1.0000
  N   N6        1.0  0.41801  0.07989  0.30411  1.0000
  H   H41       1.0  0.37390  0.51861  0.21286  1.0000
  H   H42       1.0  0.08406  0.52523  0.14098  1.0000
  S   S26       1.0  0.01739  0.50496  0.01108  1.0000
  Fe  Fe16      1.0  0.04259  0.47515  0.22431  1.0000
  S   S27       1.0  0.31655  0.25224  0.99808  1.0000
  S   S28       1.0  0.29030  0.50189  0.05675  1.0000
  C   C57       1.0  0.02671  0.31927  0.28442  1.0000
  S   S29       1.0  0.02748  0.21731  0.05023  1.0000
  H   H43       1.0  0.29256  0.34352  0.05263  1.0000
  H   H44       1.0  0.14982  0.08278  0.17977  1.0000
  H   H45       1.0  0.11347  0.15199  0.03699  1.0000
  H   H46       1.0  0.16052  0.17313  0.09576  1.0000
  Fe  Fe17      1.0  0.04431  0.47253  0.28617  1.0000
  H   H47       1.0  0.15352  0.15738  0.03873  1.0000
  C   C58       1.0  0.18241  0.49486  0.27368  1.0000
  N   N7        1.0  0.37187  0.16313  0.13257  1.0000
  C   C59       1.0  0.34976  0.14899  0.11884  1.0000
  C   C60       1.0  0.39494  0.17544  0.11866  1.0000
  C   C61       1.0  0.35001  0.14753  0.09043  1.0000
  C   C62       1.0  0.37321  0.16035  0.07609  1.0000
  C   C63       1.0  0.37159  0.16403  0.16236  1.0000
  H   H48       1.0  0.33135  0.13941  0.12980  1.0000
  H   H49       1.0  0.41252  0.18656  0.12953  1.0000
  H   H50       1.0  0.33182  0.13740  0.07951  1.0000
  H   H51       1.0  0.38561  0.14456  0.17059  1.0000
  H   H52       1.0  0.38026  0.18561  0.17013  1.0000
  H   H53       1.0  0.34825  0.16318  0.17051  1.0000
  H   H54       1.0  0.38533  0.14718  0.23000  1.0000
  C   C64       1.0  0.39815  0.12568  0.23091  1.0000
  C   C65       1.0  0.30018  0.35718  0.09404  1.0000
  C   C66       1.0  0.12726  0.49817  0.26797  1.0000
  H   H55       1.0  0.30413  0.38054  0.08898  1.0000
  C   C67       1.0  0.47578  0.05200  0.30402  1.0000
  S   S30       1.0  0.01605  0.37046  0.25367  1.0000
  S   S31       1.0  0.48671  0.09679  0.22601  1.0000
  C   C68       1.0  0.00352  0.18311  0.23690  1.0000
  H   H56       1.0  0.35396  0.43812  0.99506  1.0000
  C   C69       1.0  0.33556  0.45520  0.99668  1.0000
  C   C70       1.0  0.29266  0.29728  0.10756  1.0000
  H   H57       1.0  0.28933  0.27389  0.11269  1.0000
  C   C71       1.0  0.02430  0.30150  0.30789  1.0000
  H   H58       1.0  0.09310  0.20267  0.03885  1.0000
  C   C72       1.0  0.21174  0.49614  0.02768  1.0000
  C   C73       1.0  0.05218  0.45774  0.14981  1.0000
  C   C74       1.0  0.44213  0.09595  0.29648  1.0000
  C   C75       1.0  0.07147  0.49557  0.10843  1.0000
  C   C76       1.0  0.29375  0.33640  0.07367  1.0000
  H   H59       1.0  0.13186  0.50158  0.24602  1.0000
  C   C77       1.0  0.37863  0.51938  0.25659  1.0000
  C   C78       1.0  0.05940  0.46795  0.10162  1.0000
  C   C79       1.0  0.14537  0.10220  0.22012  1.0000
  H   H60       1.0  0.12142  0.12737  0.28128  1.0000
  H   H61       1.0  0.03622  0.30909  0.26604  1.0000
  H   H62       1.0  0.11169  0.25898  0.10736  1.0000
  H   H63       1.0  0.27032  0.51709  0.00282  1.0000
  H   H64       1.0  0.15890  0.11437  0.27102  1.0000
  C   C80       1.0  0.28984  0.30622  0.08044  1.0000
  N   N8        1.0  0.16719  0.20967  0.29397  1.0000
  H   H65       1.0  0.41393  0.18448  0.07911  1.0000
  S   S32       1.0  0.08586  0.47986  0.99498  1.0000
  H   H66       1.0  0.44093  0.14526  0.22351  1.0000
  C   C81       1.0  0.20836  0.49674  0.28966  1.0000
  H   H67       1.0  0.33676  0.45653  0.20895  1.0000
  C   C82       1.0  0.99583  0.26469  0.22400  1.0000
  H   H68       1.0  0.11871  0.47523  0.27083  1.0000
  C   C83       1.0  0.33037  0.45727  0.25255  1.0000
  H   H69       1.0  0.14373  0.15117  0.26046  1.0000
  H   H70       1.0  0.16962  0.10165  0.22333  1.0000
  H   H71       1.0  0.28523  0.28969  0.06475  1.0000
  S   S33       1.0  0.05575  0.45642  0.06748  1.0000
  H   H72       1.0  0.04475  0.44304  0.16569  1.0000
  Fe  Fe18      1.0  0.05949  0.49006  0.03338  1.0000
  C   C84       1.0  0.04987  0.44903  0.12239  1.0000
  C   C85       1.0  0.14967  0.22201  0.27094  1.0000
  H   H73       1.0  0.48063  0.06860  0.01284  1.0000
  C   C86       1.0  0.18171  0.49010  0.09828  1.0000
  H   H74       1.0  0.20991  0.21612  0.27535  1.0000
  C   C87       1.0  0.40441  0.11620  0.01156  1.0000
  H   H75       1.0  0.01040  0.24474  0.99927  1.0000
  C   C88       1.0  0.42970  0.12453  0.22721  1.0000
  H   H76       1.0  0.14266  0.24617  0.27493  1.0000
  H   H77       1.0  0.34400  0.43650  0.25572  1.0000
  S   S34       1.0  0.06307  0.44125  0.25363  1.0000
  H   H78       1.0  0.37496  0.49815  0.30841  1.0000
  C   C89       1.0  0.15124  0.50909  0.31146  1.0000
  C   C90       1.0  0.06472  0.48514  0.15658  1.0000
  C   C91       1.0  0.43206  0.07028  0.23375  1.0000
  C   C92       1.0  0.16196  0.48366  0.04527  1.0000
  C   C93       1.0  0.14209  0.47911  0.06679  1.0000
  H   H79       1.0  0.15388  0.48142  0.02460  1.0000
  C   C94       1.0  0.44687  0.09688  0.22888  1.0000
  H   H80       1.0  0.01089  0.17678  0.27968  1.0000
  H   H81       1.0  0.38381  0.07349  0.01719  1.0000
  S   S35       1.0  0.02798  0.50843  0.25706  1.0000
  C   C95       1.0  0.08377  0.10655  0.21017  1.0000
  S   S36       1.0  0.32341  0.45861  0.30792  1.0000
  S   S37       1.0  0.29344  0.23007  0.31217  1.0000
  H   H82       1.0  0.13680  0.47896  0.11029  1.0000
  H   H83       1.0  0.38937  0.05074  0.24148  1.0000
  Fe  Fe19      1.0  0.01722  0.42192  0.25473  1.0000
  H   H84       1.0  0.28132  0.53136  0.24099  1.0000
  H   H85       1.0  0.99705  0.12807  0.03784  1.0000
  H   H86       1.0  0.18970  0.49284  0.11891  1.0000
  H   H87       1.0  0.04054  0.42760  0.11724  1.0000
  C   C96       1.0  0.10339  0.09415  0.19032  1.0000
  C   C97       1.0  0.40486  0.08455  0.01504  1.0000
  H   H88       1.0  0.07883  0.51035  0.09266  1.0000
  C   C98       1.0  0.09551  0.11636  0.23487  1.0000
  C   C99       1.0  0.15207  0.48236  0.09345  1.0000
  H   H89       1.0  0.22406  0.50052  0.08003  1.0000
  N   N9        1.0  0.49166  0.03896  0.10148  1.0000
  H   H90       1.0  0.15085  0.22008  0.12271  1.0000
  C   C100      1.0  0.13435  0.09158  0.19542  1.0000
  C   C101      1.0  0.28838  0.49964  0.00122  1.0000
  H   H91       1.0  0.99583  0.38639  0.30854  1.0000
  H   H92       1.0  0.10898  0.51519  0.27401  1.0000
  C   C102      1.0  0.01644  0.34998  0.28446  1.0000
  H   H93       1.0  0.38601  0.11590  0.29301  1.0000
  H   H94       1.0  0.43885  0.11932  0.28995  1.0000
  C   C103      1.0  0.00419  0.36292  0.30834  1.0000
  H   H95       1.0  0.42073  0.52012  0.05096  1.0000
  H   H96       1.0  0.18491  0.48817  0.25251  1.0000
  H   H97       1.0  0.41881  0.50905  0.00154  1.0000
  C   C104      1.0  0.38213  0.52174  0.30606  1.0000
  H   H98       1.0  0.23065  0.49176  0.28097  1.0000
  Fe  Fe20      1.0  0.09909  0.52818  0.99841  1.0000
  C   C105      1.0  0.40067  0.52662  0.03928  1.0000
  H   H99       1.0  0.37083  0.07962  0.29620  1.0000
  C   C106      1.0  0.38757  0.09468  0.30511  1.0000
  H   H100      1.0  0.00488  0.28206  0.21044  1.0000
  H   H101      1.0  0.00049  0.50106  0.17522  1.0000
  H   H102      1.0  0.40716  0.52170  0.30677  1.0000
  N   N10       1.0  0.37401  0.52847  0.99682  1.0000
  C   C107      1.0  0.49511  0.05762  0.14733  1.0000
  C   C108      1.0  0.39939  0.52040  0.01141  1.0000
  S   S38       1.0  0.33740  0.52595  0.11975  1.0000
  C   C109      1.0  0.42222  0.05021  0.31180  1.0000
  N   N11       1.0  0.99925  0.52936  0.14011  1.0000
  C   C110      1.0  0.45115  0.03582  0.31185  1.0000
  S   S39       1.0  0.99794  0.45354  0.22234  1.0000
  H   H103      1.0  0.33098  0.37279  0.98170  1.0000
  H   H104      1.0  0.49561  0.06651  0.06629  1.0000
  Fe  Fe21      1.0  0.33315  0.20656  0.46854  1.0000
  S   S40       1.0  0.32108  0.17977  0.43088  1.0000
  C   C111      1.0  0.40318  0.50320  0.50764  1.0000
  C   C112      1.0  0.04431  0.48451  0.60195  1.0000
  H   H105      1.0  0.12787  0.20191  0.31748  1.0000
  S   S41       1.0  0.06478  0.22065  0.35871  1.0000
  Fe  Fe22      1.0  0.04715  0.19049  0.32618  1.0000
  Fe  Fe23      1.0  0.04766  0.18661  0.38796  1.0000
  S   S42       1.0  0.07490  0.16574  0.42263  1.0000
  H   H106      1.0  0.22610  0.20753  0.58826  1.0000
  Fe  Fe24      1.0  0.32154  0.49240  0.40547  1.0000
  H   H107      1.0  0.08600  0.42505  0.42784  1.0000
  S   S43       1.0  0.33830  0.46370  0.44049  1.0000
  H   H108      1.0  0.32796  0.38948  0.46645  1.0000
  C   C113      1.0  0.42501  0.13408  0.45111  1.0000
  H   H109      1.0  0.34586  0.32253  0.44629  1.0000
  C   C114      1.0  0.40405  0.08386  0.52412  1.0000
  H   H110      1.0  0.33596  0.40935  0.40910  1.0000
  S   S44       1.0  0.28394  0.47761  0.37905  1.0000
  H   H111      1.0  0.43008  0.15784  0.45036  1.0000
  H   H112      1.0  0.15255  0.50021  0.54074  1.0000
  S   S45       1.0  0.37733  0.22852  0.47349  1.0000
  C   C115      1.0  0.00146  0.14513  0.44599  1.0000
  C   C116      1.0  0.34926  0.38190  0.45589  1.0000
  H   H113      1.0  0.32368  0.38542  0.36524  1.0000
  C   C117      1.0  0.02469  0.45521  0.38300  1.0000
  H   H114      1.0  0.03265  0.23616  0.49252  1.0000
  H   H115      1.0  0.47773  0.12633  0.51733  1.0000
  C   C118      1.0  0.33573  0.38481  0.40774  1.0000
  C   C119      1.0  0.28665  0.50479  0.49959  1.0000
  C   C120      1.0  0.32086  0.47273  0.47178  1.0000
  C   C121      1.0  0.29780  0.49561  0.47392  1.0000
  C   C122      1.0  0.33158  0.45801  0.49522  1.0000
  C   C123      1.0  0.33420  0.32220  0.40399  1.0000
  H   H116      1.0  0.34915  0.44006  0.49375  1.0000
  C   C124      1.0  0.06835  0.17882  0.45616  1.0000
  C   C125      1.0  0.05111  0.20567  0.46152  1.0000
  H   H117      1.0  0.09378  0.14090  0.47384  1.0000
  S   S46       1.0  0.06836  0.13085  0.64507  1.0000
  H   H118      1.0  0.19774  0.19036  0.60835  1.0000
  H   H119      1.0  0.20438  0.48606  0.62888  1.0000
  H   H120      1.0  0.31729  0.34586  0.61841  1.0000
  H   H121      1.0  0.21314  0.18105  0.35631  1.0000
  H   H122      1.0  0.03248  0.11977  0.53628  1.0000
  H   H123      1.0  0.23131  0.50624  0.58939  1.0000
  C   C126      1.0  0.30215  0.21581  0.34488  1.0000
  C   C127      1.0  0.30555  0.18466  0.34973  1.0000
  C   C128      1.0  0.31145  0.17407  0.37619  1.0000
  C   C129      1.0  0.31436  0.19447  0.39796  1.0000
  C   C130      1.0  0.31119  0.22565  0.39310  1.0000
  C   C131      1.0  0.30492  0.23626  0.36666  1.0000
  S   S47       1.0  0.07408  0.48580  0.32066  1.0000
  H   H124      1.0  0.31377  0.14992  0.37984  1.0000
  H   H125      1.0  0.31316  0.24150  0.40976  1.0000
  H   H126      1.0  0.30214  0.26038  0.36303  1.0000
  H   H127      1.0  0.40313  0.03747  0.31783  1.0000
  S   S48       1.0  0.34122  0.17462  0.50345  1.0000
  Fe  Fe25      1.0  0.35217  0.26081  0.50270  1.0000
  S   S49       1.0  0.30711  0.24114  0.49466  1.0000
  S   S50       1.0  0.35344  0.31239  0.50285  1.0000
  Fe  Fe26      1.0  0.31986  0.21125  0.52994  1.0000
  S   S51       1.0  0.28693  0.19966  0.56284  1.0000
  S   S52       1.0  0.36367  0.23217  0.53907  1.0000
  Fe  Fe27      1.0  0.05898  0.18075  0.58028  1.0000
  S   S53       1.0  0.08144  0.13409  0.57940  1.0000
  S   S54       1.0  0.04973  0.21052  0.54372  1.0000
  H   H128      1.0  0.07910  0.51412  0.59067  1.0000
  Fe  Fe28      1.0  0.10444  0.14825  0.61802  1.0000
  S   S55       1.0  0.15552  0.14210  0.62149  1.0000
  Fe  Fe29      1.0  0.04304  0.12175  0.60645  1.0000
  H   H129      1.0  0.27743  0.31513  0.59942  1.0000
  S   S56       1.0  0.08444  0.19614  0.61681  1.0000
  C   C132      1.0  0.16393  0.49741  0.56011  1.0000
  Fe  Fe30      1.0  0.38167  0.50122  0.61278  1.0000
  H   H130      1.0  0.32255  0.32909  0.36189  1.0000
  Fe  Fe31      1.0  0.35509  0.43856  0.61520  1.0000
  S   S57       1.0  0.30767  0.45848  0.62108  1.0000
  S   S58       1.0  0.36436  0.38735  0.61353  1.0000
  Fe  Fe32      1.0  0.32006  0.49068  0.58846  1.0000
  S   S59       1.0  0.28759  0.50543  0.55525  1.0000
  S   S60       1.0  0.02698  0.48350  0.56980  1.0000
  S   S61       1.0  0.36631  0.46898  0.58083  1.0000
  C   C133      1.0  0.15900  0.19505  0.56924  1.0000
  Fe  Fe33      1.0  0.01747  0.24168  0.35970  1.0000
  C   C134      1.0  0.29853  0.49105  0.52312  1.0000
  C   C135      1.0  0.32030  0.46705  0.52078  1.0000
  H   H131      1.0  0.23951  0.19771  0.31497  1.0000
  H   H132      1.0  0.32848  0.45538  0.53866  1.0000
  C   C136      1.0  0.08036  0.16168  0.47791  1.0000
  C   C137      1.0  0.07470  0.17100  0.50491  1.0000
  C   C138      1.0  0.05745  0.19788  0.51025  1.0000
  C   C139      1.0  0.04589  0.21526  0.48849  1.0000
  H   H133      1.0  0.08382  0.15748  0.52149  1.0000
  H   H134      1.0  0.08754  0.38195  0.34919  1.0000
  C   C140      1.0  0.45710  0.11451  0.51919  1.0000
  C   C141      1.0  0.45846  0.08265  0.52048  1.0000
  H   H135      1.0  0.36563  0.08915  0.45618  1.0000
  H   H136      1.0  0.38106  0.12803  0.52282  1.0000
  C   C142      1.0  0.03822  0.46813  0.40559  1.0000
  H   H137      1.0  0.33358  0.29766  0.40284  1.0000
  C   C143      1.0  0.36143  0.36700  0.58251  1.0000
  C   C144      1.0  0.36759  0.33541  0.58220  1.0000
  C   C145      1.0  0.36474  0.31842  0.55811  1.0000
  C   C146      1.0  0.35601  0.33286  0.53392  1.0000
  C   C147      1.0  0.34976  0.36446  0.53428  1.0000
  C   C148      1.0  0.35232  0.38142  0.55845  1.0000
  H   H138      1.0  0.37483  0.32400  0.60062  1.0000
  H   H139      1.0  0.36995  0.29425  0.55817  1.0000
  H   H140      1.0  0.34269  0.37595  0.51590  1.0000
  H   H141      1.0  0.34725  0.40565  0.55845  1.0000
  C   C149      1.0  0.05718  0.38763  0.42265  1.0000
  S   S62       1.0  0.00705  0.51334  0.50027  1.0000
  C   C150      1.0  0.28569  0.31085  0.61985  1.0000
  C   C151      1.0  0.28836  0.19233  0.61798  1.0000
  C   C152      1.0  0.29917  0.20826  0.59585  1.0000
  C   C153      1.0  0.32006  0.23036  0.60028  1.0000
  C   C154      1.0  0.33141  0.23523  0.62643  1.0000
  H   H142      1.0  0.38531  0.19594  0.61521  1.0000
  H   H143      1.0  0.27189  0.17547  0.61490  1.0000
  H   H144      1.0  0.32725  0.24402  0.58366  1.0000
  H   H145      1.0  0.48795  0.06663  0.46212  1.0000
  H   H146      1.0  0.22317  0.16688  0.58786  1.0000
  H   H147      1.0  0.36264  0.36618  0.46940  1.0000
  H   H148      1.0  0.38340  0.07208  0.52600  1.0000
  N   N12       1.0  0.37072  0.15138  0.60803  1.0000
  C   C155      1.0  0.20922  0.51745  0.53991  1.0000
  S   S63       1.0  0.01673  0.07967  0.60031  1.0000
  C   C156      1.0  0.40267  0.11564  0.52231  1.0000
  S   S64       1.0  0.02383  0.46172  0.43807  1.0000
  C   C157      1.0  0.21008  0.18908  0.58865  1.0000
  C   C158      1.0  0.36563  0.12369  0.61898  1.0000
  S   S65       1.0  0.03448  0.15424  0.35510  1.0000
  S   S66       1.0  0.00084  0.21371  0.32540  1.0000
  C   C159      1.0  0.43189  0.06722  0.52286  1.0000
  H   H149      1.0  0.10541  0.42177  0.38042  1.0000
  H   H150      1.0  0.14953  0.19585  0.58957  1.0000
  H   H151      1.0  0.15061  0.47295  0.62414  1.0000
  H   H152      1.0  0.22580  0.18792  0.53676  1.0000
  C   C160      1.0  0.20781  0.50083  0.58729  1.0000
  N   N13       1.0  0.18959  0.19165  0.56538  1.0000
  C   C161      1.0  0.18253  0.19265  0.51700  1.0000
  C   C162      1.0  0.02490  0.34494  0.41424  1.0000
  C   C163      1.0  0.06073  0.47784  0.35325  1.0000
  N   N14       1.0  0.04751  0.36579  0.40537  1.0000
  Fe  Fe34      1.0  0.31360  0.48939  0.34409  1.0000
  S   S67       1.0  0.35295  0.49932  0.37059  1.0000
  H   H153      1.0  0.35349  0.17887  0.57574  1.0000
  C   C164      1.0  0.34123  0.33640  0.42850  1.0000
  C   C165      1.0  0.16363  0.53080  0.46011  1.0000
  H   H154      1.0  0.48007  0.07019  0.51961  1.0000
  S   S68       1.0  0.42831  0.17099  0.51681  1.0000
  Fe  Fe35      1.0  0.04699  0.17792  0.64142  1.0000
  C   C166      1.0  0.03598  0.46001  0.35688  1.0000
  H   H155      1.0  0.46104  0.03868  0.46725  1.0000
  H   H156      1.0  0.15678  0.18307  0.35746  1.0000
  H   H157      1.0  0.40775  0.04975  0.45755  1.0000
  C   C167      1.0  0.13941  0.19732  0.54702  1.0000
  H   H158      1.0  0.04789  0.39032  0.44299  1.0000
  C   C168      1.0  0.29923  0.19767  0.64422  1.0000
  C   C169      1.0  0.07952  0.38341  0.37002  1.0000
  H   H159      1.0  0.21993  0.49851  0.52768  1.0000
  C   C170      1.0  0.08965  0.40561  0.38755  1.0000
  C   C171      1.0  0.08134  0.50294  0.63344  1.0000
  C   C172      1.0  0.38018  0.51379  0.49027  1.0000
  H   H160      1.0  0.11517  0.20000  0.55019  1.0000
  C   C173      1.0  0.05863  0.36330  0.37946  1.0000
  H   H161      1.0  0.37677  0.14349  0.45233  1.0000
  C   C174      1.0  0.15128  0.19604  0.52074  1.0000
  S   S69       1.0  0.42509  0.52523  0.60647  1.0000
  H   H162      1.0  0.00547  0.44146  0.38569  1.0000
  H   H163      1.0  0.47115  0.04908  0.43311  1.0000
  H   H164      1.0  0.07488  0.49422  0.41949  1.0000
  C   C175      1.0  0.20148  0.19052  0.53971  1.0000
  C   C176      1.0  0.03142  0.46885  0.62337  1.0000
  C   C177      1.0  0.38884  0.09552  0.45461  1.0000
  Fe  Fe36      1.0  0.04023  0.49387  0.46975  1.0000
  H   H165      1.0  0.28893  0.50661  0.45588  1.0000
  H   H166      1.0  0.01208  0.45555  0.61955  1.0000
  N   N15       1.0  0.19313  0.50537  0.56311  1.0000
  C   C178      1.0  0.16269  0.48180  0.60696  1.0000
  H   H167      1.0  0.12505  0.47944  0.57947  1.0000
  H   H168      1.0  0.30340  0.16873  0.33315  1.0000
  C   C179      1.0  0.06938  0.50157  0.60700  1.0000
  C   C180      1.0  0.36604  0.15674  0.57896  1.0000
  H   H169      1.0  0.37953  0.50574  0.46939  1.0000
  C   C181      1.0  0.41273  0.07340  0.45531  1.0000
  C   C182      1.0  0.01141  0.13335  0.53116  1.0000
  C   C183      1.0  0.44836  0.11137  0.45163  1.0000
  S   S70       1.0  0.33633  0.52542  0.61753  1.0000
  H   H170      1.0  0.04192  0.21912  0.44489  1.0000
  C   C184      1.0  0.39508  0.12605  0.45250  1.0000
  C   C185      1.0  0.14825  0.48561  0.58197  1.0000
  H   H171      1.0  0.19205  0.19162  0.49667  1.0000
  H   H172      1.0  0.35244  0.13919  0.56939  1.0000
  H   H173      1.0  0.05118  0.34578  0.36590  1.0000
  C   C186      1.0  0.19275  0.48925  0.60965  1.0000
  H   H174      1.0  0.26943  0.52308  0.50118  1.0000
  C   C187      1.0  0.38135  0.17399  0.62388  1.0000
  Fe  Fe37      1.0  0.38406  0.19784  0.50954  1.0000
  H   H175      1.0  0.02563  0.44968  0.33967  1.0000
  H   H176      1.0  0.36285  0.40197  0.45260  1.0000
  Fe  Fe38      1.0  0.04369  0.50464  0.53111  1.0000
  S   S71       1.0  0.07504  0.48071  0.50099  1.0000
  H   H177      1.0  0.13624  0.19766  0.50336  1.0000
  C   C188      1.0  0.32863  0.37138  0.38290  1.0000
  N   N16       1.0  0.34235  0.36729  0.43001  1.0000
  C   C189      1.0  0.40338  0.51336  0.53453  1.0000
  C   C190      1.0  0.32797  0.33985  0.38104  1.0000
  S   S72       1.0  0.01929  0.16758  0.60490  1.0000
  C   C191      1.0  0.07475  0.49010  0.37593  1.0000
  C   C192      1.0  0.42918  0.13112  0.51976  1.0000
  C   C193      1.0  0.06354  0.48521  0.40208  1.0000
  H   H178      1.0  0.38819  0.15706  0.56836  1.0000
  C   C194      1.0  0.07880  0.40745  0.41416  1.0000
  H   H179      1.0  0.42069  0.48698  0.50035  1.0000
  C   C195      1.0  0.19521  0.52556  0.46031  1.0000
  C   C196      1.0  0.00154  0.34510  0.33172  1.0000
  H   H180      1.0  0.00437  0.34776  0.40138  1.0000
  H   H181      1.0  0.23657  0.52402  0.43686  1.0000
  C   C197      1.0  0.21230  0.52795  0.43636  1.0000
  H   H182      1.0  0.35734  0.10568  0.60645  1.0000
  Fe  Fe39      1.0  0.26895  0.52705  0.37970  1.0000
  H   H183      1.0  0.01800  0.34889  0.43574  1.0000
  H   H184      1.0  0.22520  0.50656  0.32973  1.0000
  N   N17       1.0  0.00843  0.13764  0.50174  1.0000
  H   H185      1.0  0.20663  0.51968  0.47904  1.0000
  N   N18       1.0  0.44204  0.08150  0.45396  1.0000
  H   H186      1.0  0.01259  0.15553  0.54185  1.0000
  H   H187      1.0  0.34792  0.25205  0.62961  1.0000
  H   H188      1.0  0.09419  0.50359  0.37332  1.0000
  H   H189      1.0  0.00653  0.52847  0.42177  1.0000
  H   H190      1.0  0.03402  0.32104  0.41214  1.0000
  C   C198      1.0  0.17662  0.51102  0.32800  1.0000
  C   C199      1.0  0.20015  0.18898  0.33882  1.0000
  C   C200      1.0  0.27405  0.28797  0.63548  1.0000
  H   H191      1.0  0.03426  0.09680  0.49185  1.0000
  H   H192      1.0  0.17399  0.51719  0.34928  1.0000
  C   C201      1.0  0.38009  0.53349  0.54383  1.0000
  S   S73       1.0  0.00154  0.20992  0.39184  1.0000
  H   H193      1.0  0.19360  0.53138  0.52679  1.0000
  H   H194      1.0  0.47156  0.11787  0.45084  1.0000
  H   H195      1.0  0.12906  0.51385  0.32031  1.0000
  C   C202      1.0  0.16862  0.19012  0.33944  1.0000
  Fe  Fe40      1.0  0.09214  0.52688  0.49292  1.0000
  H   H196      1.0  0.42111  0.50533  0.54834  1.0000
  S   S74       1.0  0.14326  0.52902  0.49108  1.0000
  H   H197      1.0  0.21894  0.14165  0.63296  1.0000
  H   H198      1.0  0.99939  0.14838  0.42421  1.0000
  C   C203      1.0  0.21501  0.19833  0.31560  1.0000
  H   H199      1.0  0.25683  0.27404  0.62724  1.0000
  C   C204      1.0  0.15239  0.20073  0.31673  1.0000
  H   H200      1.0  0.10048  0.51645  0.63739  1.0000
  C   C205      1.0  0.30852  0.32795  0.63057  1.0000
  C   C206      1.0  0.46669  0.05788  0.45403  1.0000
  C   C207      1.0  0.02115  0.11637  0.48419  1.0000
  C   C208      1.0  0.01144  0.31431  0.33157  1.0000
  H   H201      1.0  0.02907  0.10367  0.44211  1.0000
  C   C209      1.0  0.01809  0.11993  0.45607  1.0000
  H   H202      1.0  0.38113  0.10035  0.32642  1.0000
  C   C210      1.0  0.20536  0.50494  0.31700  1.0000
  S   S75       1.0  0.00778  0.29278  0.36145  1.0000
  H   H203      1.0  0.22710  0.53247  0.54665  1.0000
  C   C211      1.0  0.37099  0.11822  0.64658  1.0000
  Fe  Fe41      1.0  0.34538  0.12276  0.72644  1.0000
  S   S76       1.0  0.36424  0.16716  0.73668  1.0000
  S   S77       1.0  0.37671  0.08183  0.71580  1.0000
  Fe  Fe42      1.0  0.28009  0.14924  0.73415  1.0000
  S   S78       1.0  0.29574  0.19502  0.74690  1.0000
  S   S79       1.0  0.22937  0.14332  0.73259  1.0000
  Fe  Fe43      1.0  0.32704  0.18798  0.71124  1.0000
  S   S80       1.0  0.33664  0.22435  0.68088  1.0000
  Fe  Fe44      1.0  0.33130  0.16890  0.77153  1.0000
  S   S81       1.0  0.35762  0.17493  0.81080  1.0000
  S   S82       1.0  0.31059  0.14318  0.69784  1.0000
  S   S83       1.0  0.31308  0.12355  0.76174  1.0000
  Fe  Fe45      1.0  0.33543  0.22110  0.96513  1.0000
  S   S84       1.0  0.30778  0.22051  0.92638  1.0000
  H   H204      1.0  0.33831  0.36426  0.66510  1.0000
  Fe  Fe46      1.0  0.02819  0.42511  0.75742  1.0000
  C   C212      1.0  0.16897  0.53173  0.91482  1.0000
  N   N19       1.0  0.33981  0.34631  0.94627  1.0000
  H   H205      1.0  0.05024  0.34918  0.83870  1.0000
  S   S85       1.0  0.03739  0.21952  0.86062  1.0000
  Fe  Fe47      1.0  0.01973  0.18665  0.83032  1.0000
  S   S86       1.0  0.04835  0.16514  0.79665  1.0000
  Fe  Fe48      1.0  0.01675  0.19053  0.89239  1.0000
  S   S87       1.0  0.03994  0.16875  0.92885  1.0000
  C   C213      1.0  0.37233  0.30536  0.92867  1.0000
  Fe  Fe49      1.0  0.32355  0.48955  0.90742  1.0000
  C   C214      1.0  0.06335  0.49412  0.85368  1.0000
  S   S88       1.0  0.33833  0.45797  0.94132  1.0000
  Fe  Fe50      1.0  0.31941  0.49374  0.84562  1.0000
  H   H206      1.0  0.41637  0.12906  0.73310  1.0000
  S   S89       1.0  0.33212  0.46675  0.80764  1.0000
  C   C215      1.0  0.99628  0.53182  0.68739  1.0000
  N   N20       1.0  0.41402  0.09532  0.79569  1.0000
  H   H207      1.0  0.28809  0.49925  0.95749  1.0000
  S   S90       1.0  0.28850  0.47661  0.87750  1.0000
  H   H208      1.0  0.00060  0.07496  0.69069  1.0000
  C   C216      1.0  0.03473  0.35503  0.87983  1.0000
  C   C217      1.0  0.17541  0.14288  0.65270  1.0000
  H   H209      1.0  0.38591  0.13723  0.68427  1.0000
  C   C218      1.0  0.18136  0.49831  0.79180  1.0000
  H   H210      1.0  0.38338  0.49972  0.96258  1.0000
  C   C219      1.0  0.36823  0.33401  0.94090  1.0000
  C   C220      1.0  0.20712  0.14272  0.65218  1.0000
  C   C221      1.0  0.09261  0.23021  0.71271  1.0000
  H   H211      1.0  0.09547  0.39839  0.82820  1.0000
  S   S91       1.0  0.00830  0.45731  0.78899  1.0000
  H   H212      1.0  0.02418  0.10666  0.80404  1.0000
  C   C222      1.0  0.32519  0.48022  0.77443  1.0000
  C   C223      1.0  0.33736  0.46343  0.75228  1.0000
  C   C224      1.0  0.33171  0.47300  0.72547  1.0000
  C   C225      1.0  0.31350  0.49927  0.72067  1.0000
  H   H213      1.0  0.42354  0.03424  0.71273  1.0000
  C   C226      1.0  0.30746  0.50684  0.76967  1.0000
  H   H214      1.0  0.35108  0.44280  0.75583  1.0000
  H   H215      1.0  0.34101  0.45978  0.70854  1.0000
  H   H216      1.0  0.03129  0.26567  0.74032  1.0000
  H   H217      1.0  0.03278  0.45857  0.66611  1.0000
  C   C227      1.0  0.34717  0.28919  0.92218  1.0000
  S   S92       1.0  0.22000  0.53319  0.88300  1.0000
  C   C228      1.0  0.46063  0.10705  0.73677  1.0000
  H   H218      1.0  0.10392  0.50360  0.87553  1.0000
  S   S93       1.0  0.07342  0.44575  0.75673  1.0000
  C   C229      1.0  0.03628  0.18313  0.96224  1.0000
  H   H219      1.0  0.08051  0.49926  0.92112  1.0000
  H   H220      1.0  0.29256  0.33968  0.94542  1.0000
  C   C230      1.0  0.04250  0.40387  0.90007  1.0000
  C   C231      1.0  0.02796  0.19032  0.70860  1.0000
  C   C232      1.0  0.43386  0.05465  0.71937  1.0000
  C   C233      1.0  0.01572  0.19536  0.75667  1.0000
  C   C234      1.0  0.03882  0.17369  0.76285  1.0000
  C   C235      1.0  0.05586  0.15969  0.74177  1.0000
  C   C236      1.0  0.05050  0.16803  0.71468  1.0000
  H   H221      1.0  0.13038  0.19870  0.70329  1.0000
  C   C237      1.0  0.24077  0.48061  0.80406  1.0000
  H   H222      1.0  0.07394  0.14307  0.74648  1.0000
  H   H223      1.0  0.06464  0.15806  0.69874  1.0000
  C   C238      1.0  0.16813  0.50238  0.84005  1.0000
  H   H224      1.0  0.02091  0.36782  0.92051  1.0000
  C   C239      1.0  0.12094  0.20096  0.74623  1.0000
  C   C240      1.0  0.47585  0.08972  0.80494  1.0000
  H   H225      1.0  0.29009  0.18588  0.66117  1.0000
  H   H226      1.0  0.36880  0.10268  0.80957  1.0000
  H   H227      1.0  0.02640  0.33239  0.88105  1.0000
  C   C241      1.0  0.20905  0.14362  0.70156  1.0000
  C   C242      1.0  0.22383  0.14342  0.67643  1.0000
  C   C243      1.0  0.42961  0.10800  0.73085  1.0000
  N   N21       1.0  0.44745  0.06607  0.94106  1.0000
  C   C244      1.0  0.16052  0.14348  0.67781  1.0000
  C   C245      1.0  0.17732  0.14359  0.70211  1.0000
  H   H228      1.0  0.24818  0.14315  0.67566  1.0000
  H   H229      1.0  0.13617  0.14315  0.67851  1.0000
  H   H230      1.0  0.16576  0.14322  0.72145  1.0000
  C   C246      1.0  0.34304  0.18731  0.84277  1.0000
  C   C247      1.0  0.36282  0.18815  0.86504  1.0000
  C   C248      1.0  0.35232  0.19797  0.89083  1.0000
  C   C249      1.0  0.32189  0.20717  0.89454  1.0000
  C   C250      1.0  0.30213  0.20641  0.87228  1.0000
  C   C251      1.0  0.31261  0.19643  0.84651  1.0000
  H   H231      1.0  0.38641  0.18122  0.86229  1.0000
  H   H232      1.0  0.36774  0.19855  0.90778  1.0000
  H   H233      1.0  0.27856  0.21351  0.87498  1.0000
  H   H234      1.0  0.29717  0.19590  0.82955  1.0000
  C   C252      1.0  0.41597  0.08176  0.72235  1.0000
  H   H235      1.0  0.05734  0.14251  0.97938  1.0000
  C   C253      1.0  0.29872  0.48986  0.97549  1.0000
  H   H236      1.0  0.37686  0.11873  0.77705  1.0000
  H   H237      1.0  0.37304  0.07886  0.77944  1.0000
  C   C254      1.0  0.05029  0.26563  0.72553  1.0000
  C   C255      1.0  0.46001  0.11764  0.80879  1.0000
  Fe  Fe51      1.0  0.05254  0.47968  0.78622  1.0000
  H   H238      1.0  0.35525  0.52919  0.80706  1.0000
  S   S94       1.0  0.01046  0.45327  0.72215  1.0000
  H   H239      1.0  0.47276  0.04300  0.79296  1.0000
  H   H240      1.0  0.03980  0.31058  0.77160  1.0000
  C   C256      1.0  0.43081  0.51637  0.81475  1.0000
  C   C257      1.0  0.42884  0.12001  0.80420  1.0000
  C   C258      1.0  0.03287  0.48808  0.85611  1.0000
  H   H241      1.0  0.06459  0.43504  0.87462  1.0000
  H   H242      1.0  0.36673  0.09639  0.65546  1.0000
  N   N22       1.0  0.19003  0.49501  0.81832  1.0000
  C   C259      1.0  0.46041  0.06453  0.79682  1.0000
  C   C260      1.0  0.34470  0.33956  0.66601  1.0000
  H   H243      1.0  0.01940  0.48519  0.83823  1.0000
  S   S95       1.0  0.03060  0.37344  0.75891  1.0000
  S   S96       1.0  0.35652  0.50205  0.87524  1.0000
  C   C261      1.0  0.03165  0.37490  0.90195  1.0000
  N   N23       1.0  0.05752  0.39358  0.85382  1.0000
  C   C262      1.0  0.04807  0.36472  0.85585  1.0000
  C   C263      1.0  0.05582  0.41271  0.87581  1.0000
  H   H244      1.0  0.39996  0.07599  0.94471  1.0000
  C   C264      1.0  0.01977  0.48522  0.88185  1.0000
  H   H245      1.0  0.45492  0.15283  0.94460  1.0000
  C   C265      1.0  0.47549  0.07751  0.94066  1.0000
  C   C266      1.0  0.32144  0.21846  0.64841  1.0000
  H   H246      1.0  0.29874  0.28866  0.92387  1.0000
  H   H247      1.0  0.99638  0.47969  0.88354  1.0000
  H   H248      1.0  0.36511  0.33505  0.65312  1.0000
  Fe  Fe52      1.0  0.04520  0.50016  0.97317  1.0000
  C   C267      1.0  0.28534  0.28249  0.66151  1.0000
  C   C268      1.0  0.31503  0.33034  0.94044  1.0000
  H   H249      1.0  0.39489  0.29545  0.92486  1.0000
  H   H250      1.0  0.34998  0.26678  0.91295  1.0000
  C   C269      1.0  0.02294  0.21194  0.96791  1.0000
  C   C270      1.0  0.45287  0.12848  0.94297  1.0000
  S   S97       1.0  0.03758  0.51231  0.75359  1.0000
  H   H251      1.0  0.00924  0.05403  0.81105  1.0000
  H   H252      1.0  0.06055  0.39247  0.81048  1.0000
  H   H253      1.0  0.19529  0.49525  0.74970  1.0000
  H   H254      1.0  0.27710  0.26418  0.67361  1.0000
  S   S98       1.0  0.30434  0.51117  0.68739  1.0000
  H   H255      1.0  0.08859  0.23593  0.69157  1.0000
  C   C271      1.0  0.20222  0.49260  0.77072  1.0000
  C   C272      1.0  0.42440  0.11659  0.94378  1.0000
  C   C273      1.0  0.32276  0.46808  0.97318  1.0000
  C   C274      1.0  0.33577  0.37598  0.95979  1.0000
  H   H256      1.0  0.26401  0.47387  0.80915  1.0000
  H   H257      1.0  0.40434  0.13168  0.94603  1.0000
  H   H258      1.0  0.15818  0.50545  0.78688  1.0000
  C   C275      1.0  0.01591  0.35161  0.78540  1.0000
  H   H259      1.0  0.31834  0.29390  0.69103  1.0000
  S   S99       1.0  0.00350  0.15547  0.86215  1.0000
  H   H260      1.0  0.10525  0.20735  0.78749  1.0000
  C   C276      1.0  0.01023  0.20355  0.72958  1.0000
  C   C277      1.0  0.42929  0.06776  0.79218  1.0000
  Fe  Fe53      1.0  0.27098  0.52510  0.88197  1.0000
  C   C278      1.0  0.47863  0.10887  0.94149  1.0000
  S   S100      1.0  0.38237  0.23715  0.96892  1.0000
  C   C279      1.0  0.38158  0.09882  0.79029  1.0000
  H   H261      1.0  0.00393  0.14048  0.66992  1.0000
  H   H262      1.0  0.01483  0.22629  0.95144  1.0000
  H   H263      1.0  0.06453  0.24523  0.77514  1.0000
  C   C280      1.0  0.23211  0.48369  0.77695  1.0000
  C   C281      1.0  0.11616  0.20905  0.71917  1.0000
  H   H264      1.0  0.38793  0.34594  0.94682  1.0000
  S   S101      1.0  0.02290  0.20382  0.67537  1.0000
  C   C282      1.0  0.30877  0.29945  0.67129  1.0000
  Fe  Fe54      1.0  0.05429  0.47625  0.72397  1.0000
  C   C283      1.0  0.10231  0.21415  0.76645  1.0000
  S   S102      1.0  0.02057  0.48242  0.93708  1.0000
  H   H265      1.0  0.41764  0.04835  0.78488  1.0000
  C   C284      1.0  0.06793  0.48778  0.65498  1.0000
  C   C285      1.0  0.38174  0.14120  0.66286  1.0000
  C   C286      1.0  0.07915  0.23543  0.75930  1.0000
  C   C287      1.0  0.08036  0.49872  0.87721  1.0000
  H   H266      1.0  0.04057  0.26057  0.70529  1.0000
  C   C288      1.0  0.06713  0.49629  0.90304  1.0000
  H   H267      1.0  0.31696  0.38997  0.95045  1.0000
  H   H268      1.0  0.13885  0.18424  0.75151  1.0000
  S   S103      1.0  0.08112  0.49356  0.82167  1.0000
  H   H269      1.0  0.01995  0.08787  0.66089  1.0000
  C   C289      1.0  0.40050  0.51018  0.81163  1.0000
  C   C290      1.0  0.07072  0.40366  0.82831  1.0000
  C   C291      1.0  0.03693  0.48900  0.90533  1.0000
  H   H270      1.0  0.39373  0.48690  0.81114  1.0000
  C   C292      1.0  0.31832  0.30159  0.92825  1.0000
  C   C293      1.0  0.02454  0.32052  0.78673  1.0000
  C   C294      1.0  0.47838  0.07984  0.73441  1.0000
  H   H271      1.0  0.05929  0.28861  0.72517  1.0000
  N   N24       1.0  0.07435  0.24293  0.73267  1.0000
  S   S104      1.0  0.08197  0.49171  0.68826  1.0000
  H   H272      1.0  0.47086  0.12742  0.74365  1.0000
  H   H273      1.0  0.41659  0.14186  0.80687  1.0000
  H   H274      1.0  0.35074  0.33391  0.68734  1.0000
  H   H275      1.0  0.06632  0.42850  0.82555  1.0000
  C   C295      1.0  0.30145  0.51616  0.74285  1.0000
  H   H276      1.0  0.02106  0.27856  0.80876  1.0000
  H   H277      1.0  0.35626  0.38927  0.95798  1.0000
  C   C296      1.0  0.46494  0.05364  0.72543  1.0000
  H   H278      1.0  0.39441  0.18758  0.66425  1.0000
  H   H279      1.0  0.47186  0.13748  0.81467  1.0000
  C   C297      1.0  0.42210  0.08511  0.94310  1.0000
  N   N25       1.0  0.31993  0.32199  0.65589  1.0000
  H   H280      1.0  0.44784  0.49793  0.81694  1.0000
  H   H281      1.0  0.24860  0.47932  0.76083  1.0000
  C   C298      1.0  0.01397  0.30237  0.80775  1.0000
  H   H282      1.0  0.04041  0.41955  0.91718  1.0000
  C   C299      1.0  0.20051  0.53370  0.91447  1.0000
  H   H283      1.0  0.00268  0.20652  0.77274  1.0000
  H   H284      1.0  0.15682  0.52983  0.89595  1.0000
  C   C300      1.0  0.04304  0.47061  0.64980  1.0000
  C   C301      1.0  0.00047  0.10164  0.80408  1.0000
  C   C302      1.0  0.21935  0.48654  0.82461  1.0000
  H   H285      1.0  0.29790  0.51993  0.78654  1.0000
  H   H286      1.0  0.17436  0.49021  0.85911  1.0000
  H   H287      1.0  0.49564  0.06239  0.94000  1.0000
  H   H288      1.0  0.16747  0.52714  0.84447  1.0000
  C   C303      1.0  0.37386  0.52299  0.96741  1.0000
  H   H289      1.0  0.35057  0.52450  0.95908  1.0000
  H   H290      1.0  0.14511  0.49597  0.83428  1.0000
  H   H291      1.0  0.22636  0.48444  0.84563  1.0000
  H   H292      1.0  0.12862  0.53089  0.93955  1.0000
  C   C304      1.0  0.15288  0.53244  0.93954  1.0000
  Fe  Fe55      1.0  0.32825  0.49118  0.65001  1.0000
  C   C305      1.0  0.99804  0.08062  0.66888  1.0000
  C   C306      1.0  0.38681  0.16932  0.65155  1.0000
  C   C307      1.0  0.99643  0.36444  0.80525  1.0000
  S   S105      1.0  0.37494  0.46875  0.64710  1.0000
  H   H293      1.0  0.46751  0.83078  0.14031  1.0000
  C   C308      1.0  0.48899  0.82966  0.03061  1.0000
  H   H294      1.0  0.48274  0.61870  0.10295  1.0000
  H   H295      1.0  0.47291  0.99580  0.09652  1.0000
  Fe  Fe56      1.0  0.47351  0.99718  0.00839  1.0000
  S   S106      1.0  0.44009  0.66918  0.11710  1.0000
  H   H296      1.0  0.34718  0.57256  0.29873  1.0000
  H   H297      1.0  0.47009  0.70612  0.19668  1.0000
  C   C309      1.0  0.37576  0.54109  0.05217  1.0000
  S   S107      1.0  0.49116  0.88182  0.00061  1.0000
  S   S108      1.0  0.14881  0.53761  0.99563  1.0000
  Fe  Fe57      1.0  0.48524  0.68974  0.11039  1.0000
  Fe  Fe58      1.0  0.03446  0.55145  0.01342  1.0000
  C   C310      1.0  0.47308  0.00987  0.13837  1.0000
  H   H298      1.0  0.45531  0.86740  0.15391  1.0000
  H   H299      1.0  0.32922  0.54893  0.99788  1.0000
  S   S109      1.0  0.07512  0.53707  0.03844  1.0000
  C   C311      1.0  0.47868  0.01355  0.11064  1.0000
  H   H300      1.0  0.37651  0.54598  0.07377  1.0000
  S   S110      1.0  0.00212  0.59139  0.02414  1.0000
  S   S111      1.0  0.49343  0.96214  0.03695  1.0000
  C   C312      1.0  0.49499  0.81115  0.05339  1.0000
  C   C313      1.0  0.34260  0.57273  0.25527  1.0000
  C   C314      1.0  0.00859  0.56148  0.10209  1.0000
  H   H301      1.0  0.01373  0.53786  0.18064  1.0000
  C   C315      1.0  0.00300  0.53775  0.08431  1.0000
  H   H302      1.0  0.32804  0.59331  0.25504  1.0000
  C   C316      1.0  0.35031  0.55765  0.23100  1.0000
  H   H303      1.0  0.48423  0.64931  0.15584  1.0000
  C   C317      1.0  0.34985  0.54893  0.03723  1.0000
  C   C318      1.0  0.42997  0.56617  0.11194  1.0000
  C   C319      1.0  0.45788  0.57830  0.10628  1.0000
  C   C320      1.0  0.46120  0.60978  0.10761  1.0000
  C   C321      1.0  0.43660  0.62947  0.11471  1.0000
  C   C322      1.0  0.40864  0.61736  0.12034  1.0000
  C   C323      1.0  0.40529  0.58583  0.11896  1.0000
  H   H304      1.0  0.48834  0.78795  0.05339  1.0000
  H   H305      1.0  0.33003  0.55936  0.04727  1.0000
  H   H306      1.0  0.38947  0.63244  0.12580  1.0000
  H   H307      1.0  0.38369  0.57679  0.12344  1.0000
  C   C324      1.0  0.35332  0.56075  0.27991  1.0000
  C   C325      1.0  0.48133  0.03208  0.15677  1.0000
  H   H308      1.0  0.00480  0.54098  0.06258  1.0000
  H   H309      1.0  0.44204  0.68318  0.21188  1.0000
  C   C326      1.0  0.45926  0.68407  0.19553  1.0000
  H   H310      1.0  0.34140  0.56604  0.21176  1.0000
  H   H311      1.0  0.46338  0.98942  0.14568  1.0000
  H   H312      1.0  0.47704  0.56324  0.10076  1.0000
  N   N26       1.0  0.48230  0.65916  0.19831  1.0000
  H   H313      1.0  0.01459  0.58319  0.09405  1.0000
  C   C327      1.0  0.34946  0.54270  0.00933  1.0000
  H   H314      1.0  0.44715  0.68282  0.17579  1.0000
  H   H315      1.0  0.47787  0.82045  0.01311  1.0000
  C   C328      1.0  0.49309  0.64377  0.17578  1.0000
  H   H316      1.0  0.48624  0.66543  0.24119  1.0000
  H   H317      1.0  0.01103  0.57538  0.14389  1.0000
  C   C329      1.0  0.47467  0.85409  0.14456  1.0000
  C   C330      1.0  0.00655  0.55688  0.13014  1.0000
  S   S112      1.0  0.43196  0.02730  0.01892  1.0000
  H   H318      1.0  0.48025  0.86421  0.12469  1.0000
  H   H319      1.0  0.48112  0.03028  0.05991  1.0000
  H   H320      1.0  0.21161  0.54159  0.98245  1.0000
  C   C331      1.0  0.49396  0.65249  0.22342  1.0000
  H   H321      1.0  0.47761  0.02921  0.17838  1.0000
  N   N27       1.0  0.37100  0.53431  0.28028  1.0000
  H   H322      1.0  0.47393  0.56282  0.59526  1.0000
  C   C332      1.0  0.48577  0.83112  0.53089  1.0000
  H   H323      1.0  0.38198  0.63068  0.60695  1.0000
  C   C333      1.0  0.00596  0.54242  0.63274  1.0000
  S   S113      1.0  0.36103  0.58766  0.36204  1.0000
  H   H324      1.0  0.34027  0.58791  0.53608  1.0000
  S   S114      1.0  0.99947  0.60095  0.48703  1.0000
  H   H325      1.0  0.38972  0.65525  0.41295  1.0000
  C   C334      1.0  0.46616  0.61084  0.42333  1.0000
  S   S115      1.0  0.21890  0.54062  0.38169  1.0000
  N   N28       1.0  0.49301  0.02347  0.60066  1.0000
  S   S116      1.0  0.49007  0.72029  0.63733  1.0000
  C   C335      1.0  0.44943  0.55725  0.36574  1.0000
  H   H326      1.0  0.44022  0.57134  0.42750  1.0000
  C   C336      1.0  0.41764  0.55794  0.36594  1.0000
  Fe  Fe59      1.0  0.33341  0.54712  0.37090  1.0000
  C   C337      1.0  0.33308  0.56426  0.53716  1.0000
  Fe  Fe60      1.0  0.47411  0.99851  0.51202  1.0000
  C   C338      1.0  0.42591  0.56493  0.60241  1.0000
  C   C339      1.0  0.41130  0.64306  0.41624  1.0000
  H   H327      1.0  0.48449  0.78917  0.55320  1.0000
  C   C340      1.0  0.40088  0.58482  0.35987  1.0000
  S   S117      1.0  0.29565  0.53768  0.34221  1.0000
  C   C341      1.0  0.49112  0.81236  0.55364  1.0000
  C   C342      1.0  0.46469  0.58347  0.35982  1.0000
  C   C343      1.0  0.44787  0.61012  0.35316  1.0000
  C   C344      1.0  0.41613  0.61074  0.35309  1.0000
  H   H328      1.0  0.44278  0.70260  0.42875  1.0000
  H   H329      1.0  0.48573  0.65356  0.41720  1.0000
  H   H330      1.0  0.45924  0.63030  0.34816  1.0000
  H   H331      1.0  0.40335  0.63159  0.34825  1.0000
  H   H332      1.0  0.48347  0.70216  0.47753  1.0000
  H   H333      1.0  0.37830  0.57482  0.60882  1.0000
  Fe  Fe61      1.0  0.02817  0.55721  0.49268  1.0000
  Fe  Fe62      1.0  0.47765  0.69003  0.60245  1.0000
  H   H334      1.0  0.45395  0.69560  0.39401  1.0000
  S   S118      1.0  0.43235  0.66837  0.60256  1.0000
  H   H335      1.0  0.38018  0.54094  0.56483  1.0000
  H   H336      1.0  0.45616  0.00132  0.58285  1.0000
  C   C345      1.0  0.46484  0.64204  0.41846  1.0000
  C   C346      1.0  0.46928  0.00493  0.60109  1.0000
  H   H337      1.0  0.33931  0.54184  0.48670  1.0000
  H   H338      1.0  0.02764  0.54366  0.38007  1.0000
  C   C347      1.0  0.43704  0.69041  0.40978  1.0000
  H   H339      1.0  0.01008  0.54551  0.61121  1.0000
  N   N29       1.0  0.43767  0.65768  0.41473  1.0000
  C   C348      1.0  0.41177  0.61188  0.42126  1.0000
  H   H340      1.0  0.47753  0.61849  0.59363  1.0000
  S   S119      1.0  0.47544  0.96857  0.47490  1.0000
  H   H341      1.0  0.32742  0.55898  0.55858  1.0000
  H   H342      1.0  0.39089  0.60016  0.42127  1.0000
  C   C349      1.0  0.45374  0.57754  0.59767  1.0000
  C   C350      1.0  0.45588  0.60917  0.59688  1.0000
  C   C351      1.0  0.43015  0.62852  0.60066  1.0000
  C   C352      1.0  0.40205  0.61586  0.60418  1.0000
  C   C353      1.0  0.39990  0.58418  0.60512  1.0000
  H   H343      1.0  0.02810  0.54175  0.32981  1.0000
  S   S120      1.0  0.06312  0.55011  0.52568  1.0000
  H   H344      1.0  0.31187  0.56226  0.52543  1.0000
  C   C354      1.0  0.14924  0.53818  0.43557  1.0000
  H   H345      1.0  0.41464  0.69945  0.40250  1.0000
  H   H346      1.0  0.47531  0.82209  0.51296  1.0000
  S   S121      1.0  0.05908  0.53852  0.45956  1.0000
  H   H347      1.0  0.12500  0.54245  0.43513  1.0000
  S   S122      1.0  0.43233  0.02728  0.52393  1.0000
  C   C355      1.0  0.43943  0.59572  0.42472  1.0000
  H   H348      1.0  0.15514  0.54745  0.39296  1.0000
  C   C356      1.0  0.19800  0.53602  0.41198  1.0000
  C   C357      1.0  0.16640  0.54100  0.41167  1.0000
  C   C358      1.0  0.46172  0.99012  0.62500  1.0000
  N   N30       1.0  0.35717  0.54311  0.52689  1.0000
  C   C359      1.0  0.49399  0.86143  0.53113  1.0000
  S   S123      1.0  0.48880  0.88374  0.50152  1.0000
  H   H349      1.0  0.44326  0.97501  0.62517  1.0000
  S   S124      1.0  0.49338  0.72212  0.57054  1.0000
  S   S125      1.0  0.30501  0.54140  0.40837  1.0000
  H   H350      1.0  0.40622  0.53785  0.37133  1.0000
  C   C360      1.0  0.00844  0.53504  0.34097  1.0000
  C   C361      1.0  0.00809  0.53590  0.36940  1.0000
  H   H351      1.0  0.48785  0.59833  0.42500  1.0000
  H   H352      1.0  0.46228  0.53651  0.37083  1.0000
  H   H353      1.0  0.49413  0.95059  0.35621  1.0000
  H   H354      1.0  0.04544  0.56500  0.64549  1.0000
  S   S126      1.0  0.49328  0.96210  0.53954  1.0000
  H   H355      1.0  0.48683  0.03215  0.55823  1.0000
  H   H356      1.0  0.37314  0.53521  0.32372  1.0000
  H   H357      1.0  0.45464  0.01220  0.31778  1.0000
  C   C362      1.0  0.35734  0.53406  0.50024  1.0000
  H   H358      1.0  0.35911  0.59313  0.78622  1.0000
  S   S127      1.0  0.29921  0.54131  0.84734  1.0000
  C   C363      1.0  0.44442  0.03320  0.94074  1.0000
  H   H359      1.0  0.38721  0.53991  0.95686  1.0000
  S   S128      1.0  0.36120  0.59112  0.87760  1.0000
  H   H360      1.0  0.39758  0.60997  0.66229  1.0000
  H   H361      1.0  0.43703  0.64583  0.66915  1.0000
  S   S129      1.0  0.06003  0.54788  0.97386  1.0000
  Fe  Fe63      1.0  0.33462  0.54875  0.87912  1.0000
  H   H362      1.0  0.40847  0.59080  0.69344  1.0000
  C   C364      1.0  0.02582  0.55330  0.65195  1.0000
  C   C365      1.0  0.41672  0.56989  0.81285  1.0000
  H   H363      1.0  0.34254  0.58270  0.81826  1.0000
  C   C366      1.0  0.16816  0.53589  0.96410  1.0000
  H   H364      1.0  0.45818  0.55075  0.66178  1.0000
  N   N31       1.0  0.38695  0.56362  0.81052  1.0000
  C   C367      1.0  0.43907  0.54640  0.81519  1.0000
  C   C368      1.0  0.48391  0.63278  0.66334  1.0000
  H   H365      1.0  0.45483  0.64044  0.92674  1.0000
  H   H366      1.0  0.46254  0.55156  0.81804  1.0000
  H   H367      1.0  0.45857  0.63561  0.86312  1.0000
  H   H368      1.0  0.24000  0.53859  0.93907  1.0000
  H   H369      1.0  0.48962  0.63974  0.90778  1.0000
  C   C369      1.0  0.45348  0.62686  0.66669  1.0000
  N   N32       1.0  0.49442  0.63907  0.95092  1.0000
  H   H370      1.0  0.46501  0.02083  0.93245  1.0000
  S   S130      1.0  0.47557  0.96532  0.97254  1.0000
  H   H371      1.0  0.46319  0.54105  0.88350  1.0000
  H   H372      1.0  0.40276  0.63692  0.86708  1.0000
  H   H373      1.0  0.42329  0.59318  0.81372  1.0000
  C   C370      1.0  0.46531  0.57387  0.66258  1.0000
  H   H374      1.0  0.28731  0.53650  0.73923  1.0000
  N   N33       1.0  0.44454  0.59768  0.66626  1.0000
  C   C371      1.0  0.40111  0.58957  0.87699  1.0000
  C   C372      1.0  0.41831  0.56260  0.88171  1.0000
  C   C373      1.0  0.45004  0.56204  0.87994  1.0000
  C   C374      1.0  0.46481  0.58831  0.87320  1.0000
  C   C375      1.0  0.44759  0.61530  0.86862  1.0000
  C   C376      1.0  0.41591  0.61596  0.87075  1.0000
  C   C377      1.0  0.19964  0.53822  0.96370  1.0000
  C   C378      1.0  0.36380  0.58846  0.80797  1.0000
  H   H375      1.0  0.47265  0.67375  0.97555  1.0000
  H   H376      1.0  0.47836  0.03254  0.72348  1.0000
  H   H377      1.0  0.37093  0.60943  0.81820  1.0000
  H   H378      1.0  0.49098  0.65592  0.66361  1.0000
  C   C379      1.0  0.21581  0.53669  0.93906  1.0000
  H   H379      1.0  0.42514  0.02708  0.92785  1.0000
  H   H380      1.0  0.40674  0.57004  0.66177  1.0000
  H   H381      1.0  0.40723  0.54215  0.88662  1.0000
  H   H382      1.0  0.47316  0.98300  0.66719  1.0000
  H   H383      1.0  0.44058  0.02520  0.96171  1.0000
  C   C380      1.0  0.48863  0.65423  0.97486  1.0000
  C   C381      1.0  0.47801  0.64874  0.92639  1.0000
  C   C382      1.0  0.02103  0.54795  0.67947  1.0000
  H   H384      1.0  0.47677  0.67390  0.92474  1.0000
  C   C383      1.0  0.41279  0.59184  0.67127  1.0000
  H   H385      1.0  0.03685  0.55547  0.69454  1.0000
  S   S131      1.0  0.30439  0.53727  0.91396  1.0000
  C   C384      1.0  0.47831  0.99474  0.64859  1.0000
  C   C385      1.0  0.37875  0.53423  0.80941  1.0000
  N   N34       1.0  0.90541  0.06975  0.15617  1.0000
  C   C386      1.0  0.95535  0.27368  0.29055  1.0000
  C   C387      1.0  0.91290  0.12278  0.16310  1.0000
  S   S132      1.0  0.84377  0.09326  0.09320  1.0000
  S   S133      1.0  0.98740  0.08335  0.09166  1.0000
  Fe  Fe64      1.0  0.81742  0.05161  0.10049  1.0000
  H   H386      1.0  0.95432  0.19247  0.00617  1.0000
  S   S134      1.0  0.77710  0.03833  0.07638  1.0000
  C   C388      1.0  0.96864  0.30845  0.24586  1.0000
  H   H387      1.0  0.98002  0.08219  0.15751  1.0000
  C   C389      1.0  0.84496  0.04068  0.00604  1.0000
  N   N35       1.0  0.97458  0.14757  0.00312  1.0000
  C   C390      1.0  0.73651  0.07978  0.20237  1.0000
  C   C391      1.0  0.95580  0.08702  0.15881  1.0000
  C   C392      1.0  0.96129  0.17373  0.99278  1.0000
  H   H388      1.0  0.94598  0.34594  0.26741  1.0000
  Fe  Fe65      1.0  0.98465  0.48499  0.25718  1.0000
  C   C393      1.0  0.94747  0.08673  0.09045  1.0000
  S   S135      1.0  0.54998  0.04665  0.26674  1.0000
  H   H389      1.0  0.93433  0.31470  0.30763  1.0000
  S   S136      1.0  0.70662  0.03848  0.12298  1.0000
  H   H390      1.0  0.50195  0.07476  0.16166  1.0000
  C   C394      1.0  0.94413  0.11678  0.16251  1.0000
  C   C395      1.0  0.93148  0.11476  0.09357  1.0000
  C   C396      1.0  0.49765  0.04230  0.07239  1.0000
  C   C397      1.0  0.95238  0.32184  0.26764  1.0000
  C   C398      1.0  0.98369  0.12409  0.98618  1.0000
  C   C399      1.0  0.94599  0.30436  0.29021  1.0000
  H   H391      1.0  0.51157  0.08024  0.11227  1.0000
  H   H392      1.0  0.98348  0.52400  0.30501  1.0000
  H   H393      1.0  0.98140  0.24997  0.21176  1.0000
  C   C400      1.0  0.93600  0.06361  0.15585  1.0000
  H   H394      1.0  0.61513  0.04895  0.17894  1.0000
  H   H395      1.0  0.95924  0.13522  0.16452  1.0000
  C   C401      1.0  0.69313  0.05380  0.27482  1.0000
  H   H396      1.0  0.97935  0.18120  0.23838  1.0000
  C   C402      1.0  0.88363  0.09023  0.09091  1.0000
  C   C403      1.0  0.89973  0.11652  0.09359  1.0000
  H   H397      1.0  0.88758  0.13829  0.09629  1.0000
  H   H398      1.0  0.97443  0.32259  0.22889  1.0000
  C   C404      1.0  0.99333  0.50609  0.12275  1.0000
  C   C405      1.0  0.89959  0.06226  0.08716  1.0000
  C   C406      1.0  0.93136  0.06055  0.08685  1.0000
  S   S137      1.0  0.93894  0.51048  0.26039  1.0000
  H   H399      1.0  0.94339  0.13513  0.09620  1.0000
  C   C407      1.0  0.97784  0.14425  0.03262  1.0000
  S   S138      1.0  0.79491  0.04485  0.14080  1.0000
  Fe  Fe66      1.0  0.51669  0.05404  0.23246  1.0000
  C   C408      1.0  0.97149  0.26099  0.26839  1.0000
  H   H400      1.0  0.88759  0.04192  0.08444  1.0000
  C   C409      1.0  0.65542  0.04293  0.15428  1.0000
  H   H401      1.0  0.70823  0.05363  0.29282  1.0000
  C   C410      1.0  0.70589  0.08751  0.20646  1.0000
  H   H402      1.0  0.69255  0.09824  0.19037  1.0000
  N   N36       1.0  0.97836  0.27849  0.24665  1.0000
  C   C411      1.0  0.73858  0.05725  0.24691  1.0000
  C   C412      1.0  0.89375  0.09884  0.15990  1.0000
  H   H403      1.0  0.49826  0.04102  0.30396  1.0000
  C   C413      1.0  0.69213  0.07966  0.23084  1.0000
  H   H404      1.0  0.74717  0.08482  0.18318  1.0000
  H   H405      1.0  0.90362  0.14589  0.16555  1.0000
  H   H406      1.0  0.66799  0.08444  0.23332  1.0000
  H   H407      1.0  0.86949  0.10373  0.15977  1.0000
  H   H408      1.0  0.99171  0.49104  0.08089  1.0000
  C   C414      1.0  0.75308  0.06477  0.22279  1.0000
  N   N37       1.0  0.70846  0.06456  0.25060  1.0000
  H   H409      1.0  0.64491  0.05345  0.13665  1.0000
  H   H410      1.0  0.77683  0.05830  0.21976  1.0000
  H   H411      1.0  0.98249  0.16631  0.04238  1.0000
  C   C415      1.0  0.88491  0.04496  0.15355  1.0000
  H   H412      1.0  0.94351  0.03877  0.08418  1.0000
  H   H413      1.0  0.97898  0.23717  0.26889  1.0000
  H   H414      1.0  0.83597  0.05707  0.02095  1.0000
  H   H415      1.0  0.67257  0.06839  0.27974  1.0000
  S   S139      1.0  0.99217  0.17008  0.10634  1.0000
  H   H416      1.0  0.95688  0.13576  0.04145  1.0000
  C   C416      1.0  0.63841  0.04026  0.17822  1.0000
  H   H417      1.0  0.86428  0.05245  0.14209  1.0000
  H   H418      1.0  0.98775  0.48419  0.13058  1.0000
  H   H419      1.0  0.87815  0.03706  0.17395  1.0000
  S   S140      1.0  0.99421  0.19036  0.18254  1.0000
  C   C417      1.0  0.50038  0.06059  0.11944  1.0000
  H   H420      1.0  0.95067  0.25997  0.30813  1.0000
  H   H421      1.0  0.99424  0.10336  0.99434  1.0000
  C   C418      1.0  0.99532  0.50987  0.09461  1.0000
  S   S141      1.0  0.55028  0.03837  0.20037  1.0000
  H   H422      1.0  0.94529  0.04061  0.15263  1.0000
  H   H423      1.0  0.75145  0.04498  0.26247  1.0000
  H   H424      1.0  0.97359  0.53337  0.17662  1.0000
  S   S142      1.0  0.94425  0.15771  0.35609  1.0000
  Fe  Fe67      1.0  0.84536  0.04503  0.60505  1.0000
  C   C419      1.0  0.92944  0.05607  0.60174  1.0000
  H   H425      1.0  0.88648  0.06663  0.34699  1.0000
  H   H426      1.0  0.49771  0.06382  0.57823  1.0000
  C   C420      1.0  0.94085  0.11785  0.35537  1.0000
  C   C421      1.0  0.98822  0.16647  0.46403  1.0000
  N   N38       1.0  0.98376  0.52644  0.38354  1.0000
  C   C422      1.0  0.93331  0.05451  0.35492  1.0000
  H   H427      1.0  0.52849  0.04240  0.62322  1.0000
  C   C423      1.0  0.96191  0.06592  0.35917  1.0000
  H   H428      1.0  0.96680  0.51705  0.62620  1.0000
  C   C424      1.0  0.90853  0.07496  0.35072  1.0000
  H   H429      1.0  0.99143  0.35519  0.34989  1.0000
  H   H430      1.0  0.98784  0.10584  0.36256  1.0000
  C   C425      1.0  0.92846  0.11009  0.59401  1.0000
  H   H431      1.0  0.97175  0.12977  0.59156  1.0000
  H   H432      1.0  0.91585  0.13152  0.59113  1.0000
  C   C426      1.0  0.98334  0.52807  0.41332  1.0000
  H   H433      1.0  0.98211  0.17937  0.50593  1.0000
  S   S143      1.0  0.87297  0.08655  0.60033  1.0000
  C   C427      1.0  0.96572  0.09742  0.35930  1.0000
  C   C428      1.0  0.96023  0.10917  0.59438  1.0000
  C   C429      1.0  0.91227  0.10644  0.35117  1.0000
  H   H434      1.0  0.89293  0.12205  0.34800  1.0000
  C   C430      1.0  0.96124  0.05508  0.60170  1.0000
  C   C431      1.0  0.97679  0.08168  0.59843  1.0000
  C   C432      1.0  0.98158  0.52612  0.64138  1.0000
  H   H435      1.0  0.97574  0.18643  0.45632  1.0000
  C   C433      1.0  0.86918  0.03881  0.46089  1.0000
  C   C434      1.0  0.91288  0.08366  0.59810  1.0000
  H   H436      1.0  0.88443  0.07524  0.41561  1.0000
  H   H437      1.0  0.98124  0.05030  0.36232  1.0000
  C   C435      1.0  0.98356  0.52484  0.32704  1.0000
  H   H438      1.0  0.93979  0.50936  0.38121  1.0000
  H   H439      1.0  0.91780  0.03554  0.60493  1.0000
  Fe  Fe68      1.0  0.98933  0.17958  0.35707  1.0000
  C   C436      1.0  0.99194  0.16235  0.49203  1.0000
  H   H440      1.0  0.85149  0.05667  0.46299  1.0000
  H   H441      1.0  0.66969  0.05101  0.63604  1.0000
  H   H442      1.0  0.97334  0.50772  0.42204  1.0000
  H   H443      1.0  0.93933  0.50769  0.33069  1.0000
  H   H444      1.0  0.84965  0.05578  0.41149  1.0000
  H   H445      1.0  0.55681  0.03598  0.38059  1.0000
  H   H446      1.0  0.99185  0.12144  0.53914  1.0000
  C   C437      1.0  0.50100  0.03885  0.57559  1.0000
  S   S144      1.0  0.80615  0.03603  0.57760  1.0000
  C   C438      1.0  0.87465  0.05277  0.41324  1.0000
  C   C439      1.0  0.95918  0.51659  0.37001  1.0000
  C   C440      1.0  0.95873  0.51559  0.34156  1.0000
  S   S145      1.0  0.73160  0.03862  0.62041  1.0000
  H   H447      1.0  0.88310  0.04257  0.39383  1.0000
  S   S146      1.0  0.81859  0.03791  0.64318  1.0000
  S   S147      1.0  0.51661  0.07919  0.74462  1.0000
  H   H448      1.0  0.97077  0.35636  0.84159  1.0000
  C   C441      1.0  0.99187  0.07198  0.80806  1.0000
  H   H449      1.0  0.96465  0.15595  0.92545  1.0000
  H   H450      1.0  0.70532  0.06053  0.76975  1.0000
  Fe  Fe69      1.0  0.95960  0.18243  0.85956  1.0000
  H   H451      1.0  0.99277  0.22086  0.72496  1.0000
  C   C442      1.0  0.95727  0.17705  0.96473  1.0000
  C   C443      1.0  0.94791  0.11846  0.80136  1.0000
  C   C444      1.0  0.68056  0.03759  0.65192  1.0000
  C   C445      1.0  0.76706  0.05637  0.73074  1.0000
  N   N39       1.0  0.97706  0.52098  0.66844  1.0000
  C   C446      1.0  0.72583  0.04735  0.76236  1.0000
  C   C447      1.0  0.98021  0.12674  0.95802  1.0000
  H   H452      1.0  0.99273  0.52766  0.70877  1.0000
  H   H453      1.0  0.69293  0.07434  0.72322  1.0000
  S   S148      1.0  0.91508  0.15963  0.85799  1.0000
  C   C448      1.0  0.94485  0.09685  0.66185  1.0000
  C   C449      1.0  0.88526  0.07442  0.85998  1.0000
  N   N40       1.0  0.97408  0.10450  0.66533  1.0000
  H   H454      1.0  0.95687  0.05757  0.88174  1.0000
  H   H455      1.0  0.96393  0.18103  0.66394  1.0000
  H   H456      1.0  0.86470  0.06373  0.85482  1.0000
  S   S149      1.0  0.97147  0.21592  0.89189  1.0000
  N   N41       1.0  0.73698  0.05983  0.73698  1.0000
  C   C450      1.0  0.72690  0.08225  0.69335  1.0000
  H   H457      1.0  0.99309  0.05988  0.65711  1.0000
  C   C451      1.0  0.93718  0.07105  0.87503  1.0000
  C   C452      1.0  0.91061  0.05679  0.86851  1.0000
  C   C453      1.0  0.95118  0.50440  0.67753  1.0000
  C   C454      1.0  0.91351  0.12025  0.86346  1.0000
  C   C455      1.0  0.71695  0.07264  0.71870  1.0000
  C   C456      1.0  0.95827  0.15741  0.66339  1.0000
  H   H458      1.0  0.93941  0.07322  0.66063  1.0000
  C   C457      1.0  0.93867  0.10264  0.87249  1.0000
  C   C458      1.0  0.94009  0.08850  0.80512  1.0000
  H   H459      1.0  0.89871  0.11311  0.65466  1.0000
  Fe  Fe70      1.0  0.99092  0.24255  0.85748  1.0000
  H   H460      1.0  0.85813  0.05813  0.92693  1.0000
  C   C459      1.0  0.75743  0.07821  0.68659  1.0000
  C   C460      1.0  0.84422  0.04740  0.97828  1.0000
  H   H461      1.0  0.93050  0.13669  0.79984  1.0000
  S   S150      1.0  0.94885  0.51274  0.74922  1.0000
  C   C461      1.0  0.98575  0.34626  0.82624  1.0000
  C   C462      1.0  0.88670  0.10606  0.85758  1.0000
  H   H462      1.0  0.86712  0.11955  0.85066  1.0000
  H   H463      1.0  0.80146  0.06165  0.70030  1.0000
  H   H464      1.0  0.95933  0.11326  0.87733  1.0000
  C   C463      1.0  0.77772  0.06533  0.70544  1.0000
  C   C464      1.0  0.92166  0.11935  0.65862  1.0000
  H   H465      1.0  0.93455  0.52020  0.68811  1.0000
  C   C465      1.0  0.98088  0.13433  0.66664  1.0000
  H   H466      1.0  0.78290  0.04597  0.74514  1.0000
  H   H467      1.0  0.94752  0.19811  0.95647  1.0000
  H   H468      1.0  0.83442  0.06922  0.97181  1.0000
  H   H469      1.0  0.98469  0.14811  0.79792  1.0000
  C   C466      1.0  0.97830  0.12495  0.80064  1.0000
  S   S151      1.0  0.97455  0.21133  0.82510  1.0000
  H   H470      1.0  0.91087  0.16745  0.65609  1.0000
  C   C467      1.0  0.95381  0.03434  0.81241  1.0000
  H   H471      1.0  0.95866  0.48637  0.69208  1.0000
  H   H472      1.0  0.64113  0.04008  0.67797  1.0000
  C   C468      1.0  0.92852  0.14980  0.65918  1.0000
  H   H473      1.0  0.91638  0.08380  0.80616  1.0000
  H   H474      1.0  0.71083  0.09141  0.67852  1.0000
  S   S152      1.0  0.98285  0.29385  0.85573  1.0000
  N   N42       1.0  0.96200  0.06573  0.80840  1.0000
  C   C469      1.0  0.96687  0.15339  0.94729  1.0000
  H   H475      1.0  0.98845  0.10861  0.94449  1.0000
  H   H476      1.0  0.76515  0.08438  0.66652  1.0000
  H   H477      1.0  0.93978  0.49324  0.66041  1.0000
  H   H478      1.0  0.50089  0.11785  0.94161  1.0000
  H   H479      1.0  0.74319  0.04758  0.77863  1.0000
  H   H480      1.0  0.98949  0.38829  0.80440  1.0000
  H   H481      1.0  0.96501  0.52869  0.96484  1.0000
  H   H482      1.0  0.50021  0.08775  0.80735  1.0000
  Fe  Fe71      1.0  0.54598  0.03571  0.74161  1.0000
  Fe  Fe72      1.0  0.99476  0.48775  0.75387  1.0000
  C   C470      1.0  0.99461  0.31521  0.82769  1.0000
  H   H483      1.0  0.53558  0.03419  0.87252  1.0000
  C   C471      1.0  0.85380  0.03393  0.93050  1.0000
  Fe  Fe73      1.0  0.53164  0.00025  0.26930  1.0000
  H   H484      1.0  0.73097  0.70084  0.10562  1.0000
  C   C472      1.0  0.85677  0.01234  0.01445  1.0000
  Fe  Fe74      1.0  0.53274  0.99242  0.20716  1.0000
  C   C473      1.0  0.81797  0.85888  0.21979  1.0000
  S   S153      1.0  0.52128  0.96077  0.17305  1.0000
  H   H485      1.0  0.83662  0.89734  0.20028  1.0000
  C   C474      1.0  0.55986  0.68969  0.00973  1.0000
  C   C475      1.0  0.50894  0.82295  0.07629  1.0000
  S   S154      1.0  0.56560  0.97882  0.23990  1.0000
  H   H486      1.0  0.70824  0.97812  0.09828  1.0000
  Fe  Fe75      1.0  0.53808  0.97945  0.02481  1.0000
  H   H487      1.0  0.87582  0.89183  0.29727  1.0000
  S   S155      1.0  0.57219  0.99070  0.05672  1.0000
  H   H488      1.0  0.74385  0.96582  0.06052  1.0000
  C   C476      1.0  0.62934  0.70108  0.30096  1.0000
  C   C477      1.0  0.86830  0.86896  0.29802  1.0000
  H   H489      1.0  0.77936  0.93000  0.28568  1.0000
  C   C478      1.0  0.94988  0.55958  0.02254  1.0000
  H   H490      1.0  0.96416  0.53906  0.02291  1.0000
  S   S156      1.0  0.77593  0.97829  0.11633  1.0000
  H   H491      1.0  0.59145  0.77397  0.02572  1.0000
  H   H492      1.0  0.67109  0.98019  0.00372  1.0000
  S   S157      1.0  0.84038  0.00543  0.09862  1.0000
  Fe  Fe76      1.0  0.79874  0.99130  0.07749  1.0000
  S   S158      1.0  0.80514  0.95899  0.04179  1.0000
  Fe  Fe77      1.0  0.81563  0.99749  0.13730  1.0000
  S   S159      1.0  0.84465  0.97833  0.17098  1.0000
  Fe  Fe78      1.0  0.54530  0.69656  0.13865  1.0000
  C   C479      1.0  0.94338  0.61423  0.02386  1.0000
  Fe  Fe79      1.0  0.85375  0.74745  0.24738  1.0000
  S   S160      1.0  0.80612  0.73317  0.24213  1.0000
  S   S161      1.0  0.86484  0.79711  0.24588  1.0000
  Fe  Fe80      1.0  0.87947  0.68209  0.25459  1.0000
  S   S162      1.0  0.83393  0.66320  0.25093  1.0000
  S   S163      1.0  0.92319  0.65476  0.26335  1.0000
  Fe  Fe81      1.0  0.82675  0.69539  0.21601  1.0000
  S   S164      1.0  0.80492  0.67302  0.17999  1.0000
  Fe  Fe82      1.0  0.81732  0.70239  0.27715  1.0000
  S   S165      1.0  0.87368  0.71209  0.21796  1.0000
  S   S166      1.0  0.86375  0.71880  0.28399  1.0000
  H   H493      1.0  0.54607  0.59645  0.20554  1.0000
  H   H494      1.0  0.52074  0.03279  0.06745  1.0000
  C   C480      1.0  0.64217  0.69980  0.27504  1.0000
  Fe  Fe83      1.0  0.80581  0.68367  0.02351  1.0000
  S   S167      1.0  0.80980  0.71742  0.05795  1.0000
  S   S168      1.0  0.78811  0.63749  0.02797  1.0000
  C   C481      1.0  0.80688  0.70565  0.09197  1.0000
  C   C482      1.0  0.81556  0.72492  0.11302  1.0000
  C   C483      1.0  0.81479  0.71547  0.14025  1.0000
  C   C484      1.0  0.80481  0.68686  0.14652  1.0000
  C   C485      1.0  0.79521  0.66803  0.12553  1.0000
  C   C486      1.0  0.79651  0.67725  0.09835  1.0000
  H   H495      1.0  0.82343  0.74703  0.10821  1.0000
  H   H496      1.0  0.82206  0.73019  0.15633  1.0000
  H   H497      1.0  0.78732  0.64593  0.13033  1.0000
  H   H498      1.0  0.78950  0.66232  0.08241  1.0000
  S   S169      1.0  0.51757  0.01676  0.99916  1.0000
  H   H499      1.0  0.79876  0.82499  0.24473  1.0000
  C   C487      1.0  0.69991  0.97830  0.07758  1.0000
  H   H500      1.0  0.87569  0.96863  0.00149  1.0000
  C   C488      1.0  0.52784  0.61372  0.20359  1.0000
  C   C489      1.0  0.52531  0.62103  0.99769  1.0000
  C   C490      1.0  0.90590  0.56504  0.25908  1.0000
  C   C491      1.0  0.90189  0.59693  0.25949  1.0000
  C   C492      1.0  0.92696  0.61468  0.26154  1.0000
  C   C493      1.0  0.95596  0.60030  0.26291  1.0000
  H   H501      1.0  0.71439  0.68746  0.02074  1.0000
  H   H502      1.0  0.77300  0.01204  0.01823  1.0000
  H   H503      1.0  0.87943  0.60769  0.25842  1.0000
  C   C494      1.0  0.67353  0.69638  0.27219  1.0000
  C   C495      1.0  0.68604  0.03294  0.15325  1.0000
  C   C496      1.0  0.58688  0.76348  0.98312  1.0000
  C   C497      1.0  0.87170  0.84976  0.27507  1.0000
  C   C498      1.0  0.86228  0.81987  0.27573  1.0000
  S   S170      1.0  0.63277  0.02929  0.23318  1.0000
  C   C499      1.0  0.51146  0.87163  0.05316  1.0000
  H   H504      1.0  0.88155  0.85814  0.25665  1.0000
  H   H505      1.0  0.87029  0.64843  0.30198  1.0000
  Fe  Fe84      1.0  0.50046  0.93200  0.00033  1.0000
  C   C500      1.0  0.79735  0.96992  0.00802  1.0000
  C   C501      1.0  0.78117  0.99714  0.00198  1.0000
  H   H506      1.0  0.64625  0.66880  0.07845  1.0000
  H   H507      1.0  0.55198  0.80570  0.19331  1.0000
  C   C502      1.0  0.80672  0.99519  0.25619  1.0000
  C   C503      1.0  0.83791  0.99232  0.25191  1.0000
  C   C504      1.0  0.84943  0.98728  0.22561  1.0000
  C   C505      1.0  0.82980  0.98582  0.20347  1.0000
  C   C506      1.0  0.79860  0.98931  0.20762  1.0000
  H   H508      1.0  0.78335  0.98784  0.19058  1.0000
  H   H509      1.0  0.85322  0.99409  0.26881  1.0000
  H   H510      1.0  0.87359  0.98461  0.22244  1.0000
  C   C507      1.0  0.72569  0.69554  0.06238  1.0000
  H   H511      1.0  0.60495  0.70361  0.30341  1.0000
  H   H512      1.0  0.72291  0.01148  0.17566  1.0000
  H   H513      1.0  0.60308  0.74413  0.98348  1.0000
  H   H514      1.0  0.53128  0.72389  0.19538  1.0000
  S   S171      1.0  0.71597  0.63892  0.98316  1.0000
  H   H515      1.0  0.84188  0.78651  0.30033  1.0000
  H   H516      1.0  0.82024  0.92964  0.99126  1.0000
  C   C508      1.0  0.67940  0.97952  0.02443  1.0000
  H   H517      1.0  0.68597  0.03038  0.27108  1.0000
  H   H518      1.0  0.98245  0.55786  0.26298  1.0000
  N   N43       1.0  0.50107  0.85393  0.16246  1.0000
  C   C509      1.0  0.53765  0.96786  0.14127  1.0000
  C   C510      1.0  0.55729  0.99126  0.13786  1.0000
  C   C511      1.0  0.56818  0.99798  0.11193  1.0000
  C   C512      1.0  0.55984  0.98099  0.08933  1.0000
  C   C513      1.0  0.54123  0.95680  0.09290  1.0000
  C   C514      1.0  0.52995  0.95039  0.11874  1.0000
  H   H519      1.0  0.56420  0.00421  0.15510  1.0000
  C   C515      1.0  0.84950  0.80933  0.29962  1.0000
  C   C516      1.0  0.53245  0.71806  0.23884  1.0000
  C   C517      1.0  0.54066  0.82702  0.18727  1.0000
  S   S172      1.0  0.49698  0.71885  0.07487  1.0000
  H   H520      1.0  0.52545  0.72169  0.02502  1.0000
  H   H521      1.0  0.50733  0.80563  0.16344  1.0000
  S   S173      1.0  0.52896  0.66188  0.10957  1.0000
  H   H522      1.0  0.89556  0.02531  0.14215  1.0000
  H   H523      1.0  0.63599  0.99188  0.04212  1.0000
  N   N44       1.0  0.86581  0.64488  0.09937  1.0000
  C   C518      1.0  0.87626  0.67202  0.09136  1.0000
  C   C519      1.0  0.86557  0.63731  0.12628  1.0000
  C   C520      1.0  0.88633  0.69262  0.11060  1.0000
  C   C521      1.0  0.87544  0.65739  0.14605  1.0000
  C   C522      1.0  0.88581  0.68524  0.13811  1.0000
  C   C523      1.0  0.85541  0.62337  0.07908  1.0000
  H   H524      1.0  0.87598  0.67832  0.07008  1.0000
  H   H525      1.0  0.85685  0.61604  0.13271  1.0000
  H   H526      1.0  0.89361  0.71453  0.10424  1.0000
  H   H527      1.0  0.87396  0.65189  0.16747  1.0000
  H   H528      1.0  0.89266  0.70136  0.15334  1.0000
  H   H529      1.0  0.87314  0.60503  0.07530  1.0000
  H   H530      1.0  0.83442  0.61314  0.08602  1.0000
  H   H531      1.0  0.85004  0.63462  0.05943  1.0000
  C   C524      1.0  0.55868  0.80431  0.00616  1.0000
  H   H532      1.0  0.71608  0.69165  0.29315  1.0000
  H   H533      1.0  0.85667  0.00642  0.03582  1.0000
  H   H534      1.0  0.74800  0.70292  0.05758  1.0000
  H   H535      1.0  0.53805  0.61474  0.01580  1.0000
  S   S174      1.0  0.84821  0.66699  0.00222  1.0000
  S   S175      1.0  0.54647  0.94774  0.98935  1.0000
  C   C525      1.0  0.96257  0.58788  0.02364  1.0000
  C   C526      1.0  0.65879  0.66772  0.02548  1.0000
  C   C527      1.0  0.91191  0.61237  0.02191  1.0000
  H   H536      1.0  0.89760  0.63287  0.02187  1.0000
  H   H537      1.0  0.66299  0.64292  0.02209  1.0000
  N   N45       1.0  0.67820  0.67778  0.04744  1.0000
  H   H538      1.0  0.82327  0.84327  0.20311  1.0000
  C   C528      1.0  0.78708  0.99353  0.23403  1.0000
  H   H539      1.0  0.95294  0.63623  0.02499  1.0000
  H   H540      1.0  0.55333  0.81742  0.02446  1.0000
  H   H541      1.0  0.59228  0.65256  0.22463  1.0000
  C   C529      1.0  0.51152  0.88098  0.17089  1.0000
  C   C530      1.0  0.95998  0.56846  0.26209  1.0000
  H   H542      1.0  0.57622  0.66463  0.27214  1.0000
  H   H543      1.0  0.67958  0.68370  0.11604  1.0000
  H   H544      1.0  0.51819  0.89479  0.05311  1.0000
  H   H545      1.0  0.78920  0.86000  0.28367  1.0000
  C   C531      1.0  0.56650  0.67764  0.25547  1.0000
  C   C532      1.0  0.69167  0.69440  0.29543  1.0000
  C   C533      1.0  0.68239  0.01697  0.20029  1.0000
  S   S176      1.0  0.57088  0.67570  0.04165  1.0000
  S   S177      1.0  0.78326  0.69502  0.31035  1.0000
  C   C534      1.0  0.93494  0.55065  0.26033  1.0000
  C   C535      1.0  0.72021  0.97149  0.05632  1.0000
  S   S178      1.0  0.51366  0.97651  0.30638  1.0000
  C   C536      1.0  0.86757  0.99112  0.99514  1.0000
  C   C537      1.0  0.50383  0.64533  0.99862  1.0000
  C   C538      1.0  0.56261  0.68728  0.20681  1.0000
  H   H546      1.0  0.62846  0.97938  0.09262  1.0000
  C   C539      1.0  0.80779  0.95078  0.98671  1.0000
  C   C540      1.0  0.80209  0.91821  0.28716  1.0000
  C   C541      1.0  0.51530  0.82713  0.17040  1.0000
  H   H547      1.0  0.82655  0.93150  0.23950  1.0000
  H   H548      1.0  0.59298  0.66101  0.98821  1.0000
  C   C542      1.0  0.71605  0.69441  0.08932  1.0000
  H   H549      1.0  0.69306  0.00723  0.21819  1.0000
  C   C543      1.0  0.54505  0.70142  0.26060  1.0000
  C   C544      1.0  0.89927  0.58411  0.01999  1.0000
  C   C545      1.0  0.54102  0.71088  0.21200  1.0000
  C   C546      1.0  0.91838  0.55772  0.02086  1.0000
  H   H550      1.0  0.66355  0.67941  0.00614  1.0000
  C   C547      1.0  0.70647  0.68690  0.04159  1.0000
  H   H551      1.0  0.50033  0.90220  0.16450  1.0000
  S   S179      1.0  0.79180  0.00032  0.28905  1.0000
  C   C548      1.0  0.57428  0.67771  0.98640  1.0000
  C   C549      1.0  0.82582  0.88900  0.21836  1.0000
  C   C550      1.0  0.80406  0.84863  0.24317  1.0000
  Fe  Fe85      1.0  0.75674  0.02656  0.11685  1.0000
  N   N46       1.0  0.80747  0.89774  0.26389  1.0000
  H   H552      1.0  0.65906  0.98755  0.11484  1.0000
  C   C551      1.0  0.82019  0.90826  0.24069  1.0000
  C   C552      1.0  0.57555  0.67086  0.22860  1.0000
  C   C553      1.0  0.55137  0.85454  0.19607  1.0000
  C   C554      1.0  0.51663  0.62944  0.22648  1.0000
  S   S180      1.0  0.57361  0.67763  0.17337  1.0000
  C   C555      1.0  0.79894  0.86848  0.26519  1.0000
  H   H553      1.0  0.80401  0.90570  0.30667  1.0000
  Fe  Fe86      1.0  0.58170  0.02586  0.23467  1.0000
  H   H554      1.0  0.90881  0.53573  0.01976  1.0000
  S   S181      1.0  0.56291  0.72574  0.10575  1.0000
  H   H555      1.0  0.76290  0.99503  0.23727  1.0000
  C   C556      1.0  0.68728  0.68480  0.09514  1.0000
  H   H556      1.0  0.72548  0.96691  0.01296  1.0000
  C   C557      1.0  0.66855  0.67643  0.07381  1.0000
  Fe  Fe87      1.0  0.54239  0.69352  0.07683  1.0000
  S   S182      1.0  0.53361  0.71155  0.29380  1.0000
  H   H557      1.0  0.81912  0.93570  0.28787  1.0000
  C   C558      1.0  0.65967  0.98610  0.04620  1.0000
  C   C559      1.0  0.53608  0.71163  0.00720  1.0000
  S   S183      1.0  0.78109  0.69411  0.98451  1.0000
  H   H558      1.0  0.54490  0.90332  0.19447  1.0000
  H   H559      1.0  0.52614  0.62457  0.24637  1.0000
  H   H560      1.0  0.88639  0.55145  0.25770  1.0000
  C   C560      1.0  0.70986  0.97211  0.02959  1.0000
  S   S184      1.0  0.49691  0.00892  0.23668  1.0000
  Fe  Fe88      1.0  0.82937  0.62129  0.00418  1.0000
  H   H561      1.0  0.53591  0.94264  0.07581  1.0000
  N   N47       1.0  0.67004  0.98527  0.07236  1.0000
  S   S185      1.0  0.85993  0.58073  0.01615  1.0000
  H   H562      1.0  0.62781  0.70137  0.25721  1.0000
  H   H563      1.0  0.63451  0.67256  0.03034  1.0000
  C   C561      1.0  0.65195  0.02779  0.20152  1.0000
  H   H564      1.0  0.52805  0.86258  0.09361  1.0000
  Fe  Fe89      1.0  0.76605  0.64642  0.98729  1.0000
  H   H565      1.0  0.97545  0.61389  0.26451  1.0000
  H   H566      1.0  0.51599  0.73661  0.24279  1.0000
  C   C562      1.0  0.58024  0.78009  0.00681  1.0000
  C   C563      1.0  0.64889  0.99268  0.09465  1.0000
  H   H567      1.0  0.64207  0.01727  0.09430  1.0000
  S   S186      1.0  0.51560  0.80108  0.10592  1.0000
  S   S187      1.0  0.50074  0.72296  0.14160  1.0000
  C   C564      1.0  0.52569  0.72040  0.98141  1.0000
  H   H568      1.0  0.58278  0.01659  0.10941  1.0000
  Fe  Fe90      1.0  0.51677  0.74956  0.10586  1.0000
  C   C565      1.0  0.51708  0.85327  0.07607  1.0000
  C   C566      1.0  0.51599  0.62085  0.17806  1.0000
  H   H569      1.0  0.52483  0.60915  0.16003  1.0000
  C   C567      1.0  0.53675  0.88173  0.18785  1.0000
  H   H570      1.0  0.68377  0.69519  0.25215  1.0000
  H   H571      1.0  0.57100  0.85487  0.20916  1.0000
  C   C568      1.0  0.69939  0.01944  0.17623  1.0000
  H   H572      1.0  0.51516  0.93193  0.12117  1.0000
  H   H573      1.0  0.52627  0.82958  0.98168  1.0000
  H   H574      1.0  0.49976  0.65781  0.01748  1.0000
  C   C569      1.0  0.54350  0.81115  0.98189  1.0000
  C   C570      1.0  0.49733  0.85992  0.03032  1.0000
  C   C571      1.0  0.90498  0.01052  0.43351  1.0000
  N   N48       1.0  0.83369  0.83237  0.42627  1.0000
  H   H575      1.0  0.50666  0.69005  0.52210  1.0000
  C   C572      1.0  0.69565  0.98876  0.51781  1.0000
  Fe  Fe91      1.0  0.83584  0.98941  0.63892  1.0000
  Fe  Fe92      1.0  0.82760  0.98739  0.38529  1.0000
  S   S188      1.0  0.80509  0.00803  0.42290  1.0000
  Fe  Fe93      1.0  0.85255  0.93282  0.35138  1.0000
  S   S189      1.0  0.85149  0.88129  0.35160  1.0000
  H   H576      1.0  0.90448  0.98260  0.49777  1.0000
  S   S190      1.0  0.80677  0.95702  0.35476  1.0000
  S   S191      1.0  0.64146  0.64375  0.37402  1.0000
  H   H577      1.0  0.90202  0.55301  0.48041  1.0000
  H   H578      1.0  0.78237  0.65656  0.62414  1.0000
  Fe  Fe94      1.0  0.76385  0.67460  0.48382  1.0000
  S   S192      1.0  0.78048  0.72137  0.49026  1.0000
  S   S193      1.0  0.71287  0.67113  0.48224  1.0000
  Fe  Fe95      1.0  0.81437  0.70744  0.45819  1.0000
  S   S194      1.0  0.82828  0.73858  0.42500  1.0000
  S   S195      1.0  0.79607  0.66196  0.44981  1.0000
  C   C573      1.0  0.79412  0.70927  0.34204  1.0000
  C   C574      1.0  0.81708  0.72961  0.34400  1.0000
  C   C575      1.0  0.82724  0.73890  0.36951  1.0000
  C   C576      1.0  0.81396  0.72842  0.39320  1.0000
  C   C577      1.0  0.78996  0.70929  0.39124  1.0000
  C   C578      1.0  0.78032  0.69940  0.36574  1.0000
  C   C579      1.0  0.64815  0.69895  0.32373  1.0000
  H   H579      1.0  0.84563  0.75393  0.37076  1.0000
  H   H580      1.0  0.77859  0.70228  0.40933  1.0000
  H   H581      1.0  0.76252  0.68370  0.36448  1.0000
  C   C580      1.0  0.96008  0.60044  0.48183  1.0000
  C   C581      1.0  0.94319  0.62802  0.47856  1.0000
  C   C582      1.0  0.91152  0.62867  0.47658  1.0000
  H   H582      1.0  0.95462  0.64904  0.47824  1.0000
  H   H583      1.0  0.89888  0.65009  0.47453  1.0000
  C   C583      1.0  0.69425  0.66745  0.45073  1.0000
  C   C584      1.0  0.70886  0.65311  0.42855  1.0000
  C   C585      1.0  0.69245  0.64646  0.40503  1.0000
  C   C586      1.0  0.66140  0.65439  0.40333  1.0000
  C   C587      1.0  0.64695  0.66970  0.42511  1.0000
  C   C588      1.0  0.66331  0.67605  0.44878  1.0000
  H   H584      1.0  0.73255  0.64603  0.42991  1.0000
  H   H585      1.0  0.70377  0.63445  0.38834  1.0000
  H   H586      1.0  0.62305  0.67597  0.42401  1.0000
  H   H587      1.0  0.65181  0.68709  0.46588  1.0000
  C   C589      1.0  0.71761  0.98463  0.57041  1.0000
  S   S196      1.0  0.50565  0.67134  0.35660  1.0000
  H   H588      1.0  0.54630  0.84722  0.63858  1.0000
  H   H589      1.0  0.83635  0.81991  0.34087  1.0000
  C   C590      1.0  0.84635  0.82840  0.32261  1.0000
  C   C591      1.0  0.81193  0.99305  0.45549  1.0000
  C   C592      1.0  0.82914  0.96591  0.45930  1.0000
  C   C593      1.0  0.72660  0.98330  0.52204  1.0000
  H   H590      1.0  0.83858  0.95361  0.44192  1.0000
  C   C594      1.0  0.52065  0.98615  0.34072  1.0000
  C   C595      1.0  0.53825  0.01030  0.34775  1.0000
  H   H591      1.0  0.71778  0.70800  0.34258  1.0000
  C   C596      1.0  0.53033  0.00040  0.39608  1.0000
  H   H592      1.0  0.67593  0.98386  0.60795  1.0000
  H   H593      1.0  0.82379  0.64369  0.32963  1.0000
  H   H594      1.0  0.50272  0.96309  0.40481  1.0000
  C   C597      1.0  0.84638  0.65180  0.36768  1.0000
  H   H595      1.0  0.81962  0.82481  0.49342  1.0000
  H   H596      1.0  0.85786  0.64702  0.41993  1.0000
  Fe  Fe96      1.0  0.53842  0.97896  0.52830  1.0000
  Fe  Fe97      1.0  0.49932  0.93358  0.50188  1.0000
  S   S197      1.0  0.57428  0.98769  0.55958  1.0000
  C   C598      1.0  0.81748  0.88054  0.44602  1.0000
  H   H597      1.0  0.91926  0.66741  0.37451  1.0000
  C   C599      1.0  0.52091  0.69298  0.50464  1.0000
  S   S198      1.0  0.54582  0.94856  0.49186  1.0000
  C   C600      1.0  0.82169  0.83578  0.47388  1.0000
  S   S199      1.0  0.79669  0.97478  0.61418  1.0000
  H   H598      1.0  0.68567  0.61220  0.48689  1.0000
  C   C601      1.0  0.84500  0.64819  0.33945  1.0000
  S   S200      1.0  0.86514  0.99732  0.60273  1.0000
  Fe  Fe98      1.0  0.82424  0.98759  0.57798  1.0000
  S   S201      1.0  0.82922  0.95647  0.54120  1.0000
  Fe  Fe99      1.0  0.59094  0.65367  0.36942  1.0000
  Fe  Fe100     1.0  0.82818  0.64540  0.48234  1.0000
  S   S202      1.0  0.84897  0.68988  0.48803  1.0000
  S   S203      1.0  0.85666  0.60158  0.47718  1.0000
  Fe  Fe101     1.0  0.81324  0.69919  0.51982  1.0000
  S   S204      1.0  0.83004  0.72207  0.55782  1.0000
  S   S205      1.0  0.79419  0.65327  0.51615  1.0000
  C   C602      1.0  0.82274  0.70814  0.59063  1.0000
  C   C603      1.0  0.80332  0.68469  0.59466  1.0000
  C   C604      1.0  0.79776  0.67442  0.62110  1.0000
  Fe  Fe102     1.0  0.53395  0.68550  0.39140  1.0000
  H   H599      1.0  0.72649  0.98339  0.59091  1.0000
  C   C605      1.0  0.83684  0.72091  0.61317  1.0000
  H   H600      1.0  0.79215  0.67485  0.57751  1.0000
  H   H601      1.0  0.51009  0.86654  0.64531  1.0000
  H   H602      1.0  0.53471  0.75372  0.49276  1.0000
  H   H603      1.0  0.85193  0.73902  0.61018  1.0000
  C   C606      1.0  0.89648  0.60169  0.47760  1.0000
  C   C607      1.0  0.91344  0.57403  0.47982  1.0000
  C   C608      1.0  0.94509  0.57340  0.48200  1.0000
  H   H604      1.0  0.64448  0.98478  0.58502  1.0000
  H   H605      1.0  0.66280  0.01935  0.59316  1.0000
  C   C609      1.0  0.80019  0.00918  0.47817  1.0000
  C   C610      1.0  0.80580  0.99843  0.50456  1.0000
  C   C611      1.0  0.82263  0.97109  0.50841  1.0000
  C   C612      1.0  0.83411  0.95475  0.48571  1.0000
  H   H606      1.0  0.76178  0.97712  0.55202  1.0000
  H   H607      1.0  0.84731  0.93367  0.48862  1.0000
  H   H608      1.0  0.52232  0.78796  0.45450  1.0000
  S   S206      1.0  0.55577  0.72469  0.60732  1.0000
  C   C613      1.0  0.93799  0.63474  0.54431  1.0000
  C   C614      1.0  0.58081  0.98640  0.61485  1.0000
  C   C615      1.0  0.56605  0.97461  0.59232  1.0000
  C   C616      1.0  0.54462  0.95299  0.59626  1.0000
  C   C617      1.0  0.53709  0.94407  0.62260  1.0000
  H   H609      1.0  0.81203  0.90465  0.44370  1.0000
  H   H610      1.0  0.51996  0.92787  0.62543  1.0000
  C   C618      1.0  0.86360  0.59864  0.54741  1.0000
  C   C619      1.0  0.66213  0.61205  0.48089  1.0000
  C   C620      1.0  0.55745  0.69819  0.45865  1.0000
  H   H611      1.0  0.85391  0.65785  0.55700  1.0000
  H   H612      1.0  0.66579  0.62550  0.53386  1.0000
  C   C621      1.0  0.62501  0.60197  0.44670  1.0000
  C   C622      1.0  0.64840  0.63964  0.52281  1.0000
  C   C623      1.0  0.82670  0.86278  0.42352  1.0000
  N   N49       1.0  0.63998  0.62476  0.49744  1.0000
  C   C624      1.0  0.81522  0.86696  0.47140  1.0000
  H   H613      1.0  0.92312  0.58965  0.53933  1.0000
  H   H614      1.0  0.51435  0.89595  0.55471  1.0000
  H   H615      1.0  0.80830  0.88055  0.48904  1.0000
  Fe  Fe103     1.0  0.51023  0.74964  0.60522  1.0000
  Fe  Fe104     1.0  0.53796  0.69566  0.57420  1.0000
  Fe  Fe105     1.0  0.52962  0.62587  0.36138  1.0000
  H   H616      1.0  0.53345  0.84262  0.45820  1.0000
  C   C625      1.0  0.50778  0.69941  0.47931  1.0000
  H   H617      1.0  0.62867  0.64391  0.53660  1.0000
  H   H618      1.0  0.67280  0.59164  0.44178  1.0000
  N   N50       1.0  0.55290  0.78802  0.51744  1.0000
  C   C626      1.0  0.50760  0.87281  0.55436  1.0000
  C   C627      1.0  0.56017  0.81768  0.51920  1.0000
  H   H619      1.0  0.86798  0.68571  0.41514  1.0000
  H   H620      1.0  0.65212  0.99652  0.53681  1.0000
  H   H621      1.0  0.52496  0.03287  0.57014  1.0000
  C   C628      1.0  0.55978  0.76739  0.54007  1.0000
  Fe  Fe106     1.0  0.78130  0.02406  0.61572  1.0000
  H   H622      1.0  0.57001  0.82635  0.53762  1.0000
  H   H623      1.0  0.55812  0.77958  0.55992  1.0000
  H   H624      1.0  0.55806  0.86148  0.49966  1.0000
  H   H625      1.0  0.59757  0.00297  0.61200  1.0000
  H   H626      1.0  0.85895  0.59120  0.56842  1.0000
  C   C629      1.0  0.87097  0.65114  0.32389  1.0000
  C   C630      1.0  0.52605  0.70200  0.45634  1.0000
  Fe  Fe107     1.0  0.82416  0.98788  0.32310  1.0000
  C   C631      1.0  0.57059  0.69275  0.48415  1.0000
  S   S207      1.0  0.51862  0.01777  0.50388  1.0000
  S   S208      1.0  0.55550  0.63912  0.39848  1.0000
  C   C632      1.0  0.60249  0.61440  0.46394  1.0000
  S   S209      1.0  0.86919  0.96226  0.31814  1.0000
  H   H627      1.0  0.82596  0.64998  0.37960  1.0000
  Fe  Fe108     1.0  0.54490  0.68277  0.33053  1.0000
  C   C633      1.0  0.87396  0.66167  0.40965  1.0000
  C   C634      1.0  0.89885  0.99710  0.48058  1.0000
  Fe  Fe109     1.0  0.53438  0.69318  0.63630  1.0000
  H   H628      1.0  0.85540  0.82759  0.38758  1.0000
  H   H629      1.0  0.65784  0.66186  0.51814  1.0000
  S   S210      1.0  0.57123  0.70141  0.36525  1.0000
  C   C635      1.0  0.53976  0.82701  0.47444  1.0000
  C   C636      1.0  0.66660  0.99463  0.58919  1.0000
  H   H630      1.0  0.89159  0.69691  0.55813  1.0000
  H   H631      1.0  0.74200  0.98087  0.50488  1.0000
  H   H632      1.0  0.82256  0.80551  0.39233  1.0000
  N   N51       1.0  0.88625  0.62157  0.54775  1.0000
  H   H633      1.0  0.61938  0.59428  0.42642  1.0000
  C   C637      1.0  0.89838  0.66163  0.36484  1.0000
  H   H634      1.0  0.97019  0.54884  0.42033  1.0000
  H   H635      1.0  0.54343  0.74928  0.54092  1.0000
  H   H636      1.0  0.96152  0.62803  0.54014  1.0000
  C   C638      1.0  0.53316  0.79654  0.47253  1.0000
  C   C639      1.0  0.55125  0.95646  0.64517  1.0000
  H   H637      1.0  0.85804  0.79430  0.40812  1.0000
  C   C640      1.0  0.50938  0.02811  0.62368  1.0000
  Fe  Fe110     1.0  0.52147  0.98594  0.46797  1.0000
  H   H638      1.0  0.78696  0.03026  0.47529  1.0000
  H   H639      1.0  0.58279  0.75641  0.53761  1.0000
  N   N52       1.0  0.87301  0.65780  0.38005  1.0000
  H   H640      1.0  0.52326  0.86336  0.59488  1.0000
  C   C641      1.0  0.54010  0.77724  0.49431  1.0000
  C   C642      1.0  0.91610  0.61311  0.54374  1.0000
  H   H641      1.0  0.57913  0.61610  0.45736  1.0000
  Fe  Fe111     1.0  0.88424  0.99312  0.35182  1.0000
  S   S211      1.0  0.84047  0.02089  0.35380  1.0000
  N   N53       1.0  0.68726  0.98976  0.56608  1.0000
  C   C643      1.0  0.51272  0.85416  0.57715  1.0000
  S   S212      1.0  0.87210  0.96088  0.38491  1.0000
  C   C644      1.0  0.54298  0.01740  0.37531  1.0000
  C   C645      1.0  0.50454  0.82384  0.57696  1.0000
  C   C646      1.0  0.67618  0.99206  0.54021  1.0000
  C   C647      1.0  0.55232  0.69012  0.50718  1.0000
  S   S213      1.0  0.56915  0.68378  0.53897  1.0000
  H   H642      1.0  0.83544  0.79442  0.45296  1.0000
  H   H643      1.0  0.82693  0.73840  0.32590  1.0000
  H   H644      1.0  0.87119  0.57866  0.53474  1.0000
  C   C648      1.0  0.87750  0.65118  0.55329  1.0000
  S   S214      1.0  0.50453  0.58246  0.36233  1.0000
  C   C649      1.0  0.57355  0.97719  0.64120  1.0000
  H   H645      1.0  0.89673  0.65517  0.41785  1.0000
  C   C650      1.0  0.65500  0.60041  0.45533  1.0000
  N   N54       1.0  0.67888  0.69592  0.32076  1.0000
  C   C651      1.0  0.92917  0.66509  0.54933  1.0000
  C   C652      1.0  0.84283  0.81409  0.40239  1.0000
  H   H646      1.0  0.82825  0.87350  0.40385  1.0000
  H   H647      1.0  0.59493  0.69102  0.48604  1.0000
  H   H648      1.0  0.68678  0.99063  0.49732  1.0000
  H   H649      1.0  0.79684  0.01119  0.52186  1.0000
  H   H650      1.0  0.59282  0.63543  0.50265  1.0000
  S   S215      1.0  0.56723  0.63595  0.33246  1.0000
  H   H651      1.0  0.57161  0.70046  0.44093  1.0000
  C   C653      1.0  0.83075  0.81870  0.45093  1.0000
  C   C654      1.0  0.61041  0.62555  0.48947  1.0000
  C   C655      1.0  0.89877  0.67339  0.55404  1.0000
  H   H652      1.0  0.94584  0.68216  0.54948  1.0000
  H   H653      1.0  0.95772  0.55200  0.48423  1.0000
  H   H654      1.0  0.91620  0.00640  0.41407  1.0000
  H   H655      1.0  0.84223  0.60790  0.53812  1.0000
  C   C656      1.0  0.69844  0.69318  0.34465  1.0000
  C   C657      1.0  0.89779  0.65816  0.33655  1.0000
  H   H656      1.0  0.63799  0.69962  0.34381  1.0000
  C   C658      1.0  0.55371  0.83760  0.49774  1.0000
  S   S216      1.0  0.52099  0.66160  0.60310  1.0000
  C   C659      1.0  0.73771  0.98119  0.54850  1.0000
  C   C660      1.0  0.87701  0.02090  0.48341  1.0000
  H   H657      1.0  0.53410  0.94279  0.57904  1.0000
  H   H658      1.0  0.70724  0.66926  0.34679  1.0000
  S   S217      1.0  0.50948  0.71094  0.42505  1.0000
  C   C661      1.0  0.51258  0.97636  0.38904  1.0000
  S   S218      1.0  0.92946  0.01469  0.35571  1.0000
  H   H659      1.0  0.68616  0.69988  0.36367  1.0000
  S   S219      1.0  0.51155  0.80122  0.60620  1.0000
  S   S220      1.0  0.53705  0.01041  0.43037  1.0000
  H   H660      1.0  0.54846  0.02332  0.33202  1.0000
  C   C662      1.0  0.91304  0.99187  0.45550  1.0000
  C   C663      1.0  0.83142  0.71049  0.63960  1.0000
  H   H661      1.0  0.82433  0.86502  0.63952  1.0000
  C   C664      1.0  0.85571  0.85829  0.32197  1.0000
  C   C665      1.0  0.50775  0.96934  0.36147  1.0000
  H   H662      1.0  0.86562  0.02493  0.50276  1.0000
  H   H663      1.0  0.91788  0.66110  0.32436  1.0000
  C   C666      1.0  0.81170  0.68730  0.64368  1.0000
  H   H664      1.0  0.93004  0.97342  0.45301  1.0000
  H   H665      1.0  0.97384  0.03365  0.60466  1.0000
  N   N55       1.0  0.88297  0.03333  0.43633  1.0000
  Fe  Fe112     1.0  0.56823  0.97962  0.77254  1.0000
  S   S221      1.0  0.56976  0.95114  0.81068  1.0000
  Fe  Fe113     1.0  0.54270  0.68762  0.89219  1.0000
  Fe  Fe114     1.0  0.55689  0.97673  0.71129  1.0000
  N   N56       1.0  0.92166  0.60775  0.81275  1.0000
  S   S222      1.0  0.53960  0.94689  0.67806  1.0000
  H   H666      1.0  0.52453  0.82483  0.93270  1.0000
  C   C667      1.0  0.80583  0.97914  0.70621  1.0000
  C   C668      1.0  0.68896  0.97899  0.83486  1.0000
  S   S223      1.0  0.59616  0.96166  0.73725  1.0000
  C   C669      1.0  0.52659  0.81692  0.68085  1.0000
  C   C670      1.0  0.53329  0.86200  0.65336  1.0000
  C   C671      1.0  0.92100  0.57688  0.81033  1.0000
  S   S224      1.0  0.53023  0.00825  0.92514  1.0000
  Fe  Fe115     1.0  0.81532  0.97988  0.82408  1.0000
  S   S225      1.0  0.86319  0.96008  0.82525  1.0000
  H   H667      1.0  0.87212  0.58206  0.95042  1.0000
  Fe  Fe116     1.0  0.80819  0.97804  0.88578  1.0000
  S   S226      1.0  0.77727  0.99582  0.91963  1.0000
  Fe  Fe117     1.0  0.84512  0.92778  0.85539  1.0000
  S   S227      1.0  0.85905  0.87745  0.85509  1.0000
  S   S228      1.0  0.51042  0.67479  0.85974  1.0000
  S   S229      1.0  0.79678  0.94569  0.85231  1.0000
  H   H668      1.0  0.81730  0.74842  0.90719  1.0000
  S   S230      1.0  0.85602  0.96468  0.67493  1.0000
  H   H669      1.0  0.60471  0.69637  0.79322  1.0000
  S   S231      1.0  0.64668  0.64212  0.86986  1.0000
  C   C672      1.0  0.70946  0.96682  0.79039  1.0000
  Fe  Fe118     1.0  0.84845  0.74228  0.74937  1.0000
  S   S232      1.0  0.80426  0.72010  0.74562  1.0000
  S   S233      1.0  0.84421  0.79385  0.75062  1.0000
  Fe  Fe119     1.0  0.88436  0.68073  0.74797  1.0000
  S   S234      1.0  0.84259  0.65481  0.74460  1.0000
  S   S235      1.0  0.93075  0.65663  0.75191  1.0000
  Fe  Fe120     1.0  0.82766  0.69019  0.71406  1.0000
  S   S236      1.0  0.80347  0.67410  0.67656  1.0000
  Fe  Fe121     1.0  0.82357  0.68718  0.77626  1.0000
  S   S237      1.0  0.79430  0.67157  0.81059  1.0000
  S   S238      1.0  0.87079  0.71450  0.71537  1.0000
  S   S239      1.0  0.86642  0.71119  0.78201  1.0000
  H   H670      1.0  0.84372  0.90902  0.72662  1.0000
  C   C673      1.0  0.91903  0.56602  0.95303  1.0000
  H   H671      1.0  0.82299  0.80351  0.91566  1.0000
  Fe  Fe122     1.0  0.82184  0.67211  0.96367  1.0000
  S   S240      1.0  0.84745  0.68929  0.92806  1.0000
  S   S241      1.0  0.80552  0.62498  0.96388  1.0000
  C   C674      1.0  0.81021  0.67249  0.84329  1.0000
  C   C675      1.0  0.83999  0.68045  0.84689  1.0000
  C   C676      1.0  0.85142  0.68475  0.87304  1.0000
  C   C677      1.0  0.83331  0.68057  0.89586  1.0000
  C   C678      1.0  0.80388  0.67130  0.89246  1.0000
  C   C679      1.0  0.79231  0.66735  0.86616  1.0000
  H   H672      1.0  0.85408  0.68405  0.82961  1.0000
  H   H673      1.0  0.87420  0.69191  0.87560  1.0000
  H   H674      1.0  0.78974  0.66804  0.91004  1.0000
  H   H675      1.0  0.76924  0.66105  0.86360  1.0000
  H   H676      1.0  0.51543  0.01734  0.66618  1.0000
  H   H677      1.0  0.89633  0.65021  0.81186  1.0000
  C   C680      1.0  0.86730  0.84316  0.70517  1.0000
  C   C681      1.0  0.56077  0.66120  0.72676  1.0000
  S   S242      1.0  0.91066  0.01682  0.86980  1.0000
  Fe  Fe123     1.0  0.59577  0.65096  0.86752  1.0000
  C   C682      1.0  0.91671  0.56680  0.74122  1.0000
  C   C683      1.0  0.91223  0.59862  0.74161  1.0000
  C   C684      1.0  0.93608  0.61675  0.74817  1.0000
  C   C685      1.0  0.96464  0.60274  0.75352  1.0000
  C   C686      1.0  0.96906  0.57092  0.75340  1.0000
  H   H678      1.0  0.89796  0.55299  0.73655  1.0000
  H   H679      1.0  0.89023  0.60901  0.73711  1.0000
  H   H680      1.0  0.54464  0.88380  0.65473  1.0000
  Fe  Fe124     1.0  0.54838  0.68218  0.83062  1.0000
  C   C687      1.0  0.69715  0.64089  0.95144  1.0000
  C   C688      1.0  0.71302  0.64197  0.92692  1.0000
  C   C689      1.0  0.69731  0.64241  0.90206  1.0000
  C   C690      1.0  0.66560  0.64238  0.90152  1.0000
  C   C691      1.0  0.64972  0.64194  0.92607  1.0000
  C   C692      1.0  0.66544  0.64088  0.95088  1.0000
  H   H681      1.0  0.73743  0.64179  0.92706  1.0000
  H   H682      1.0  0.70986  0.64250  0.88322  1.0000
  H   H683      1.0  0.62536  0.64169  0.92594  1.0000
  H   H684      1.0  0.81056  0.94394  0.94324  1.0000
  C   C693      1.0  0.85656  0.85509  0.82527  1.0000
  C   C694      1.0  0.84199  0.86639  0.80198  1.0000
  C   C695      1.0  0.83854  0.84734  0.77927  1.0000
  C   C696      1.0  0.84938  0.81680  0.77968  1.0000
  C   C697      1.0  0.86422  0.80557  0.80285  1.0000
  C   C698      1.0  0.86792  0.82471  0.82548  1.0000
  H   H685      1.0  0.83307  0.88971  0.80161  1.0000
  H   H686      1.0  0.82698  0.85620  0.76145  1.0000
  H   H687      1.0  0.87310  0.78225  0.80328  1.0000
  H   H688      1.0  0.87933  0.81584  0.84339  1.0000
  C   C699      1.0  0.77509  0.00483  0.97478  1.0000
  C   C700      1.0  0.78582  0.98581  0.95347  1.0000
  H   H689      1.0  0.76667  0.98798  0.73167  1.0000
  H   H690      1.0  0.86665  0.79680  0.69104  1.0000
  N   N57       1.0  0.85845  0.87283  0.70040  1.0000
  C   C701      1.0  0.80732  0.98449  0.75545  1.0000
  C   C702      1.0  0.83870  0.97946  0.75466  1.0000
  C   C703      1.0  0.85355  0.97371  0.72983  1.0000
  C   C704      1.0  0.83716  0.97355  0.70557  1.0000
  C   C705      1.0  0.67864  0.01552  0.69692  1.0000
  C   C706      1.0  0.89390  0.56334  0.80473  1.0000
  H   H691      1.0  0.85166  0.98043  0.77307  1.0000
  H   H692      1.0  0.87784  0.96966  0.72940  1.0000
  H   H693      1.0  0.69525  0.67886  0.84138  1.0000
  C   C707      1.0  0.63419  0.98012  0.84352  1.0000
  C   C708      1.0  0.56417  0.68679  0.96060  1.0000
  H   H694      1.0  0.71995  0.99233  0.71008  1.0000
  Fe  Fe125     1.0  0.86859  0.99157  0.86090  1.0000
  H   H695      1.0  0.79307  0.97868  0.68754  1.0000
  C   C709      1.0  0.64911  0.68228  0.80810  1.0000
  H   H696      1.0  0.69824  0.64042  0.82907  1.0000
  S   S243      1.0  0.85499  0.95738  0.89154  1.0000
  H   H697      1.0  0.51180  0.78665  0.93465  1.0000
  H   H698      1.0  0.58529  0.98615  0.65837  1.0000
  C   C710      1.0  0.55705  0.96689  0.84208  1.0000
  C   C711      1.0  0.54943  0.99791  0.84487  1.0000
  C   C712      1.0  0.54111  0.01011  0.87046  1.0000
  C   C713      1.0  0.54001  0.99141  0.89339  1.0000
  C   C714      1.0  0.54732  0.96033  0.89056  1.0000
  C   C715      1.0  0.80245  0.95889  0.95951  1.0000
  C   C716      1.0  0.84476  0.82821  0.66293  1.0000
  H   H699      1.0  0.52717  0.72263  0.69556  1.0000
  C   C717      1.0  0.72499  0.01064  0.66993  1.0000
  C   C718      1.0  0.71108  0.02768  0.64917  1.0000
  H   H700      1.0  0.94162  0.56256  0.81182  1.0000
  C   C719      1.0  0.71394  0.97468  0.81752  1.0000
  H   H701      1.0  0.63302  0.96517  0.79130  1.0000
  S   S244      1.0  0.82231  0.01401  0.85716  1.0000
  C   C720      1.0  0.53541  0.70806  0.71180  1.0000
  H   H702      1.0  0.64258  0.68591  0.82916  1.0000
  H   H703      1.0  0.52060  0.73909  0.74385  1.0000
  H   H704      1.0  0.87928  0.83677  0.72363  1.0000
  H   H705      1.0  0.89375  0.53895  0.80178  1.0000
  N   N58       1.0  0.80175  0.77508  0.84410  1.0000
  C   C721      1.0  0.80453  0.80539  0.84866  1.0000
  C   C722      1.0  0.80590  0.75488  0.86488  1.0000
  C   C723      1.0  0.81191  0.81610  0.87450  1.0000
  C   C724      1.0  0.81347  0.76472  0.89093  1.0000
  C   C725      1.0  0.81662  0.79556  0.89568  1.0000
  C   C726      1.0  0.79651  0.76392  0.81647  1.0000
  H   H706      1.0  0.80189  0.82143  0.83212  1.0000
  H   H707      1.0  0.80353  0.73098  0.86137  1.0000
  H   H708      1.0  0.81477  0.84010  0.87787  1.0000
  H   H709      1.0  0.78433  0.74255  0.81665  1.0000
  H   H710      1.0  0.78287  0.78085  0.80438  1.0000
  H   H711      1.0  0.81848  0.75933  0.80592  1.0000
  C   C727      1.0  0.62754  0.68824  0.78784  1.0000
  C   C728      1.0  0.66483  0.67254  0.75409  1.0000
  C   C729      1.0  0.63551  0.68335  0.76067  1.0000
  H   H712      1.0  0.52050  0.77827  0.70648  1.0000
  H   H713      1.0  0.67119  0.66848  0.73302  1.0000
  H   H714      1.0  0.61891  0.68777  0.74478  1.0000
  H   H715      1.0  0.54523  0.79412  0.91562  1.0000
  C   C730      1.0  0.52456  0.80226  0.70582  1.0000
  H   H716      1.0  0.57604  0.75749  0.94100  1.0000
  C   C731      1.0  0.86038  0.82040  0.68665  1.0000
  H   H717      1.0  0.91366  0.54236  0.95314  1.0000
  H   H718      1.0  0.65293  0.63966  0.96965  1.0000
  C   C732      1.0  0.51459  0.61445  0.95002  1.0000
  Fe  Fe126     1.0  0.53172  0.62795  0.86444  1.0000
  S   S245      1.0  0.55706  0.66858  0.67167  1.0000
  H   H719      1.0  0.64003  0.99081  0.86316  1.0000
  H   H720      1.0  0.88385  0.63643  0.95051  1.0000
  C   C733      1.0  0.89543  0.58836  0.95128  1.0000
  C   C734      1.0  0.79092  0.98427  0.73116  1.0000
  C   C735      1.0  0.95496  0.60383  0.95573  1.0000
  S   S246      1.0  0.57301  0.02335  0.70405  1.0000
  S   S247      1.0  0.52573  0.71852  0.92607  1.0000
  H   H721      1.0  0.87604  0.88700  0.73880  1.0000
  C   C736      1.0  0.84337  0.88076  0.67707  1.0000
  S   S248      1.0  0.52714  0.99005  0.74694  1.0000
  H   H722      1.0  0.74845  0.00289  0.66797  1.0000
  C   C737      1.0  0.65574  0.96793  0.79878  1.0000
  C   C738      1.0  0.86813  0.61294  0.80502  1.0000
  H   H723      1.0  0.96270  0.02576  0.83220  1.0000
  C   C739      1.0  0.57149  0.77116  0.95913  1.0000
  C   C740      1.0  0.53176  0.71731  0.73906  1.0000
  C   C741      1.0  0.55599  0.94816  0.86500  1.0000
  H   H724      1.0  0.83910  0.81068  0.64853  1.0000
  H   H725      1.0  0.55029  0.01255  0.82741  1.0000
  H   H726      1.0  0.84759  0.62730  0.80289  1.0000
  H   H727      1.0  0.93714  0.65045  0.95458  1.0000
  C   C742      1.0  0.68583  0.66676  0.77490  1.0000
  H   H728      1.0  0.98329  0.61657  0.75847  1.0000
  H   H729      1.0  0.54661  0.94575  0.90810  1.0000
  C   C743      1.0  0.55666  0.67022  0.75405  1.0000
  C   C744      1.0  0.66430  0.03138  0.67565  1.0000
  C   C745      1.0  0.68021  0.96333  0.78093  1.0000
  H   H730      1.0  0.70851  0.65807  0.76966  1.0000
  H   H731      1.0  0.56194  0.92415  0.86299  1.0000
  S   S249      1.0  0.53915  0.71204  0.79397  1.0000
  H   H732      1.0  0.83111  0.02929  0.92249  1.0000
  S   S250      1.0  0.57878  0.69950  0.86297  1.0000
  H   H733      1.0  0.95101  0.62751  0.84090  1.0000
  H   H734      1.0  0.87413  0.98165  0.95263  1.0000
  C   C746      1.0  0.94499  0.55279  0.74755  1.0000
  C   C747      1.0  0.89568  0.62574  0.81030  1.0000
  H   H735      1.0  0.72868  0.96351  0.77674  1.0000
  H   H736      1.0  0.72335  0.66807  0.81631  1.0000
  N   N59       1.0  0.53184  0.84714  0.67980  1.0000
  H   H737      1.0  0.83663  0.90435  0.67320  1.0000
  S   S251      1.0  0.56786  0.63412  0.83275  1.0000
  C   C748      1.0  0.83634  0.85862  0.65796  1.0000
  H   H738      1.0  0.57576  0.67785  0.94275  1.0000
  S   S252      1.0  0.56163  0.64021  0.89917  1.0000
  H   H739      1.0  0.56489  0.65553  0.77022  1.0000
  C   C749      1.0  0.93192  0.62675  0.95384  1.0000
  C   C750      1.0  0.55028  0.68013  0.70558  1.0000
  H   H740      1.0  0.84224  0.72057  0.65683  1.0000
  H   H741      1.0  0.61623  0.99502  0.83390  1.0000
  S   S253      1.0  0.78821  0.99213  0.78636  1.0000
  C   C751      1.0  0.86502  0.89648  0.72020  1.0000
  H   H742      1.0  0.88019  0.91278  0.71093  1.0000
  N   N60       1.0  0.94832  0.57393  0.95544  1.0000
  C   C752      1.0  0.69983  0.66451  0.82302  1.0000
  H   H743      1.0  0.96319  0.01952  0.79579  1.0000
  Fe  Fe127     1.0  0.61058  0.00921  0.73267  1.0000
  C   C753      1.0  0.54249  0.69852  0.76024  1.0000
  N   N61       1.0  0.67789  0.67191  0.80148  1.0000
  C   C754      1.0  0.53939  0.70757  0.95809  1.0000
  H   H744      1.0  0.73667  0.97739  0.82501  1.0000
  N   N62       1.0  0.66030  0.97587  0.82530  1.0000
  S   S254      1.0  0.66129  0.01296  0.72909  1.0000
  C   C755      1.0  0.70884  0.00474  0.69376  1.0000
  H   H745      1.0  0.69273  0.98489  0.85597  1.0000
  H   H746      1.0  0.57221  0.63950  0.72204  1.0000
  H   H747      1.0  0.67640  0.95744  0.75981  1.0000
  C   C756      1.0  0.90198  0.61889  0.95160  1.0000
  H   H748      1.0  0.97816  0.61009  0.95807  1.0000
  C   C757      1.0  0.53444  0.86365  0.70324  1.0000
  H   H749      1.0  0.87108  0.02022  0.91860  1.0000
  H   H750      1.0  0.95202  0.64278  0.80688  1.0000
  C   C758      1.0  0.95008  0.62175  0.81896  1.0000
  H   H751      1.0  0.52615  0.80759  0.74935  1.0000
  C   C759      1.0  0.86649  0.99860  0.96756  1.0000
  N   N63       1.0  0.85536  0.02663  0.95950  1.0000
  C   C760      1.0  0.50520  0.60870  0.65936  1.0000
  N   N64       1.0  0.54995  0.79458  0.95881  1.0000
  H   H752      1.0  0.54736  0.58643  0.97229  1.0000
  H   H753      1.0  0.76211  0.02565  0.97020  1.0000
  H   H754      1.0  0.62463  0.95786  0.84773  1.0000
  H   H755      1.0  0.52884  0.61313  0.65648  1.0000
  H   H756      1.0  0.96998  0.60646  0.81352  1.0000
  C   C761      1.0  0.52767  0.81876  0.72984  1.0000
  C   C762      1.0  0.53256  0.84970  0.72859  1.0000
  Fe  Fe128     1.0  0.52103  0.98346  0.96440  1.0000
  H   H757      1.0  0.53802  0.88776  0.70244  1.0000
  S   S255      1.0  0.58530  0.02630  0.76997  1.0000
  H   H758      1.0  0.53480  0.86286  0.74712  1.0000
  H   H759      1.0  0.99091  0.56053  0.75848  1.0000
  C   C763      1.0  0.53203  0.80044  0.93423  1.0000
  C   C764      1.0  0.86732  0.58155  0.80206  1.0000
  C   C765      1.0  0.53067  0.60534  0.97328  1.0000
  H   H760      1.0  0.84619  0.57143  0.79738  1.0000
  H   H761      1.0  0.52394  0.80395  0.66227  1.0000
  C   C766      1.0  0.97291  0.55034  0.95676  1.0000
  H   H762      1.0  0.92891  0.03235  0.81297  1.0000
  S   S256      1.0  0.50462  0.58618  0.86994  1.0000
  H   H763      1.0  0.51867  0.60198  0.93113  1.0000
  H   H764      1.0  0.71994  0.02352  0.75881  1.0000
  C   C767      1.0  0.50211  0.01406  0.64803  1.0000
  H   H765      1.0  0.98276  0.54585  0.93625  1.0000
  H   H766      1.0  0.99105  0.55737  0.97059  1.0000
  H   H767      1.0  0.51223  0.56018  0.65542  1.0000
  H   H768      1.0  0.50694  0.73704  0.97957  1.0000
  C   C768      1.0  0.49590  0.57903  0.65888  1.0000
