data_image0
_chemical_formula_structural       S2FeCSH3CSCFeCHFeS2FeS2FeSFeS3C6H3C2HC2HCH2NHC4HSC2H2C6H4C6H4SHC5H2CH4NC6H6NC2H3SHSHC2HC2H2SHNCFeCH2C2H2CH2C2SH2CH2CH3CH3CNH2CFeS2FeSHCFeSCSFeS2FeS2CFeSCSFeS2FeSFeSFeS4NFeS2FeCFeS3C6H4C6H2CHC6H4C6H7C4HFeHCH3CH3C3HCFeHC2NH5CH2NC6H8CHCH2CHC3HFeH4SH2CHCNCH2SCHCHCH2CHS2FeHSFeS2FeCFeCS2FeS2FeS2FeHC2S2CH4C2H2CH2CH3C3H5CNC2H2C6H4C6H6C3H2C3NC2HFeCNC3NSH4CHC3H2SH2SCHC3H3C4H3CH2C2HCSCHSH3CNSH4CH2CHC2HN2CHC3NHFeCSFeHSHCH2S2FeS2FeS2FeSFeS3CH2C3H4CSC2NCH2SHC4HC3HSC7H3C6H4SFeH5CHCHC3HC3H3NHCHFeSHC2H2CHNC6HCSC5H5CHC2HC2HCH5CNH4FeS2FeS2CFeSHSFeS2H3SFeSHSFeS2H2FeHFeS3FeCFeS2FeSFeHS2CFeCHCH4C4HC2H4C6H4C6H4C4HC2HCHC2HCH3CHNCH2NFeCSC5HNH3NC6H8CHC5SCSNHCHCH3C2SC2H4CH2C2SC3NCH2SCHS2FeS2FeS2FeHFeCS2FeS2FeHSH2C2S2C3HC2HC2H2C6NHSFeCH2CH2CHC7H4C6H5CHCHCH4CH3C2H2NC3FeHC2HC2HCHNHSHCHSH2CNHC3HNHC2SH6SHC2H2CHCHFeC2HCH3C4HCHCHSHFeHSFeHSFeCSCSHS3FeS2FeS2FeSFeS3C2HC3H3NCHC2HNSH2CHC2H2C2H2C9H2C6H4SCH2C2NC3H3CH2CSCH2CHC2HCFeHCHCH3CH5CHNCH2CHC2HNC6HFeH3C2H2NCH2CH2C3H4CHCH9Fe2SCSFeC2FeSHSFeS2FeSC2FeSCSFeS2FeHFeHFeS3HCFeS2FeSFeCS2C4H2CFeH2C6H3SC6H4C6H4CHCH2C2H2C3HCH9CNC2H2SC2H4CHCHSNCH2NHCH2CHCHSC2NC6H7CSCSFeSHSC2H2FeH2SH2CNC2S2FeCSFeHSCHC2S2FeHSFeCSFeHFeNS2CHCH3CHCH4C2H2C2HCHCSHNHC2HC6H4C6H5C2HSHC2H3C5H3CH2CSHCH3CSC5SCNCH3NHFeHNFeCHCHCHCH3C2HCNH2CNHCH3S3HSHCHC6H2CSH2SFeCHSCSFeS2FeS2FeSFeS3CHC4SH2C2HC2HCNHSHC3H2C3H2C7H3C6H7C2HCHCHSH2C3NCHC3FeNC3H2FeHNH3CSFeNCSC2HCH5C3H3C2H4CH8CH3FeS2H2NHFeSHSFeS2CH3FeSCSFeS2FeHFeCFeS3H2FeS2FeSFeS3C4HCH2FeC4SC2H2CHC6H4C6H8CSH2CHCHC4H3C4H2CH2NC6H8C2H2C4NHC2HCHCFeHCSH2NCSHS2HCHCHCSC3HSH3CNCH2C3HFe2NH2S2FeS2FeS2FeHFeHS2FeCSFeCSCH3S2CHSC2H5SC2H3CH4NHC2HC2HC7H4C6H4CHSC3HSHCHCSHCH4C2SC4HNH2CHC4FeH3FeCHC4HSH2C2H2NC2HC2H2CH2FeHSCH3C2HC2
_chemical_formula_sum              "S256 Fe128 C768 H768 N64"
_cell_length_a       47.3816
_cell_length_b       47.1746
_cell_length_c       48.0707
_cell_angle_alpha    89.8217
_cell_angle_beta     90.3434
_cell_angle_gamma    90.0783

_space_group_name_H-M_alt    "P 1"
_space_group_IT_number       1

loop_
  _space_group_symop_operation_xyz
  'x, y, z'

loop_
  _atom_site_type_symbol
  _atom_site_label
  _atom_site_symmetry_multiplicity
  _atom_site_fract_x
  _atom_site_fract_y
  _atom_site_fract_z
  _atom_site_occupancy
  S   S1        1.0  0.47247  0.14259  0.16595  1.0000
  S   S2        1.0  0.00449  0.16514  0.21357  1.0000
  Fe  Fe1       1.0  0.01296  0.11249  0.11776  1.0000
  C   C1        1.0  0.19120  0.23960  0.32009  1.0000
  S   S3        1.0  0.04660  0.09482  0.08932  1.0000
  H   H1        1.0  0.20884  0.19787  0.31846  1.0000
  H   H2        1.0  0.49832  0.14019  0.28478  1.0000
  H   H3        1.0  0.01283  0.19569  0.26379  1.0000
  C   C2        1.0  0.36466  0.42252  0.23230  1.0000
  S   S4        1.0  0.43072  0.06873  0.16464  1.0000
  C   C3        1.0  0.07074  0.15401  0.04280  1.0000
  Fe  Fe2       1.0  0.46717  0.09706  0.15285  1.0000
  C   C4        1.0  0.30158  0.42207  0.03005  1.0000
  H   H4        1.0  0.35766  0.39982  0.29906  1.0000
  Fe  Fe3       1.0  0.39755  0.38858  0.11797  1.0000
  S   S5        1.0  0.44398  0.38552  0.12841  1.0000
  S   S6        1.0  0.38499  0.41565  0.08039  1.0000
  Fe  Fe4       1.0  0.38044  0.36751  0.17636  1.0000
  S   S7        1.0  0.42519  0.36475  0.19042  1.0000
  S   S8        1.0  0.34480  0.35468  0.20523  1.0000
  Fe  Fe5       1.0  0.43200  0.40593  0.16854  1.0000
  S   S9        1.0  0.46083  0.43834  0.18819  1.0000
  Fe  Fe6       1.0  0.43297  0.34420  0.14926  1.0000
  S   S10       1.0  0.46118  0.30665  0.15839  1.0000
  S   S11       1.0  0.38627  0.41092  0.15783  1.0000
  S   S12       1.0  0.38735  0.34508  0.13564  1.0000
  C   C5        1.0  0.45777  0.22084  0.11523  1.0000
  C   C6        1.0  0.46689  0.22302  0.14283  1.0000
  C   C7        1.0  0.46653  0.24937  0.15621  1.0000
  C   C8        1.0  0.45721  0.27368  0.14207  1.0000
  C   C9        1.0  0.44738  0.27146  0.11471  1.0000
  C   C10       1.0  0.44772  0.24502  0.10128  1.0000
  H   H5        1.0  0.44745  0.43558  0.27859  1.0000
  H   H6        1.0  0.42505  0.49811  0.09689  1.0000
  H   H7        1.0  0.44042  0.29021  0.10360  1.0000
  C   C11       1.0  0.30445  0.47313  0.02928  1.0000
  C   C12       1.0  0.43879  0.03345  0.17360  1.0000
  H   H8        1.0  0.38497  0.28593  0.21818  1.0000
  C   C13       1.0  0.42672  0.48285  0.17252  1.0000
  C   C14       1.0  0.45313  0.47435  0.18254  1.0000
  H   H9        1.0  0.11937  0.20149  0.32541  1.0000
  C   C15       1.0  0.46541  0.02613  0.18403  1.0000
  H   H10       1.0  0.47414  0.25103  0.17741  1.0000
  H   H11       1.0  0.41054  0.46730  0.16825  1.0000
  N   N1        1.0  0.16385  0.19666  0.32161  1.0000
  H   H12       1.0  0.35274  0.42428  0.21302  1.0000
  C   C16       1.0  0.01721  0.10227  0.03969  1.0000
  C   C17       1.0  0.04154  0.09192  0.05287  1.0000
  C   C18       1.0  0.06328  0.08064  0.03653  1.0000
  C   C19       1.0  0.46255  0.47792  0.11286  1.0000
  H   H13       1.0  0.08217  0.07255  0.04651  1.0000
  S   S13       1.0  0.01109  0.15787  0.13220  1.0000
  C   C20       1.0  0.37550  0.40666  0.04581  1.0000
  C   C21       1.0  0.36826  0.37905  0.03802  1.0000
  H   H14       1.0  0.15012  0.15828  0.30301  1.0000
  H   H15       1.0  0.36972  0.36201  0.05307  1.0000
  C   C22       1.0  0.06632  0.15333  0.28654  1.0000
  C   C23       1.0  0.06832  0.13558  0.26317  1.0000
  C   C24       1.0  0.05006  0.13925  0.24015  1.0000
  C   C25       1.0  0.02984  0.16084  0.24038  1.0000
  C   C26       1.0  0.02839  0.17894  0.26344  1.0000
  C   C27       1.0  0.04642  0.17515  0.28643  1.0000
  H   H16       1.0  0.08376  0.11870  0.26305  1.0000
  H   H17       1.0  0.05148  0.12528  0.22242  1.0000
  H   H18       1.0  0.02547  0.11926  0.33373  1.0000
  H   H19       1.0  0.04455  0.18890  0.30424  1.0000
  C   C28       1.0  0.35961  0.33382  0.29775  1.0000
  C   C29       1.0  0.38251  0.34016  0.28038  1.0000
  C   C30       1.0  0.37834  0.34558  0.25187  1.0000
  C   C31       1.0  0.35116  0.34500  0.24041  1.0000
  C   C32       1.0  0.32829  0.33799  0.25764  1.0000
  C   C33       1.0  0.33248  0.33232  0.28621  1.0000
  H   H20       1.0  0.40355  0.34145  0.28915  1.0000
  H   H21       1.0  0.39612  0.35104  0.23908  1.0000
  H   H22       1.0  0.30715  0.33748  0.24900  1.0000
  H   H23       1.0  0.31466  0.32758  0.29941  1.0000
  S   S14       1.0  0.46894  0.10683  0.10727  1.0000
  H   H24       1.0  0.39772  0.01783  0.16170  1.0000
  C   C34       1.0  0.04768  0.16474  0.05743  1.0000
  C   C35       1.0  0.39334  0.42964  0.23318  1.0000
  C   C36       1.0  0.13959  0.21214  0.32382  1.0000
  C   C37       1.0  0.00711  0.10942  0.29365  1.0000
  C   C38       1.0  0.46630  0.02334  0.11055  1.0000
  H   H25       1.0  0.47461  0.20449  0.15372  1.0000
  H   H26       1.0  0.16785  0.27838  0.32512  1.0000
  C   C39       1.0  0.16662  0.25551  0.32309  1.0000
  H   H27       1.0  0.32196  0.44694  0.06203  1.0000
  H   H28       1.0  0.00657  0.19590  0.07863  1.0000
  H   H29       1.0  0.40346  0.43742  0.21445  1.0000
  H   H30       1.0  0.47675  0.04379  0.11161  1.0000
  N   N2        1.0  0.39321  0.26189  0.18145  1.0000
  C   C40       1.0  0.38645  0.26035  0.15378  1.0000
  C   C41       1.0  0.40355  0.23862  0.19517  1.0000
  C   C42       1.0  0.38924  0.23480  0.13932  1.0000
  C   C43       1.0  0.40667  0.21273  0.18132  1.0000
  C   C44       1.0  0.39941  0.21087  0.15322  1.0000
  C   C45       1.0  0.39107  0.28903  0.19608  1.0000
  H   H31       1.0  0.37934  0.27906  0.14260  1.0000
  H   H32       1.0  0.40976  0.24007  0.21687  1.0000
  H   H33       1.0  0.38451  0.23377  0.11722  1.0000
  H   H34       1.0  0.41527  0.19438  0.19208  1.0000
  H   H35       1.0  0.40263  0.19120  0.14195  1.0000
  H   H36       1.0  0.37910  0.44997  0.03181  1.0000
  N   N3        1.0  0.02459  0.17510  0.04353  1.0000
  C   C46       1.0  0.36739  0.40885  0.28063  1.0000
  C   C47       1.0  0.47396  0.49480  0.18795  1.0000
  H   H37       1.0  0.48102  0.04241  0.18776  1.0000
  H   H38       1.0  0.32964  0.40574  0.25555  1.0000
  H   H39       1.0  0.30673  0.40215  0.04021  1.0000
  S   S15       1.0  0.45875  0.18821  0.09781  1.0000
  H   H40       1.0  0.15045  0.15824  0.34047  1.0000
  S   S16       1.0  0.00522  0.09427  0.16071  1.0000
  H   H41       1.0  0.04803  0.16381  0.07999  1.0000
  C   C48       1.0  0.00814  0.49421  0.09828  1.0000
  C   C49       1.0  0.18945  0.20999  0.31953  1.0000
  H   H42       1.0  0.37463  0.30288  0.18656  1.0000
  C   C50       1.0  0.39609  0.41590  0.28070  1.0000
  C   C51       1.0  0.01155  0.48913  0.14735  1.0000
  H   H43       1.0  0.41166  0.30029  0.19531  1.0000
  H   H44       1.0  0.45059  0.41608  0.24639  1.0000
  S   S17       1.0  0.08806  0.14721  0.31599  1.0000
  H   H45       1.0  0.00670  0.09421  0.24050  1.0000
  N   N4        1.0  0.40859  0.42649  0.25724  1.0000
  C   C52       1.0  0.35164  0.41219  0.25623  1.0000
  Fe  Fe7       1.0  0.47868  0.15130  0.12054  1.0000
  C   C53       1.0  0.16197  0.16564  0.32168  1.0000
  H   H46       1.0  0.44277  0.45343  0.24594  1.0000
  H   H47       1.0  0.12148  0.25389  0.32816  1.0000
  C   C54       1.0  0.43825  0.02200  0.10140  1.0000
  C   C55       1.0  0.37351  0.42855  0.02597  1.0000
  H   H48       1.0  0.02138  0.09185  0.29018  1.0000
  H   H49       1.0  0.44062  0.24337  0.07990  1.0000
  C   C56       1.0  0.14061  0.24175  0.32486  1.0000
  H   H50       1.0  0.21166  0.25003  0.31983  1.0000
  H   H51       1.0  0.40830  0.41247  0.29956  1.0000
  C   C57       1.0  0.00942  0.12475  0.31844  1.0000
  C   C58       1.0  0.43882  0.43316  0.25720  1.0000
  S   S18       1.0  0.36596  0.33038  0.33390  1.0000
  H   H52       1.0  0.49575  0.21794  0.33517  1.0000
  H   H53       1.0  0.49437  0.48833  0.19592  1.0000
  C   C59       1.0  0.41840  0.01223  0.16962  1.0000
  H   H54       1.0  0.08848  0.14479  0.05398  1.0000
  H   H55       1.0  0.18309  0.15545  0.32190  1.0000
  C   C60       1.0  0.31019  0.44741  0.04255  1.0000
  H   H56       1.0  0.42704  0.04132  0.09603  1.0000
  H   H57       1.0  0.45286  0.45709  0.11430  1.0000
  H   H58       1.0  0.31135  0.49293  0.03854  1.0000
  C   C61       1.0  0.49032  0.48217  0.12203  1.0000
  H   H59       1.0  0.00606  0.02434  0.11433  1.0000
  H   H60       1.0  0.00705  0.47744  0.16628  1.0000
  H   H61       1.0  0.00035  0.11109  0.05192  1.0000
  C   C62       1.0  0.00003  0.18472  0.05931  1.0000
  N   N5        1.0  0.00269  0.47916  0.12205  1.0000
  H   H62       1.0  0.00313  0.43523  0.11249  1.0000
  H   H63       1.0  0.00133  0.48621  0.07821  1.0000
  C   C63       1.0  0.44691  0.50099  0.10314  1.0000
  Fe  Fe8       1.0  0.21707  0.39162  0.64169  1.0000
  S   S19       1.0  0.26393  0.39332  0.63442  1.0000
  S   S20       1.0  0.18455  0.42623  0.63563  1.0000
  Fe  Fe9       1.0  0.21925  0.33125  0.66498  1.0000
  S   S21       1.0  0.26614  0.32900  0.66061  1.0000
  H   H64       1.0  0.03310  0.18131  0.57095  1.0000
  C   C64       1.0  0.35010  0.34697  0.53793  1.0000
  Fe  Fe10      1.0  0.25883  0.34854  0.61832  1.0000
  S   S22       1.0  0.27903  0.32228  0.58406  1.0000
  C   C65       1.0  0.36547  0.27802  0.48355  1.0000
  S   S23       1.0  0.21158  0.34862  0.62223  1.0000
  Fe  Fe11      1.0  0.15001  0.07921  0.62985  1.0000
  S   S24       1.0  0.10482  0.09350  0.63252  1.0000
  S   S25       1.0  0.15232  0.03329  0.61570  1.0000
  Fe  Fe12      1.0  0.17120  0.13718  0.64961  1.0000
  S   S26       1.0  0.12739  0.15413  0.65472  1.0000
  S   S27       1.0  0.20931  0.16618  0.65396  1.0000
  C   C66       1.0  0.18110  0.01029  0.62185  1.0000
  Fe  Fe13      1.0  0.11928  0.13419  0.61294  1.0000
  S   S28       1.0  0.09859  0.16330  0.58090  1.0000
  C   C67       1.0  0.01548  0.18366  0.50228  1.0000
  S   S29       1.0  0.16347  0.11871  0.60705  1.0000
  Fe  Fe14      1.0  0.31006  0.31691  0.42405  1.0000
  S   S30       1.0  0.30381  0.27005  0.42941  1.0000
  S   S31       1.0  0.29951  0.35014  0.45660  1.0000
  Fe  Fe15      1.0  0.33675  0.31034  0.36601  1.0000
  S   S32       1.0  0.33162  0.26310  0.36730  1.0000
  Fe  Fe16      1.0  0.28858  0.27148  0.38508  1.0000
  S   S33       1.0  0.25331  0.24223  0.37102  1.0000
  Fe  Fe17      1.0  0.34723  0.26586  0.41122  1.0000
  S   S34       1.0  0.37897  0.23344  0.42658  1.0000
  S   S35       1.0  0.29226  0.31894  0.38032  1.0000
  S   S36       1.0  0.35484  0.31257  0.40941  1.0000
  S   S37       1.0  0.06646  0.21716  0.35421  1.0000
  N   N6        1.0  0.36126  0.30196  0.50244  1.0000
  Fe  Fe18      1.0  0.07107  0.16838  0.41908  1.0000
  S   S38       1.0  0.05772  0.21413  0.42196  1.0000
  S   S39       1.0  0.07438  0.13628  0.45434  1.0000
  Fe  Fe19      1.0  0.03164  0.20529  0.38347  1.0000
  C   C68       1.0  0.43706  0.27854  0.35302  1.0000
  Fe  Fe20      1.0  0.09383  0.22140  0.39221  1.0000
  S   S40       1.0  0.12331  0.25911  0.39513  1.0000
  S   S41       1.0  0.04195  0.15887  0.38304  1.0000
  S   S42       1.0  0.10823  0.17614  0.39119  1.0000
  C   C69       1.0  0.21854  0.24711  0.38307  1.0000
  C   C70       1.0  0.20071  0.22344  0.38512  1.0000
  C   C71       1.0  0.17171  0.22682  0.39004  1.0000
  C   C72       1.0  0.16021  0.25394  0.39281  1.0000
  C   C73       1.0  0.17825  0.27759  0.39191  1.0000
  C   C74       1.0  0.20736  0.27421  0.38712  1.0000
  H   H65       1.0  0.20925  0.20242  0.38213  1.0000
  H   H66       1.0  0.15824  0.20845  0.39101  1.0000
  H   H67       1.0  0.37662  0.28463  0.46432  1.0000
  H   H68       1.0  0.16957  0.29866  0.39419  1.0000
  C   C75       1.0  0.41539  0.24109  0.42539  1.0000
  C   C76       1.0  0.42521  0.26900  0.42397  1.0000
  C   C77       1.0  0.45435  0.27450  0.42361  1.0000
  C   C78       1.0  0.47386  0.25216  0.42381  1.0000
  C   C79       1.0  0.46409  0.22419  0.42487  1.0000
  C   C80       1.0  0.43492  0.21872  0.42606  1.0000
  H   H69       1.0  0.41044  0.28640  0.42338  1.0000
  H   H70       1.0  0.46181  0.29618  0.42287  1.0000
  C   C81       1.0  0.35484  0.35192  0.50972  1.0000
  H   H71       1.0  0.42742  0.19707  0.42724  1.0000
  C   C82       1.0  0.09815  0.15607  0.54479  1.0000
  C   C83       1.0  0.09986  0.12835  0.53474  1.0000
  C   C84       1.0  0.09432  0.12280  0.50645  1.0000
  C   C85       1.0  0.08726  0.14487  0.48796  1.0000
  C   C86       1.0  0.08729  0.17278  0.49767  1.0000
  C   C87       1.0  0.09254  0.17831  0.52601  1.0000
  H   H72       1.0  0.10422  0.11106  0.54897  1.0000
  H   H73       1.0  0.09458  0.10116  0.49904  1.0000
  H   H74       1.0  0.08196  0.18996  0.48365  1.0000
  H   H75       1.0  0.09123  0.19982  0.53361  1.0000
  C   C88       1.0  0.27971  0.33012  0.54803  1.0000
  C   C89       1.0  0.27796  0.35792  0.53800  1.0000
  C   C90       1.0  0.28288  0.36362  0.50963  1.0000
  C   C91       1.0  0.28929  0.34160  0.49104  1.0000
  C   C92       1.0  0.28978  0.31368  0.50089  1.0000
  C   C93       1.0  0.28514  0.30801  0.52927  1.0000
  H   H76       1.0  0.27393  0.37513  0.55225  1.0000
  H   H77       1.0  0.28243  0.38527  0.50216  1.0000
  H   H78       1.0  0.29452  0.29655  0.48681  1.0000
  H   H79       1.0  0.28651  0.28644  0.53684  1.0000
  H   H80       1.0  0.34454  0.36437  0.55156  1.0000
  H   H81       1.0  0.02011  0.21585  0.53374  1.0000
  H   H82       1.0  0.03608  0.13045  0.55999  1.0000
  C   C94       1.0  0.20431  0.20239  0.66216  1.0000
  C   C95       1.0  0.22584  0.22207  0.65646  1.0000
  C   C96       1.0  0.22223  0.25107  0.66245  1.0000
  C   C97       1.0  0.46092  0.26107  0.35316  1.0000
  H   H83       1.0  0.34477  0.26880  0.47747  1.0000
  Fe  Fe21      1.0  0.26661  0.37353  0.67720  1.0000
  H   H84       1.0  0.35601  0.27537  0.53801  1.0000
  C   C98       1.0  0.19353  0.46237  0.63406  1.0000
  H   H85       1.0  0.36242  0.33299  0.47000  1.0000
  H   H86       1.0  0.22091  0.29261  0.38544  1.0000
  H   H87       1.0  0.16358  0.48193  0.54619  1.0000
  C   C99       1.0  0.20649  0.01997  0.63330  1.0000
  H   H88       1.0  0.01417  0.14736  0.47547  1.0000
  H   H89       1.0  0.23750  0.45611  0.62490  1.0000
  H   H90       1.0  0.24530  0.21486  0.64720  1.0000
  C   C100      1.0  0.17224  0.48248  0.63824  1.0000
  C   C101      1.0  0.35090  0.31931  0.54824  1.0000
  C   C102      1.0  0.02081  0.19335  0.52921  1.0000
  H   H91       1.0  0.47871  0.19158  0.35607  1.0000
  C   C103      1.0  0.36022  0.32901  0.49212  1.0000
  Fe  Fe22      1.0  0.07779  0.17125  0.35546  1.0000
  H   H92       1.0  0.34586  0.31519  0.56989  1.0000
  C   C104      1.0  0.01747  0.15466  0.49664  1.0000
  C   C105      1.0  0.02785  0.17400  0.55014  1.0000
  N   N7        1.0  0.02482  0.13589  0.51720  1.0000
  H   H93       1.0  0.47894  0.20681  0.42522  1.0000
  H   H94       1.0  0.00556  0.09559  0.51239  1.0000
  H   H95       1.0  0.20918  0.04227  0.63788  1.0000
  H   H96       1.0  0.03508  0.10234  0.48946  1.0000
  H   H97       1.0  0.15092  0.47551  0.64254  1.0000
  C   C106      1.0  0.02963  0.14516  0.54376  1.0000
  H   H98       1.0  0.24835  0.00845  0.64712  1.0000
  H   H99       1.0  0.23883  0.26604  0.65772  1.0000
  N   N8        1.0  0.18164  0.22445  0.59755  1.0000
  C   C107      1.0  0.17072  0.24906  0.60791  1.0000
  C   C108      1.0  0.20765  0.22430  0.58532  1.0000
  C   C109      1.0  0.18612  0.27435  0.60649  1.0000
  C   C110      1.0  0.22361  0.24923  0.58351  1.0000
  C   C111      1.0  0.21272  0.27437  0.59417  1.0000
  C   C112      1.0  0.16496  0.19830  0.59838  1.0000
  H   H100      1.0  0.15025  0.24914  0.61788  1.0000
  H   H101      1.0  0.21626  0.20474  0.57716  1.0000
  H   H102      1.0  0.17772  0.29361  0.61550  1.0000
  H   H103      1.0  0.24435  0.24913  0.57406  1.0000
  H   H104      1.0  0.22503  0.29375  0.59307  1.0000
  H   H105      1.0  0.15365  0.19518  0.57830  1.0000
  H   H106      1.0  0.17875  0.17971  0.60245  1.0000
  H   H107      1.0  0.14917  0.19874  0.61537  1.0000
  C   C113      1.0  0.22102  0.47150  0.62847  1.0000
  H   H108      1.0  0.04162  0.09464  0.52521  1.0000
  C   C114      1.0  0.35643  0.29690  0.53005  1.0000
  H   H109      1.0  0.35279  0.37313  0.50116  1.0000
  H   H110      1.0  0.18740  0.48402  0.57558  1.0000
  C   C115      1.0  0.02670  0.10558  0.51082  1.0000
  H   H111      1.0  0.37854  0.26119  0.49340  1.0000
  C   C116      1.0  0.17930  0.21192  0.67424  1.0000
  C   C117      1.0  0.19717  0.26048  0.67459  1.0000
  C   C118      1.0  0.16591  0.48961  0.56789  1.0000
  H   H112      1.0  0.10294  0.02642  0.65243  1.0000
  Fe  Fe23      1.0  0.11761  0.11170  0.67394  1.0000
  H   H113      1.0  0.48175  0.27068  0.35281  1.0000
  H   H114      1.0  0.15079  0.47807  0.58145  1.0000
  H   H115      1.0  0.49713  0.22020  0.37266  1.0000
  H   H116      1.0  0.43920  0.30143  0.35234  1.0000
  S   S43       1.0  0.16227  0.09583  0.67206  1.0000
  H   H117      1.0  0.39171  0.27964  0.35506  1.0000
  H   H118      1.0  0.01057  0.19854  0.48568  1.0000
  C   C119      1.0  0.41031  0.26630  0.35454  1.0000
  H   H119      1.0  0.38696  0.22727  0.35840  1.0000
  C   C120      1.0  0.40766  0.23689  0.35619  1.0000
  N   N9        1.0  0.45812  0.23223  0.35449  1.0000
  C   C121      1.0  0.17584  0.24078  0.68059  1.0000
  H   H120      1.0  0.23277  0.43732  0.68173  1.0000
  H   H121      1.0  0.16283  0.19698  0.67935  1.0000
  S   S44       1.0  0.19158  0.29658  0.68267  1.0000
  C   C122      1.0  0.43194  0.22004  0.35606  1.0000
  H   H122      1.0  0.42969  0.19724  0.35786  1.0000
  C   C123      1.0  0.48356  0.21461  0.35461  1.0000
  H   H123      1.0  0.09273  0.04848  0.68069  1.0000
  C   C124      1.0  0.10124  0.02720  0.67550  1.0000
  H   H124      1.0  0.00047  0.30901  0.35124  1.0000
  H   H125      1.0  0.26124  0.46199  0.68297  1.0000
  C   C125      1.0  0.22707  0.50070  0.62714  1.0000
  H   H126      1.0  0.08600  0.01091  0.68266  1.0000
  S   S45       1.0  0.29859  0.38928  0.70902  1.0000
  S   S46       1.0  0.08716  0.10158  0.70919  1.0000
  Fe  Fe24      1.0  0.30080  0.43288  0.86971  1.0000
  H   H127      1.0  0.18740  0.44901  0.70436  1.0000
  S   S47       1.0  0.27206  0.41398  0.83623  1.0000
  Fe  Fe25      1.0  0.32964  0.42258  0.92660  1.0000
  S   S48       1.0  0.33326  0.46891  0.93572  1.0000
  S   S49       1.0  0.34166  0.38820  0.95776  1.0000
  Fe  Fe26      1.0  0.28930  0.47235  0.91873  1.0000
  C   C126      1.0  0.36372  0.42311  0.99880  1.0000
  Fe  Fe27      1.0  0.34676  0.47290  0.89121  1.0000
  C   C127      1.0  0.22926  0.30922  0.74852  1.0000
  S   S50       1.0  0.28423  0.42565  0.91304  1.0000
  S   S51       1.0  0.34627  0.42585  0.88268  1.0000
  Fe  Fe28      1.0  0.09634  0.06632  0.87317  1.0000
  S   S52       1.0  0.12883  0.47540  0.92155  1.0000
  S   S53       1.0  0.11925  0.08875  0.83773  1.0000
  Fe  Fe29      1.0  0.06557  0.07112  0.92994  1.0000
  S   S54       1.0  0.07593  0.02639  0.94152  1.0000
  S   S55       1.0  0.03565  0.09598  0.95752  1.0000
  Fe  Fe30      1.0  0.11907  0.03511  0.92414  1.0000
  H   H128      1.0  0.48926  0.03970  0.89427  1.0000
  C   C128      1.0  0.39709  0.00651  0.83131  1.0000
  C   C129      1.0  0.46484  0.01817  0.96914  1.0000
  S   S56       1.0  0.10963  0.08100  0.91590  1.0000
  S   S57       1.0  0.05099  0.06132  0.88629  1.0000
  C   C130      1.0  0.03736  0.09194  0.99411  1.0000
  H   H129      1.0  0.45693  0.43242  0.95354  1.0000
  H   H130      1.0  0.24294  0.04134  0.89389  1.0000
  H   H131      1.0  0.26646  0.34012  0.80084  1.0000
  H   H132      1.0  0.28519  0.49311  0.99341  1.0000
  C   C131      1.0  0.35594  0.39562  0.99112  1.0000
  C   C132      1.0  0.49151  0.01090  0.95930  1.0000
  H   H133      1.0  0.32280  0.34641  0.75069  1.0000
  H   H134      1.0  0.19628  0.00524  0.82598  1.0000
  C   C133      1.0  0.22394  0.04071  0.88123  1.0000
  H   H135      1.0  0.42048  0.04480  0.83956  1.0000
  H   H136      1.0  0.24919  0.44569  0.71480  1.0000
  C   C134      1.0  0.47788  0.48980  0.94150  1.0000
  H   H137      1.0  0.40832  0.47586  0.93900  1.0000
  H   H138      1.0  0.17148  0.04861  0.73891  1.0000
  H   H139      1.0  0.22871  0.46101  0.83887  1.0000
  C   C135      1.0  0.31236  0.33631  0.76891  1.0000
  C   C136      1.0  0.16449  0.48321  0.92815  1.0000
  C   C137      1.0  0.35857  0.37358  0.01074  1.0000
  H   H140      1.0  0.18182  0.08100  0.92009  1.0000
  H   H141      1.0  0.00457  0.02833  0.86814  1.0000
  H   H142      1.0  0.43538  0.43651  0.92256  1.0000
  H   H143      1.0  0.00480  0.18174  0.00404  1.0000
  H   H144      1.0  0.29502  0.31328  0.72131  1.0000
  C   C138      1.0  0.45232  0.46629  0.86799  1.0000
  N   N10       1.0  0.12892  0.02238  0.68844  1.0000
  C   C139      1.0  0.42340  0.47196  0.87124  1.0000
  C   C140      1.0  0.17446  0.49248  0.70841  1.0000
  H   H145      1.0  0.45925  0.44488  0.86386  1.0000
  H   H146      1.0  0.40811  0.45500  0.86965  1.0000
  C   C141      1.0  0.09653  0.09786  0.74482  1.0000
  C   C142      1.0  0.12332  0.10534  0.75474  1.0000
  C   C143      1.0  0.12991  0.10220  0.78321  1.0000
  C   C144      1.0  0.10999  0.09119  0.80198  1.0000
  C   C145      1.0  0.08343  0.08308  0.79195  1.0000
  C   C146      1.0  0.07671  0.08657  0.76351  1.0000
  H   H147      1.0  0.13875  0.11413  0.74061  1.0000
  H   H148      1.0  0.15045  0.10870  0.79081  1.0000
  H   H149      1.0  0.06788  0.07467  0.80616  1.0000
  H   H150      1.0  0.05596  0.08065  0.75600  1.0000
  C   C147      1.0  0.29011  0.39908  0.74353  1.0000
  C   C148      1.0  0.26302  0.39516  0.75426  1.0000
  C   C149      1.0  0.25773  0.40064  0.78254  1.0000
  C   C150      1.0  0.27940  0.41011  0.80036  1.0000
  C   C151      1.0  0.30628  0.41487  0.78945  1.0000
  C   C152      1.0  0.31158  0.40937  0.76114  1.0000
  H   H151      1.0  0.24634  0.38711  0.74103  1.0000
  H   H152      1.0  0.23686  0.39693  0.79081  1.0000
  H   H153      1.0  0.32314  0.42221  0.80292  1.0000
  H   H154      1.0  0.33262  0.41252  0.75302  1.0000
  H   H155      1.0  0.04491  0.16247  0.97725  1.0000
  H   H156      1.0  0.32486  0.31762  0.77568  1.0000
  C   C153      1.0  0.28152  0.44751  0.99209  1.0000
  C   C154      1.0  0.17521  0.03791  0.84918  1.0000
  C   C155      1.0  0.44654  0.02452  0.90028  1.0000
  H   H157      1.0  0.43926  0.04410  0.90945  1.0000
  H   H158      1.0  0.15593  0.03720  0.83686  1.0000
  C   C156      1.0  0.27863  0.39560  0.99233  1.0000
  C   C157      1.0  0.19788  0.02025  0.84296  1.0000
  C   C158      1.0  0.17731  0.05646  0.87174  1.0000
  N   N11       1.0  0.20128  0.05735  0.88768  1.0000
  C   C159      1.0  0.23481  0.32162  0.77431  1.0000
  C   C160      1.0  0.22252  0.02174  0.85894  1.0000
  H   H159      1.0  0.24007  0.00763  0.85470  1.0000
  Fe  Fe31      1.0  0.06315  0.01672  0.89746  1.0000
  C   C161      1.0  0.45468  0.44407  0.93355  1.0000
  N   N12       1.0  0.28351  0.32763  0.76173  1.0000
  C   C162      1.0  0.26231  0.33045  0.78075  1.0000
  C   C163      1.0  0.25113  0.30585  0.72957  1.0000
  C   C164      1.0  0.47486  0.02204  0.89180  1.0000
  N   N13       1.0  0.28784  0.42235  0.00492  1.0000
  S   S58       1.0  0.10756  0.02067  0.88111  1.0000
  H   H160      1.0  0.20806  0.30221  0.74309  1.0000
  H   H161      1.0  0.01351  0.03878  0.94263  1.0000
  H   H162      1.0  0.36193  0.44024  0.98393  1.0000
  H   H163      1.0  0.20283  0.01039  0.72083  1.0000
  C   C165      1.0  0.13773  0.03883  0.71020  1.0000
  H   H164      1.0  0.22831  0.44986  0.92797  1.0000
  C   C166      1.0  0.18432  0.46129  0.92623  1.0000
  C   C167      1.0  0.21320  0.46686  0.92982  1.0000
  C   C168      1.0  0.42120  0.02351  0.83110  1.0000
  H   H165      1.0  0.17732  0.43997  0.92155  1.0000
  H   H166      1.0  0.46568  0.02522  0.82186  1.0000
  S   S59       1.0  0.22019  0.37418  0.68508  1.0000
  H   H167      1.0  0.24076  0.46195  0.87447  1.0000
  H   H168      1.0  0.12441  0.05557  0.71799  1.0000
  S   S60       1.0  0.39209  0.00537  0.90723  1.0000
  C   C169      1.0  0.44653  0.01256  0.82113  1.0000
  H   H169      1.0  0.20770  0.44587  0.86653  1.0000
  C   C170      1.0  0.41444  0.49960  0.87664  1.0000
  C   C171      1.0  0.22233  0.49435  0.93576  1.0000
  C   C172      1.0  0.42761  0.00184  0.89675  1.0000
  H   H170      1.0  0.49814  0.47950  0.93883  1.0000
  H   H171      1.0  0.16650  0.47444  0.85786  1.0000
  H   H172      1.0  0.47285  0.43892  0.91987  1.0000
  C   C173      1.0  0.47236  0.48804  0.87094  1.0000
  C   C174      1.0  0.19431  0.47097  0.70408  1.0000
  C   C175      1.0  0.27824  0.31546  0.73642  1.0000
  C   C176      1.0  0.28989  0.47325  0.00395  1.0000
  H   H173      1.0  0.21793  0.32439  0.78920  1.0000
  H   H174      1.0  0.46114  0.03922  0.97742  1.0000
  H   H175      1.0  0.24697  0.29591  0.70963  1.0000
  C   C177      1.0  0.04619  0.16390  0.99977  1.0000
  H   H176      1.0  0.31257  0.35231  0.78586  1.0000
  H   H177      1.0  0.15953  0.06994  0.87662  1.0000
  C   C178      1.0  0.24229  0.45457  0.69442  1.0000
  C   C179      1.0  0.01517  0.10232  0.01045  1.0000
  H   H178      1.0  0.21605  0.06804  0.92830  1.0000
  C   C180      1.0  0.20307  0.07709  0.91112  1.0000
  S   S61       1.0  0.30280  0.48014  0.87490  1.0000
  C   C181      1.0  0.18184  0.01342  0.71218  1.0000
  H   H179      1.0  0.35277  0.35220  0.00492  1.0000
  S   S62       1.0  0.16073  0.02785  0.94661  1.0000
  H   H180      1.0  0.21222  0.09755  0.90415  1.0000
  H   H181      1.0  0.15649  0.24783  0.69019  1.0000
  H   H182      1.0  0.08708  0.14411  0.00221  1.0000
  C   C182      1.0  0.16438  0.03483  0.72223  1.0000
  N   N14       1.0  0.22187  0.47752  0.69857  1.0000
  S   S63       1.0  0.00673  0.47867  0.87058  1.0000
  H   H183      1.0  0.37752  0.01449  0.83990  1.0000
  H   H184      1.0  0.25680  0.39047  0.99891  1.0000
  H   H185      1.0  0.21953  0.02042  0.95945  1.0000
  H   H186      1.0  0.27940  0.39689  0.96925  1.0000
  C   C183      1.0  0.06991  0.15355  0.01379  1.0000
  H   H187      1.0  0.27011  0.44787  0.97245  1.0000
  H   H188      1.0  0.42199  0.00437  0.97472  1.0000
  C   C184      1.0  0.22187  0.46371  0.86077  1.0000
  H   H189      1.0  0.07844  0.07250  0.99495  1.0000
  C   C185      1.0  0.21432  0.00630  0.94247  1.0000
  C   C186      1.0  0.18644  0.00528  0.93229  1.0000
  H   H190      1.0  0.29301  0.37792  0.99826  1.0000
  N   N15       1.0  0.20793  0.49119  0.86425  1.0000
  N   N16       1.0  0.45338  0.47465  0.93874  1.0000
  C   C187      1.0  0.17924  0.49324  0.86133  1.0000
  H   H191      1.0  0.15249  0.48729  0.71210  1.0000
  C   C188      1.0  0.06118  0.08054  0.00728  1.0000
  C   C189      1.0  0.42779  0.48771  0.94167  1.0000
  C   C190      1.0  0.02352  0.17456  0.01507  1.0000
  N   N17       1.0  0.47467  0.73379  0.19976  1.0000
  H   H192      1.0  0.13096  0.73334  0.30161  1.0000
  Fe  Fe32      1.0  0.02997  0.61165  0.12929  1.0000
  C   C191      1.0  0.42460  0.99577  0.10026  1.0000
  S   S64       1.0  0.05962  0.59947  0.09426  1.0000
  Fe  Fe33      1.0  0.02797  0.64070  0.18705  1.0000
  H   H193      1.0  0.11715  0.66409  0.23295  1.0000
  S   S65       1.0  0.05055  0.67024  0.21728  1.0000
  H   H194      1.0  0.35559  0.89183  0.30047  1.0000
  C   C192      1.0  0.48719  0.53125  0.11133  1.0000
  H   H195      1.0  0.36186  0.94585  0.03691  1.0000
  H   H196      1.0  0.35549  0.91635  0.21455  1.0000
  S   S66       1.0  0.03923  0.59675  0.17296  1.0000
  S   S67       1.0  0.02351  0.65668  0.14302  1.0000
  Fe  Fe34      1.0  0.40036  0.88926  0.12018  1.0000
  S   S68       1.0  0.44717  0.89195  0.12769  1.0000
  S   S69       1.0  0.38127  0.91493  0.08440  1.0000
  Fe  Fe35      1.0  0.39027  0.86146  0.17761  1.0000
  S   S70       1.0  0.43605  0.86271  0.18879  1.0000
  S   S71       1.0  0.35746  0.84405  0.20754  1.0000
  Fe  Fe36      1.0  0.43589  0.90642  0.17047  1.0000
  S   S72       1.0  0.46084  0.94085  0.19180  1.0000
  Fe  Fe37      1.0  0.44308  0.84788  0.14511  1.0000
  S   S73       1.0  0.47865  0.81642  0.14086  1.0000
  S   S74       1.0  0.38939  0.90662  0.16243  1.0000
  S   S75       1.0  0.39687  0.84364  0.13451  1.0000
  C   C193      1.0  0.46119  0.72441  0.11665  1.0000
  H   H197      1.0  0.44700  0.54616  0.09586  1.0000
  H   H198      1.0  0.30123  0.90492  0.02740  1.0000
  C   C194      1.0  0.47152  0.78125  0.13103  1.0000
  C   C195      1.0  0.44550  0.77348  0.11949  1.0000
  C   C196      1.0  0.44048  0.74513  0.11201  1.0000
  H   H199      1.0  0.40063  0.51824  0.16032  1.0000
  H   H200      1.0  0.33041  0.89689  0.25552  1.0000
  H   H201      1.0  0.42939  0.78934  0.11604  1.0000
  H   H202      1.0  0.43143  0.89695  0.30798  1.0000
  C   C197      1.0  0.44217  0.53210  0.17269  1.0000
  S   S76       1.0  0.43460  0.56789  0.16579  1.0000
  C   C198      1.0  0.49674  0.71240  0.20392  1.0000
  C   C199      1.0  0.45163  0.97638  0.18533  1.0000
  N   N18       1.0  0.00711  0.65990  0.05248  1.0000
  C   C200      1.0  0.11942  0.66370  0.25545  1.0000
  H   H203      1.0  0.39909  0.88841  0.32487  1.0000
  H   H204      1.0  0.40926  0.96742  0.17142  1.0000
  S   S77       1.0  0.45435  0.68912  0.10717  1.0000
  H   H205      1.0  0.12337  0.66400  0.33559  1.0000
  C   C201      1.0  0.02062  0.58701  0.05269  1.0000
  C   C202      1.0  0.04902  0.58787  0.06074  1.0000
  C   C203      1.0  0.06982  0.58075  0.04123  1.0000
  C   C204      1.0  0.05618  0.65402  0.04148  1.0000
  H   H206      1.0  0.09185  0.58126  0.04731  1.0000
  C   C205      1.0  0.48715  0.73214  0.12831  1.0000
  C   C206      1.0  0.37783  0.90487  0.04908  1.0000
  C   C207      1.0  0.49238  0.76056  0.13522  1.0000
  H   H207      1.0  0.39289  0.86217  0.05436  1.0000
  S   S78       1.0  0.05480  0.65332  0.34843  1.0000
  C   C208      1.0  0.04996  0.65971  0.31234  1.0000
  C   C209      1.0  0.04067  0.63747  0.29516  1.0000
  C   C210      1.0  0.03935  0.64084  0.26603  1.0000
  C   C211      1.0  0.04761  0.66646  0.25382  1.0000
  C   C212      1.0  0.05600  0.68902  0.27105  1.0000
  C   C213      1.0  0.05707  0.68573  0.30017  1.0000
  C   C214      1.0  0.02574  0.51508  0.14935  1.0000
  H   H208      1.0  0.03286  0.62328  0.25303  1.0000
  H   H209      1.0  0.06241  0.70891  0.26177  1.0000
  H   H210      1.0  0.06427  0.70302  0.31310  1.0000
  C   C215      1.0  0.37247  0.82995  0.30133  1.0000
  C   C216      1.0  0.39504  0.83766  0.28400  1.0000
  C   C217      1.0  0.39101  0.84119  0.25513  1.0000
  C   C218      1.0  0.36429  0.83700  0.24326  1.0000
  C   C219      1.0  0.34194  0.82839  0.26047  1.0000
  C   C220      1.0  0.34598  0.82484  0.28936  1.0000
  H   H211      1.0  0.41565  0.84152  0.29303  1.0000
  H   H212      1.0  0.40841  0.84779  0.24221  1.0000
  H   H213      1.0  0.32122  0.82500  0.25149  1.0000
  H   H214      1.0  0.32840  0.81896  0.30244  1.0000
  S   S79       1.0  0.47059  0.64322  0.17404  1.0000
  Fe  Fe38      1.0  0.47044  0.59833  0.15822  1.0000
  H   H215      1.0  0.04223  0.55077  0.12655  1.0000
  H   H216      1.0  0.42042  0.73922  0.10284  1.0000
  H   H217      1.0  0.40587  0.93118  0.21918  1.0000
  H   H218      1.0  0.32224  0.85970  0.02469  1.0000
  H   H219      1.0  0.47716  0.70562  0.05083  1.0000
  C   C221      1.0  0.03487  0.66033  0.06050  1.0000
  H   H220      1.0  0.44533  0.70391  0.18304  1.0000
  C   C222      1.0  0.42491  0.98368  0.17511  1.0000
  H   H221      1.0  0.00439  0.59234  0.06750  1.0000
  C   C223      1.0  0.46700  0.97350  0.11771  1.0000
  C   C224      1.0  0.99979  0.65264  0.02584  1.0000
  C   C225      1.0  0.11447  0.63925  0.29928  1.0000
  H   H222      1.0  0.13262  0.70714  0.25818  1.0000
  C   C226      1.0  0.47677  0.68645  0.03737  1.0000
  C   C227      1.0  0.42787  0.74588  0.18423  1.0000
  C   C228      1.0  0.36717  0.92477  0.02989  1.0000
  H   H223      1.0  0.10827  0.62065  0.31114  1.0000
  H   H224      1.0  0.07806  0.65331  0.04827  1.0000
  H   H225      1.0  0.42337  0.78344  0.34767  1.0000
  N   N19       1.0  0.12885  0.68813  0.29834  1.0000
  H   H226      1.0  0.41019  0.92505  0.32272  1.0000
  C   C229      1.0  0.03124  0.53062  0.12526  1.0000
  H   H227      1.0  0.46378  0.80446  0.20515  1.0000
  Fe  Fe39      1.0  0.47883  0.65512  0.12968  1.0000
  S   S80       1.0  0.47443  0.61092  0.11345  1.0000
  H   H228      1.0  0.40269  0.99436  0.09370  1.0000
  C   C230      1.0  0.47168  0.99770  0.19018  1.0000
  C   C231      1.0  0.38463  0.87766  0.03980  1.0000
  H   H229      1.0  0.02681  0.53210  0.08069  1.0000
  H   H230      1.0  0.03505  0.61729  0.30437  1.0000
  C   C232      1.0  0.45923  0.52787  0.10244  1.0000
  H   H231      1.0  0.40786  0.73957  0.17505  1.0000
  N   N20       1.0  0.39456  0.90804  0.28488  1.0000
  C   C233      1.0  0.40848  0.91918  0.26247  1.0000
  C   C234      1.0  0.36659  0.90095  0.28282  1.0000
  C   C235      1.0  0.39459  0.92267  0.23695  1.0000
  C   C236      1.0  0.35215  0.90392  0.25752  1.0000
  C   C237      1.0  0.36632  0.91469  0.23444  1.0000
  C   C238      1.0  0.40954  0.90456  0.31145  1.0000
  H   H232      1.0  0.43057  0.92515  0.26406  1.0000
  C   C239      1.0  0.01324  0.58008  0.02509  1.0000
  S   S81       1.0  0.37763  0.83021  0.33791  1.0000
  C   C240      1.0  0.45921  0.78227  0.20129  1.0000
  C   C241      1.0  0.02248  0.52015  0.09952  1.0000
  C   C242      1.0  0.11258  0.63922  0.27031  1.0000
  C   C243      1.0  0.44915  0.72581  0.18881  1.0000
  C   C244      1.0  0.46863  0.52362  0.18267  1.0000
  H   H233      1.0  0.41688  0.79020  0.18658  1.0000
  H   H234      1.0  0.48476  0.53931  0.18678  1.0000
  H   H235      1.0  0.46169  0.67103  0.04663  1.0000
  H   H236      1.0  0.00056  0.76017  0.12989  1.0000
  H   H237      1.0  0.47776  0.95448  0.12478  1.0000
  C   C245      1.0  0.12776  0.68807  0.26988  1.0000
  H   H238      1.0  0.16069  0.71426  0.31608  1.0000
  C   C246      1.0  0.48002  0.76167  0.20559  1.0000
  C   C247      1.0  0.43294  0.77427  0.19064  1.0000
  H   H239      1.0  0.03184  0.52338  0.16957  1.0000
  C   C248      1.0  0.12280  0.66400  0.31304  1.0000
  C   C249      1.0  0.13742  0.71391  0.31312  1.0000
  H   H240      1.0  0.12721  0.71522  0.33383  1.0000
  C   C250      1.0  0.43908  0.97132  0.10825  1.0000
  H   H241      1.0  0.42845  0.95092  0.10779  1.0000
  H   H242      1.0  0.04070  0.66465  0.08193  1.0000
  H   H243      1.0  0.46878  0.69306  0.01658  1.0000
  H   H244      1.0  0.10494  0.62057  0.25943  1.0000
  H   H245      1.0  0.49661  0.55220  0.11099  1.0000
  C   C251      1.0  0.42116  0.51170  0.16796  1.0000
  N   N21       1.0  0.48013  0.99936  0.11898  1.0000
  H   H246      1.0  0.01304  0.74208  0.20320  1.0000
  H   H247      1.0  0.49227  0.99218  0.19841  1.0000
  H   H248      1.0  0.47598  0.67261  0.34824  1.0000
  H   H249      1.0  0.48803  0.69306  0.21400  1.0000
  Fe  Fe40      1.0  0.25298  0.90056  0.64227  1.0000
  S   S82       1.0  0.29619  0.88365  0.65331  1.0000
  S   S83       1.0  0.25389  0.94864  0.63970  1.0000
  Fe  Fe41      1.0  0.22769  0.84062  0.64152  1.0000
  S   S84       1.0  0.26899  0.82077  0.65257  1.0000
  S   S85       1.0  0.14021  0.76736  0.36704  1.0000
  C   C252      1.0  0.17602  0.75767  0.36739  1.0000
  Fe  Fe42      1.0  0.28691  0.85051  0.62079  1.0000
  S   S86       1.0  0.31775  0.83241  0.58942  1.0000
  H   H250      1.0  0.00597  0.76946  0.49353  1.0000
  S   S87       1.0  0.24533  0.86901  0.60795  1.0000
  Fe  Fe43      1.0  0.18017  0.58862  0.64267  1.0000
  S   S88       1.0  0.13393  0.57930  0.64270  1.0000
  S   S89       1.0  0.21388  0.55723  0.63005  1.0000
  H   H251      1.0  0.30356  0.93043  0.61212  1.0000
  H   H252      1.0  0.20888  0.75028  0.58481  1.0000
  H   H253      1.0  0.05259  0.75107  0.47781  1.0000
  S   S90       1.0  0.06477  0.73357  0.36875  1.0000
  Fe  Fe44      1.0  0.12848  0.62337  0.62556  1.0000
  S   S91       1.0  0.09676  0.62928  0.59013  1.0000
  H   H254      1.0  0.21894  0.70015  0.37321  1.0000
  S   S92       1.0  0.17512  0.63134  0.62223  1.0000
  Fe  Fe45      1.0  0.31966  0.80788  0.42591  1.0000
  S   S93       1.0  0.31567  0.76060  0.42726  1.0000
  S   S94       1.0  0.29647  0.83389  0.45853  1.0000
  H   H255      1.0  0.27919  0.93740  0.52632  1.0000
  H   H256      1.0  0.29213  0.77679  0.60644  1.0000
  Fe  Fe46      1.0  0.30286  0.76423  0.38250  1.0000
  H   H257      1.0  0.48986  0.70124  0.42700  1.0000
  Fe  Fe47      1.0  0.35996  0.75974  0.41135  1.0000
  S   S95       1.0  0.38954  0.72433  0.42322  1.0000
  S   S96       1.0  0.30408  0.81187  0.38146  1.0000
  S   S97       1.0  0.36557  0.80695  0.41367  1.0000
  Fe  Fe48      1.0  0.06918  0.68734  0.37867  1.0000
  C   C253      1.0  0.18409  0.72941  0.37090  1.0000
  Fe  Fe49      1.0  0.09729  0.69813  0.43552  1.0000
  S   S98       1.0  0.09457  0.74516  0.42930  1.0000
  S   S99       1.0  0.12470  0.68608  0.47278  1.0000
  Fe  Fe50      1.0  0.05090  0.73733  0.41309  1.0000
  S   S100      1.0  0.01838  0.76959  0.42575  1.0000
  Fe  Fe51      1.0  0.10878  0.73716  0.38588  1.0000
  H   H258      1.0  0.24145  0.78759  0.36165  1.0000
  S   S101      1.0  0.05206  0.69059  0.42250  1.0000
  S   S102      1.0  0.11454  0.69056  0.39258  1.0000
  C   C254      1.0  0.30637  0.92452  0.59052  1.0000
  Fe  Fe52      1.0  0.34978  0.80684  0.36915  1.0000
  C   C255      1.0  0.23354  0.74306  0.36775  1.0000
  H   H259      1.0  0.13854  0.98780  0.66174  1.0000
  C   C256      1.0  0.17908  0.56794  0.56837  1.0000
  H   H260      1.0  0.11623  0.51598  0.57014  1.0000
  H   H261      1.0  0.20493  0.53070  0.56802  1.0000
  H   H262      1.0  0.05449  0.73554  0.51232  1.0000
  H   H263      1.0  0.19694  0.58236  0.56872  1.0000
  C   C257      1.0  0.22906  0.74615  0.59479  1.0000
  C   C258      1.0  0.42512  0.73258  0.42945  1.0000
  C   C259      1.0  0.43343  0.75994  0.43701  1.0000
  C   C260      1.0  0.46212  0.76599  0.44146  1.0000
  H   H264      1.0  0.27204  0.95047  0.57585  1.0000
  C   C261      1.0  0.47425  0.71763  0.42988  1.0000
  C   C262      1.0  0.44552  0.71138  0.42621  1.0000
  H   H265      1.0  0.41775  0.77631  0.43980  1.0000
  H   H266      1.0  0.46850  0.78709  0.44767  1.0000
  H   H267      1.0  0.16182  0.52673  0.64086  1.0000
  H   H268      1.0  0.43911  0.69017  0.42041  1.0000
  C   C263      1.0  0.10444  0.64610  0.55794  1.0000
  C   C264      1.0  0.13112  0.65742  0.55240  1.0000
  C   C265      1.0  0.13679  0.66968  0.52627  1.0000
  C   C266      1.0  0.11584  0.67103  0.50546  1.0000
  C   C267      1.0  0.08903  0.66001  0.51105  1.0000
  C   C268      1.0  0.08341  0.64756  0.53717  1.0000
  H   H269      1.0  0.14743  0.65669  0.56820  1.0000
  H   H270      1.0  0.15758  0.67816  0.52214  1.0000
  H   H271      1.0  0.07289  0.66050  0.49508  1.0000
  H   H272      1.0  0.06275  0.63873  0.54124  1.0000
  C   C269      1.0  0.31032  0.83079  0.55324  1.0000
  C   C270      1.0  0.28616  0.84331  0.54176  1.0000
  C   C271      1.0  0.28172  0.84308  0.51279  1.0000
  C   C272      1.0  0.30140  0.83044  0.49493  1.0000
  C   C273      1.0  0.32527  0.81738  0.50641  1.0000
  C   C274      1.0  0.32973  0.81765  0.53544  1.0000
  H   H273      1.0  0.27119  0.85380  0.55506  1.0000
  H   H274      1.0  0.26325  0.85335  0.50408  1.0000
  H   H275      1.0  0.34068  0.80771  0.49288  1.0000
  H   H276      1.0  0.34855  0.80797  0.54408  1.0000
  C   C275      1.0  0.19264  0.77592  0.64635  1.0000
  C   C276      1.0  0.12889  0.55969  0.56975  1.0000
  C   C277      1.0  0.21276  0.72209  0.37062  1.0000
  C   C278      1.0  0.48335  0.71691  0.35609  1.0000
  H   H277      1.0  0.22320  0.80026  0.58168  1.0000
  C   C279      1.0  0.18344  0.53863  0.56809  1.0000
  C   C280      1.0  0.04764  0.73194  0.49048  1.0000
  H   H278      1.0  0.23016  0.78249  0.67088  1.0000
  C   C281      1.0  0.31848  0.90316  0.50566  1.0000
  H   H279      1.0  0.19057  0.80048  0.36084  1.0000
  C   C282      1.0  0.22528  0.97169  0.63303  1.0000
  C   C283      1.0  0.19977  0.96195  0.62189  1.0000
  H   H280      1.0  0.33101  0.88341  0.50313  1.0000
  C   C284      1.0  0.20578  0.52080  0.63174  1.0000
  H   H281      1.0  0.06033  0.71419  0.48193  1.0000
  H   H282      1.0  0.48428  0.76146  0.36491  1.0000
  H   H283      1.0  0.19706  0.93966  0.61736  1.0000
  C   C285      1.0  0.15162  0.57846  0.56911  1.0000
  H   H284      1.0  0.15826  0.97365  0.60715  1.0000
  N   N22       1.0  0.31378  0.90975  0.53508  1.0000
  C   C286      1.0  0.32749  0.90547  0.58314  1.0000
  H   H285      1.0  0.15463  0.76250  0.62525  1.0000
  H   H286      1.0  0.25034  0.79011  0.55705  1.0000
  N   N23       1.0  0.16105  0.52030  0.56897  1.0000
  Fe  Fe53      1.0  0.17107  0.64804  0.66577  1.0000
  C   C287      1.0  0.28875  0.93589  0.57003  1.0000
  S   S103      1.0  0.19051  0.81119  0.63388  1.0000
  C   C288      1.0  0.27535  0.76108  0.60718  1.0000
  C   C289      1.0  0.17787  0.98125  0.61606  1.0000
  C   C290      1.0  0.27995  0.73569  0.62166  1.0000
  C   C291      1.0  0.23309  0.72038  0.60875  1.0000
  C   C292      1.0  0.25857  0.71531  0.62255  1.0000
  H   H287      1.0  0.40971  0.77112  0.38049  1.0000
  N   N24       1.0  0.24992  0.76624  0.59450  1.0000
  H   H288      1.0  0.29989  0.73196  0.63224  1.0000
  H   H289      1.0  0.21622  0.70479  0.60965  1.0000
  H   H290      1.0  0.26152  0.69575  0.63417  1.0000
  N   N25       1.0  0.22259  0.75982  0.43452  1.0000
  C   C293      1.0  0.19388  0.76081  0.43747  1.0000
  C   C294      1.0  0.23655  0.73450  0.43629  1.0000
  C   C295      1.0  0.17842  0.73596  0.44210  1.0000
  C   C296      1.0  0.22171  0.70923  0.44067  1.0000
  C   C297      1.0  0.19245  0.71004  0.44364  1.0000
  C   C298      1.0  0.23870  0.78607  0.43052  1.0000
  H   H291      1.0  0.18269  0.78079  0.43572  1.0000
  H   H292      1.0  0.25922  0.73361  0.43342  1.0000
  H   H293      1.0  0.15565  0.73668  0.44416  1.0000
  H   H294      1.0  0.23283  0.68916  0.44128  1.0000
  H   H295      1.0  0.18056  0.69061  0.44689  1.0000
  H   H296      1.0  0.24745  0.79356  0.45071  1.0000
  H   H297      1.0  0.25648  0.78258  0.41597  1.0000
  H   H298      1.0  0.22548  0.80309  0.42116  1.0000
  C   C299      1.0  0.17837  0.51155  0.63727  1.0000
  H   H299      1.0  0.15669  0.71294  0.64323  1.0000
  C   C300      1.0  0.24537  0.79290  0.57943  1.0000
  C   C301      1.0  0.29285  0.92832  0.54219  1.0000
  C   C302      1.0  0.21453  0.76744  0.66411  1.0000
  C   C303      1.0  0.22859  0.00075  0.63860  1.0000
  C   C304      1.0  0.17177  0.75612  0.63885  1.0000
  S   S104      1.0  0.34696  0.75951  0.36656  1.0000
  C   C305      1.0  0.13401  0.53046  0.56959  1.0000
  S   S105      1.0  0.12383  0.64252  0.66841  1.0000
  N   N26       1.0  0.01727  0.72592  0.48946  1.0000
  H   H300      1.0  0.02267  0.68125  0.48498  1.0000
  C   C306      1.0  0.17290  0.72805  0.64900  1.0000
  H   H301      1.0  0.10749  0.56791  0.57068  1.0000
  C   C307      1.0  0.33105  0.89840  0.55514  1.0000
  H   H302      1.0  0.34077  0.89585  0.59904  1.0000
  H   H303      1.0  0.24833  0.50772  0.62267  1.0000
  H   H304      1.0  0.25903  0.80999  0.58785  1.0000
  C   C308      1.0  0.42913  0.77332  0.36782  1.0000
  C   C309      1.0  0.19483  0.71978  0.66688  1.0000
  S   S106      1.0  0.23058  0.87431  0.67445  1.0000
  C   C310      1.0  0.19675  0.77860  0.36383  1.0000
  C   C311      1.0  0.48255  0.74492  0.43769  1.0000
  H   H305      1.0  0.29809  0.89956  0.49462  1.0000
  H   H306      1.0  0.32994  0.92085  0.49543  1.0000
  H   H307      1.0  0.16833  0.71313  0.37358  1.0000
  H   H308      1.0  0.34737  0.88332  0.54970  1.0000
  C   C312      1.0  0.43708  0.69573  0.35377  1.0000
  H   H309      1.0  0.40244  0.72415  0.36053  1.0000
  H   H310      1.0  0.14794  0.60113  0.56953  1.0000
  C   C313      1.0  0.21562  0.73956  0.67429  1.0000
  C   C314      1.0  0.22552  0.77136  0.36428  1.0000
  S   S107      1.0  0.26918  0.73303  0.36944  1.0000
  C   C315      1.0  0.42521  0.72232  0.35901  1.0000
  C   C316      1.0  0.14553  0.00080  0.67904  1.0000
  C   C317      1.0  0.47082  0.74315  0.36154  1.0000
  N   N27       1.0  0.44208  0.74555  0.36306  1.0000
  C   C318      1.0  0.00782  0.69861  0.48692  1.0000
  H   H311      1.0  0.44353  0.78759  0.37960  1.0000
  H   H312      1.0  0.18578  0.97954  0.68243  1.0000
  S   S108      1.0  0.19714  0.68534  0.68098  1.0000
  C   C319      1.0  0.46636  0.69308  0.35226  1.0000
  H   H313      1.0  0.42365  0.67729  0.35118  1.0000
  S   S109      1.0  0.28003  0.84500  0.72945  1.0000
  S   S110      1.0  0.11338  0.57025  0.71815  1.0000
  Fe  Fe54      1.0  0.34683  0.92052  0.86074  1.0000
  S   S111      1.0  0.33099  0.96490  0.86614  1.0000
  S   S112      1.0  0.35907  0.90934  0.81646  1.0000
  Fe  Fe55      1.0  0.34798  0.91048  0.92459  1.0000
  S   S113      1.0  0.33138  0.95396  0.93372  1.0000
  S   S114      1.0  0.36105  0.87920  0.95824  1.0000
  Fe  Fe56      1.0  0.30164  0.94605  0.89779  1.0000
  H   H314      1.0  0.14297  0.52089  0.86220  1.0000
  Fe  Fe57      1.0  0.36256  0.96793  0.90105  1.0000
  C   C320      1.0  0.43726  0.97678  0.88472  1.0000
  S   S115      1.0  0.31619  0.90119  0.89070  1.0000
  S   S116      1.0  0.38035  0.92474  0.89381  1.0000
  Fe  Fe58      1.0  0.07868  0.55912  0.87821  1.0000
  S   S117      1.0  0.08134  0.51258  0.87012  1.0000
  S   S118      1.0  0.09428  0.59202  0.84715  1.0000
  Fe  Fe59      1.0  0.05128  0.55057  0.93567  1.0000
  H   H315      1.0  0.04210  0.61928  0.80148  1.0000
  S   S119      1.0  0.02393  0.56914  0.97009  1.0000
  H   H316      1.0  0.16767  0.53769  0.70979  1.0000
  H   H317      1.0  0.47861  0.53264  0.87798  1.0000
  C   C321      1.0  0.21099  0.54142  0.87206  1.0000
  C   C322      1.0  0.46541  0.97423  0.87639  1.0000
  S   S120      1.0  0.09652  0.55664  0.92190  1.0000
  S   S121      1.0  0.03347  0.55712  0.89243  1.0000
  C   C323      1.0  0.46332  0.51573  0.87587  1.0000
  C   C324      1.0  0.29349  0.90276  0.00621  1.0000
  C   C325      1.0  0.17227  0.99604  0.69067  1.0000
  H   H318      1.0  0.02591  0.52819  0.83583  1.0000
  C   C326      1.0  0.20707  0.81524  0.72333  1.0000
  C   C327      1.0  0.36915  0.89013  0.99262  1.0000
  H   H319      1.0  0.04505  0.56546  0.72962  1.0000
  C   C328      1.0  0.27398  0.89793  0.95191  1.0000
  C   C329      1.0  0.18218  0.81796  0.70775  1.0000
  H   H320      1.0  0.35430  0.93290  0.98745  1.0000
  H   H321      1.0  0.02859  0.57815  0.83025  1.0000
  C   C330      1.0  0.42629  0.51689  0.94661  1.0000
  C   C331      1.0  0.39866  0.97869  0.82146  1.0000
  C   C332      1.0  0.04046  0.56850  0.75153  1.0000
  C   C333      1.0  0.23557  0.98956  0.93044  1.0000
  C   C334      1.0  0.45119  0.53256  0.94913  1.0000
  C   C335      1.0  0.44740  0.98456  0.81163  1.0000
  N   N28       1.0  0.42360  0.96806  0.81183  1.0000
  H   H322      1.0  0.20945  0.53744  0.94334  1.0000
  S   S122      1.0  0.03343  0.97949  0.89176  1.0000
  Fe  Fe60      1.0  0.03787  0.51013  0.88796  1.0000
  C   C336      1.0  0.43440  0.52154  0.87834  1.0000
  H   H323      1.0  0.24653  0.51324  0.87205  1.0000
  H   H324      1.0  0.15832  0.52764  0.93613  1.0000
  C   C337      1.0  0.47348  0.96462  0.94719  1.0000
  H   H325      1.0  0.20159  0.74703  0.74303  1.0000
  H   H326      1.0  0.42751  0.54299  0.88238  1.0000
  C   C338      1.0  0.19594  0.76729  0.73384  1.0000
  H   H327      1.0  0.38516  0.84911  0.00477  1.0000
  C   C339      1.0  0.36297  0.91751  0.00179  1.0000
  C   C340      1.0  0.11241  0.57603  0.75457  1.0000
  C   C341      1.0  0.11637  0.60293  0.76611  1.0000
  C   C342      1.0  0.11177  0.60726  0.79474  1.0000
  C   C343      1.0  0.10334  0.58478  0.81212  1.0000
  C   C344      1.0  0.10052  0.55764  0.80077  1.0000
  C   C345      1.0  0.10498  0.55334  0.77213  1.0000
  H   H328      1.0  0.12204  0.62058  0.75283  1.0000
  H   H329      1.0  0.11408  0.62831  0.80334  1.0000
  H   H330      1.0  0.09410  0.54014  0.81384  1.0000
  H   H331      1.0  0.10188  0.53246  0.76339  1.0000
  C   C346      1.0  0.30058  0.86533  0.75308  1.0000
  C   C347      1.0  0.29531  0.86291  0.78175  1.0000
  C   C348      1.0  0.31231  0.87725  0.80135  1.0000
  C   C349      1.0  0.33528  0.89351  0.79245  1.0000
  C   C350      1.0  0.34046  0.89606  0.76377  1.0000
  C   C351      1.0  0.32296  0.88236  0.74413  1.0000
  H   H332      1.0  0.27815  0.84970  0.78891  1.0000
  H   H333      1.0  0.30822  0.87496  0.82335  1.0000
  H   H334      1.0  0.35823  0.90847  0.75668  1.0000
  H   H335      1.0  0.32738  0.88421  0.72215  1.0000
  H   H336      1.0  0.19541  0.95539  0.88219  1.0000
  C   C352      1.0  0.24056  0.78750  0.75111  1.0000
  H   H337      1.0  0.42116  0.92411  0.82082  1.0000
  C   C353      1.0  0.17979  0.98693  0.91048  1.0000
  H   H338      1.0  0.44531  0.93297  0.79324  1.0000
  C   C354      1.0  0.18174  0.54367  0.86925  1.0000
  H   H339      1.0  0.47252  0.95476  0.86685  1.0000
  H   H340      1.0  0.49658  0.53103  0.94836  1.0000
  H   H341      1.0  0.03101  0.52464  0.75906  1.0000
  H   H342      1.0  0.24078  0.76902  0.76548  1.0000
  C   C355      1.0  0.03879  0.59878  0.79181  1.0000
  H   H343      1.0  0.05052  0.61303  0.75078  1.0000
  H   H344      1.0  0.14513  0.79640  0.69250  1.0000
  H   H345      1.0  0.15732  0.75087  0.71594  1.0000
  C   C356      1.0  0.49590  0.98397  0.94821  1.0000
  C   C357      1.0  0.48426  0.99683  0.87973  1.0000
  H   H346      1.0  0.22364  0.55998  0.87683  1.0000
  H   H347      1.0  0.47702  0.94387  0.93821  1.0000
  N   N29       1.0  0.44729  0.97206  0.95657  1.0000
  C   C358      1.0  0.03135  0.57530  0.80804  1.0000
  C   C359      1.0  0.21116  0.52724  0.70165  1.0000
  C   C360      1.0  0.22383  0.51488  0.86933  1.0000
  Fe  Fe61      1.0  0.13373  0.59885  0.68539  1.0000
  H   H348      1.0  0.17755  0.83755  0.69674  1.0000
  C   C361      1.0  0.42408  0.95143  0.95580  1.0000
  C   C362      1.0  0.28012  0.92587  0.99344  1.0000
  H   H349      1.0  0.22140  0.83316  0.72466  1.0000
  C   C363      1.0  0.17355  0.51068  0.93443  1.0000
  C   C364      1.0  0.17076  0.76933  0.71858  1.0000
  H   H350      1.0  0.25802  0.78520  0.73592  1.0000
  C   C365      1.0  0.03291  0.54547  0.76836  1.0000
  H   H351      1.0  0.01475  0.63936  0.98545  1.0000
  N   N30       1.0  0.02887  0.54900  0.79631  1.0000
  H   H352      1.0  0.24486  0.80679  0.76373  1.0000
  S   S123      1.0  0.25423  0.94974  0.89232  1.0000
  H   H353      1.0  0.07870  0.56901  0.99867  1.0000
  C   C366      1.0  0.22878  0.97111  0.90868  1.0000
  H   H354      1.0  0.37992  0.96545  0.82201  1.0000
  S   S124      1.0  0.25849  0.50213  0.93899  1.0000
  H   H355      1.0  0.25963  0.94090  0.95599  1.0000
  H   H356      1.0  0.45048  0.55530  0.95239  1.0000
  C   C367      1.0  0.20245  0.51616  0.93854  1.0000
  N   N31       1.0  0.21360  0.79017  0.73621  1.0000
  H   H357      1.0  0.26648  0.89597  0.93060  1.0000
  C   C368      1.0  0.28767  0.87532  0.96521  1.0000
  C   C369      1.0  0.42474  0.93844  0.80275  1.0000
  C   C370      1.0  0.04893  0.64684  0.01423  1.0000
  H   H358      1.0  0.29101  0.85580  0.95383  1.0000
  N   N32       1.0  0.29709  0.87789  0.99206  1.0000
  H   H359      1.0  0.15838  0.98583  0.90262  1.0000
  C   C371      1.0  0.16393  0.79485  0.70543  1.0000
  C   C372      1.0  0.47715  0.51894  0.94675  1.0000
  S   S125      1.0  0.37885  0.50737  0.88335  1.0000
  H   H360      1.0  0.42302  0.95949  0.88110  1.0000
  H   H361      1.0  0.40788  0.93422  0.78708  1.0000
  H   H362      1.0  0.49248  0.59851  0.00485  1.0000
  H   H363      1.0  0.21784  0.54919  0.69980  1.0000
  H   H364      1.0  0.42245  0.94024  0.97611  1.0000
  H   H365      1.0  0.27749  0.94564  0.00460  1.0000
  S   S126      1.0  0.18051  0.60586  0.68595  1.0000
  H   H366      1.0  0.40593  0.52734  0.94742  1.0000
  C   C373      1.0  0.20081  0.96968  0.89898  1.0000
  C   C374      1.0  0.18297  0.52079  0.70709  1.0000
  H   H367      1.0  0.40365  0.96210  0.95119  1.0000
  H   H368      1.0  0.17137  0.56404  0.87165  1.0000
  C   C375      1.0  0.16574  0.51946  0.86382  1.0000
  H   H369      1.0  0.46745  0.97597  0.80491  1.0000
  C   C376      1.0  0.04353  0.59527  0.76341  1.0000
  H   H370      1.0  0.42718  0.93545  0.93914  1.0000
  Fe  Fe62      1.0  0.09626  0.50950  0.91437  1.0000
  C   C377      1.0  0.27016  0.92328  0.96619  1.0000
  C   C378      1.0  0.30971  0.85330  0.00609  1.0000
  H   H371      1.0  0.25710  0.99098  0.93793  1.0000
  C   C379      1.0  0.23048  0.50522  0.69762  1.0000
  H   H372      1.0  0.06515  0.64068  0.99959  1.0000
  H   H373      1.0  0.32452  0.84222  0.99193  1.0000
  H   H374      1.0  0.23257  0.73334  0.68820  1.0000
  C   C380      1.0  0.44283  0.99837  0.96761  1.0000
  C   C381      1.0  0.03411  0.57390  0.00532  1.0000
  C   C382      1.0  0.02057  0.64616  0.00628  1.0000
  C   C383      1.0  0.06243  0.57374  0.01365  1.0000
  H   H375      1.0  0.25224  0.51050  0.69298  1.0000
  C   C384      1.0  0.02105  0.52452  0.81351  1.0000
  H   H376      1.0  0.29295  0.83832  0.01272  1.0000
  C   C385      1.0  0.38027  0.87035  0.01167  1.0000
  H   H377      1.0  0.01066  0.99034  0.96198  1.0000
  S   S127      1.0  0.05276  0.50321  0.93161  1.0000
  H   H378      1.0  0.03308  0.50532  0.80743  1.0000
  Fe  Fe63      1.0  0.27332  0.85594  0.68379  1.0000
  H   H379      1.0  0.95846  0.17368  0.30566  1.0000
  S   S128      1.0  0.53168  0.16584  0.32776  1.0000
  Fe  Fe64      1.0  0.51526  0.09857  0.11129  1.0000
  H   H380      1.0  0.53137  0.20789  0.10400  1.0000
  S   S129      1.0  0.53489  0.06681  0.08138  1.0000
  Fe  Fe65      1.0  0.51892  0.13285  0.16617  1.0000
  C   C386      1.0  0.52612  0.25216  0.11360  1.0000
  S   S130      1.0  0.54957  0.15402  0.19652  1.0000
  C   C387      1.0  0.94200  0.31634  0.33944  1.0000
  S   S131      1.0  0.92687  0.06094  0.15289  1.0000
  H   H381      1.0  0.87666  0.22752  0.15298  1.0000
  S   S132      1.0  0.94023  0.18908  0.10017  1.0000
  S   S133      1.0  0.51318  0.08633  0.15664  1.0000
  S   S134      1.0  0.52549  0.14410  0.12088  1.0000
  Fe  Fe66      1.0  0.86861  0.36577  0.10845  1.0000
  S   S135      1.0  0.91319  0.38057  0.10400  1.0000
  S   S136      1.0  0.83774  0.36534  0.07191  1.0000
  Fe  Fe67      1.0  0.87571  0.35750  0.17257  1.0000
  S   S137      1.0  0.92020  0.37438  0.17155  1.0000
  S   S138      1.0  0.85967  0.33051  0.20888  1.0000
  Fe  Fe68      1.0  0.90372  0.40730  0.14137  1.0000
  S   S139      1.0  0.91210  0.45307  0.12938  1.0000
  Fe  Fe69      1.0  0.92466  0.34620  0.13424  1.0000
  S   S140      1.0  0.96252  0.31714  0.13386  1.0000
  S   S141      1.0  0.85853  0.39289  0.14544  1.0000
  S   S142      1.0  0.88082  0.32882  0.13556  1.0000
  C   C388      1.0  0.94735  0.22472  0.10872  1.0000
  C   C389      1.0  0.97188  0.23242  0.12318  1.0000
  H   H382      1.0  0.52987  0.21563  0.20488  1.0000
  C   C390      1.0  0.95664  0.28180  0.12346  1.0000
  C   C391      1.0  0.93222  0.27409  0.10886  1.0000
  C   C392      1.0  0.92773  0.24568  0.10130  1.0000
  H   H383      1.0  0.88065  0.44527  0.07120  1.0000
  H   H384      1.0  0.97276  0.08092  0.25195  1.0000
  H   H385      1.0  0.91696  0.29007  0.10298  1.0000
  N   N33       1.0  0.92516  0.26738  0.18695  1.0000
  C   C393      1.0  0.93594  0.02601  0.16260  1.0000
  H   H386      1.0  0.90880  0.23990  0.08994  1.0000
  C   C394      1.0  0.93877  0.47423  0.17641  1.0000
  C   C395      1.0  0.92949  0.47921  0.14918  1.0000
  H   H387      1.0  0.77911  0.27608  0.24722  1.0000
  N   N34       1.0  0.98782  0.11707  0.27370  1.0000
  S   S143      1.0  0.96786  0.11088  0.10404  1.0000
  H   H388      1.0  0.93452  0.45405  0.18631  1.0000
  H   H389      1.0  0.77504  0.34711  0.32241  1.0000
  C   C396      1.0  0.97194  0.15540  0.30250  1.0000
  H   H390      1.0  0.54526  0.19490  0.15218  1.0000
  C   C397      1.0  0.53932  0.07468  0.04561  1.0000
  C   C398      1.0  0.97662  0.26093  0.13030  1.0000
  H   H391      1.0  0.53003  0.11915  0.04918  1.0000
  H   H392      1.0  0.76883  0.43126  0.04554  1.0000
  C   C399      1.0  0.82606  0.38326  0.01844  1.0000
  C   C400      1.0  0.84681  0.38049  0.03932  1.0000
  H   H393      1.0  0.97974  0.44472  0.14044  1.0000
  H   H394      1.0  0.89015  0.38887  0.04995  1.0000
  C   C401      1.0  0.96348  0.01882  0.17048  1.0000
  C   C402      1.0  0.53713  0.16324  0.29127  1.0000
  C   C403      1.0  0.51677  0.14917  0.27492  1.0000
  C   C404      1.0  0.52020  0.14625  0.24594  1.0000
  C   C405      1.0  0.54418  0.15727  0.23297  1.0000
  C   C406      1.0  0.56445  0.17157  0.24925  1.0000
  C   C407      1.0  0.56094  0.17462  0.27824  1.0000
  C   C408      1.0  0.77750  0.29164  0.26368  1.0000
  C   C409      1.0  0.87387  0.39113  0.03434  1.0000
  H   H395      1.0  0.58316  0.18005  0.23949  1.0000
  H   H396      1.0  0.57682  0.18540  0.29055  1.0000
  C   C410      1.0  0.84785  0.35319  0.30112  1.0000
  C   C411      1.0  0.84830  0.32490  0.29250  1.0000
  C   C412      1.0  0.85281  0.31834  0.26429  1.0000
  C   C413      1.0  0.85712  0.33991  0.24447  1.0000
  C   C414      1.0  0.85760  0.36812  0.25326  1.0000
  C   C415      1.0  0.85294  0.37469  0.28145  1.0000
  H   H397      1.0  0.84444  0.30813  0.30739  1.0000
  H   H398      1.0  0.85237  0.29644  0.25767  1.0000
  H   H399      1.0  0.86083  0.38493  0.23823  1.0000
  H   H400      1.0  0.85274  0.39665  0.28794  1.0000
  S   S144      1.0  0.83993  0.36270  0.33586  1.0000
  C   C416      1.0  0.61683  0.05286  0.03203  1.0000
  H   H401      1.0  0.95783  0.20358  0.18584  1.0000
  H   H402      1.0  0.97765  0.04894  0.11677  1.0000
  C   C417      1.0  0.54045  0.21683  0.14724  1.0000
  C   C418      1.0  0.94137  0.21932  0.18275  1.0000
  N   N35       1.0  0.96544  0.00858  0.10152  1.0000
  C   C419      1.0  0.78382  0.32000  0.25767  1.0000
  C   C420      1.0  0.99168  0.14788  0.32283  1.0000
  C   C421      1.0  0.76367  0.25388  0.29639  1.0000
  H   H403      1.0  0.54972  0.03157  0.03509  1.0000
  H   H404      1.0  0.76332  0.29664  0.33182  1.0000
  H   H405      1.0  0.74423  0.25211  0.30918  1.0000
  C   C422      1.0  0.61444  0.10325  0.01943  1.0000
  H   H406      1.0  0.97535  0.11269  0.23101  1.0000
  H   H407      1.0  0.91360  0.19096  0.16048  1.0000
  C   C423      1.0  0.53443  0.26454  0.16165  1.0000
  S   S145      1.0  0.95240  0.13894  0.16371  1.0000
  C   C424      1.0  0.91651  0.21218  0.16869  1.0000
  H   H408      1.0  0.98207  0.27610  0.34389  1.0000
  H   H409      1.0  0.85737  0.42254  0.08965  1.0000
  C   C425      1.0  0.53642  0.10229  0.03536  1.0000
  H   H410      1.0  0.78143  0.24454  0.30855  1.0000
  C   C426      1.0  0.54764  0.22830  0.19631  1.0000
  C   C427      1.0  0.54749  0.05300  0.02733  1.0000
  H   H411      1.0  0.93218  0.03686  0.09024  1.0000
  C   C428      1.0  0.77512  0.33171  0.30566  1.0000
  Fe  Fe70      1.0  0.95976  0.09520  0.14737  1.0000
  H   H412      1.0  0.94962  0.31146  0.31878  1.0000
  C   C429      1.0  0.93836  0.01497  0.09370  1.0000
  H   H413      1.0  0.98668  0.16627  0.06510  1.0000
  C   C430      1.0  0.53291  0.22409  0.11994  1.0000
  H   H414      1.0  0.99168  0.03998  0.08304  1.0000
  H   H415      1.0  0.55154  0.24671  0.21015  1.0000
  H   H416      1.0  0.98714  0.21646  0.12905  1.0000
  C   C431      1.0  0.90036  0.26035  0.17397  1.0000
  H   H417      1.0  0.92150  0.29874  0.21829  1.0000
  H   H418      1.0  0.95523  0.14595  0.26193  1.0000
  H   H419      1.0  0.80616  0.42485  0.08128  1.0000
  H   H420      1.0  0.86454  0.46986  0.03066  1.0000
  H   H421      1.0  0.91826  0.31182  0.18325  1.0000
  C   C432      1.0  0.62195  0.02442  0.02549  1.0000
  H   H422      1.0  0.56686  0.21477  0.19684  1.0000
  N   N36       1.0  0.83732  0.44737  0.05821  1.0000
  C   C433      1.0  0.81078  0.43683  0.06252  1.0000
  H   H423      1.0  0.76023  0.24106  0.27732  1.0000
  H   H424      1.0  0.79062  0.32623  0.23698  1.0000
  C   C434      1.0  0.76878  0.30321  0.31090  1.0000
  H   H425      1.0  0.61974  0.00808  0.04126  1.0000
  C   C435      1.0  0.85899  0.44382  0.07983  1.0000
  C   C436      1.0  0.98832  0.45168  0.12003  1.0000
  H   H426      1.0  0.95225  0.30244  0.19588  1.0000
  N   N37       1.0  0.76975  0.28367  0.28998  1.0000
  C   C437      1.0  0.92957  0.29643  0.19679  1.0000
  C   C438      1.0  0.84343  0.46183  0.03425  1.0000
  C   C439      1.0  0.78250  0.34013  0.27883  1.0000
  C   C440      1.0  0.98628  0.03149  0.10394  1.0000
  C   C441      1.0  0.94539  0.24723  0.19175  1.0000
  C   C442      1.0  0.91525  0.00474  0.16113  1.0000
  H   H427      1.0  0.53391  0.28040  0.17793  1.0000
  Fe  Fe71      1.0  0.96513  0.15470  0.12180  1.0000
  H   H428      1.0  0.51923  0.25785  0.09275  1.0000
  H   H429      1.0  0.88416  0.27626  0.17059  1.0000
  H   H430      1.0  0.89387  0.01019  0.15517  1.0000
  C   C443      1.0  0.95353  0.49555  0.19089  1.0000
  C   C444      1.0  0.89581  0.23275  0.16433  1.0000
  H   H431      1.0  0.59874  0.10514  0.03644  1.0000
  H   H432      1.0  0.78825  0.36203  0.27469  1.0000
  N   N38       1.0  0.54111  0.23695  0.16766  1.0000
  C   C445      1.0  0.52706  0.27260  0.13451  1.0000
  H   H433      1.0  0.96508  0.25279  0.20198  1.0000
  H   H434      1.0  0.54358  0.49327  0.13145  1.0000
  C   C446      1.0  0.97022  0.13963  0.27791  1.0000
  H   H435      1.0  0.52074  0.29427  0.13006  1.0000
  H   H436      1.0  0.97953  0.03506  0.17192  1.0000
  C   C447      1.0  0.79575  0.45473  0.01771  1.0000
  C   C448      1.0  0.98546  0.10033  0.24811  1.0000
  C   C449      1.0  0.78963  0.44029  0.04234  1.0000
  H   H437      1.0  0.99356  0.16033  0.34171  1.0000
  H   H438      1.0  0.85661  0.46020  0.09620  1.0000
  H   H439      1.0  0.61044  0.05827  0.05301  1.0000
  H   H440      1.0  0.96993  0.45308  0.10559  1.0000
  C   C450      1.0  0.50944  0.00158  0.12866  1.0000
  H   H441      1.0  0.80509  0.37495  0.02201  1.0000
  C   C451      1.0  0.91643  0.33087  0.34219  1.0000
  H   H442      1.0  0.52370  0.00456  0.11061  1.0000
  H   H443      1.0  0.50446  0.13514  0.23374  1.0000
  H   H444      1.0  0.96069  0.49169  0.21198  1.0000
  H   H445      1.0  0.98682  0.19986  0.04717  1.0000
  H   H446      1.0  0.63462  0.11312  0.02616  1.0000
  H   H447      1.0  0.90429  0.33721  0.32397  1.0000
  H   H448      1.0  0.99561  0.26680  0.14150  1.0000
  H   H449      1.0  0.50183  0.46435  0.13077  1.0000
  H   H450      1.0  0.51196  0.02008  0.14275  1.0000
  Fe  Fe72      1.0  0.99876  0.13977  0.17383  1.0000
  Fe  Fe73      1.0  0.71124  0.41399  0.62842  1.0000
  S   S146      1.0  0.75827  0.41475  0.63296  1.0000
  C   C452      1.0  0.66152  0.03581  0.67958  1.0000
  S   S147      1.0  0.55875  0.23555  0.36368  1.0000
  Fe  Fe74      1.0  0.63517  0.11794  0.67054  1.0000
  C   C453      1.0  0.78541  0.41903  0.55431  1.0000
  C   C454      1.0  0.71141  0.22635  0.36763  1.0000
  Fe  Fe75      1.0  0.75660  0.36918  0.61963  1.0000
  S   S148      1.0  0.78735  0.34891  0.58962  1.0000
  H   H451      1.0  0.75669  0.02651  0.63405  1.0000
  S   S149      1.0  0.71017  0.36986  0.61142  1.0000
  Fe  Fe76      1.0  0.68667  0.10666  0.63546  1.0000
  S   S150      1.0  0.64014  0.10295  0.62620  1.0000
  S   S151      1.0  0.72228  0.07587  0.62867  1.0000
  Fe  Fe77      1.0  0.68040  0.16332  0.66451  1.0000
  S   S152      1.0  0.63361  0.16396  0.65826  1.0000
  C   C455      1.0  0.53060  0.21204  0.50469  1.0000
  C   C456      1.0  0.66903  0.23868  0.67360  1.0000
  Fe  Fe78      1.0  0.64301  0.14943  0.61456  1.0000
  S   S153      1.0  0.62312  0.17744  0.58088  1.0000
  C   C457      1.0  0.73822  0.43892  0.56098  1.0000
  S   S154      1.0  0.69005  0.15170  0.62055  1.0000
  Fe  Fe79      1.0  0.79890  0.32645  0.42773  1.0000
  S   S155      1.0  0.80855  0.28002  0.43056  1.0000
  S   S156      1.0  0.76936  0.34780  0.45848  1.0000
  Fe  Fe80      1.0  0.82805  0.33163  0.37017  1.0000
  H   H452      1.0  0.65490  0.24816  0.60916  1.0000
  Fe  Fe81      1.0  0.79534  0.27864  0.38566  1.0000
  H   H453      1.0  0.71982  0.20516  0.36547  1.0000
  Fe  Fe82      1.0  0.85141  0.29171  0.41408  1.0000
  S   S157      1.0  0.89164  0.27725  0.43546  1.0000
  S   S158      1.0  0.78326  0.32442  0.38346  1.0000
  S   S159      1.0  0.84271  0.33860  0.41437  1.0000
  H   H454      1.0  0.73100  0.31230  0.60342  1.0000
  C   C458      1.0  0.77777  0.41773  0.49709  1.0000
  Fe  Fe83      1.0  0.58431  0.18202  0.42005  1.0000
  S   S160      1.0  0.58624  0.22895  0.42636  1.0000
  S   S161      1.0  0.59852  0.15041  0.45326  1.0000
  Fe  Fe84      1.0  0.54297  0.22987  0.40713  1.0000
  S   S162      1.0  0.51018  0.26024  0.42339  1.0000
  Fe  Fe85      1.0  0.60206  0.23043  0.38244  1.0000
  C   C459      1.0  0.68763  0.03102  0.61501  1.0000
  S   S163      1.0  0.53954  0.18276  0.40403  1.0000
  S   S164      1.0  0.60299  0.18302  0.37683  1.0000
  C   C460      1.0  0.72993  0.24950  0.37010  1.0000
  C   C461      1.0  0.71885  0.27678  0.37272  1.0000
  C   C462      1.0  0.68957  0.28095  0.37278  1.0000
  C   C463      1.0  0.67103  0.25782  0.37112  1.0000
  H   H455      1.0  0.72549  0.29800  0.68088  1.0000
  H   H456      1.0  0.54556  0.13174  0.50221  1.0000
  C   C464      1.0  0.80295  0.40772  0.50864  1.0000
  Fe  Fe86      1.0  0.70639  0.35621  0.65594  1.0000
  H   H457      1.0  0.68121  0.30219  0.37461  1.0000
  H   H458      1.0  0.65323  0.22231  0.67145  1.0000
  C   C465      1.0  0.91763  0.25869  0.41680  1.0000
  C   C466      1.0  0.91373  0.25187  0.38878  1.0000
  C   C467      1.0  0.93543  0.23854  0.37398  1.0000
  C   C468      1.0  0.96119  0.23199  0.38705  1.0000
  C   C469      1.0  0.96513  0.23869  0.41511  1.0000
  C   C470      1.0  0.94333  0.25194  0.42996  1.0000
  H   H459      1.0  0.89408  0.25698  0.37846  1.0000
  H   H460      1.0  0.73270  0.29477  0.37464  1.0000
  H   H461      1.0  0.67032  0.21484  0.61785  1.0000
  S   S165      1.0  0.83930  0.28554  0.36920  1.0000
  C   C471      1.0  0.61976  0.17007  0.54484  1.0000
  C   C472      1.0  0.62351  0.14281  0.53415  1.0000
  C   C473      1.0  0.61760  0.13732  0.50589  1.0000
  C   C474      1.0  0.60825  0.15902  0.48794  1.0000
  C   C475      1.0  0.60527  0.18645  0.49848  1.0000
  C   C476      1.0  0.61084  0.19188  0.52681  1.0000
  H   H462      1.0  0.63026  0.12579  0.54778  1.0000
  H   H463      1.0  0.61999  0.11602  0.49793  1.0000
  H   H464      1.0  0.59797  0.20332  0.48498  1.0000
  H   H465      1.0  0.60778  0.21302  0.53489  1.0000
  C   C477      1.0  0.78060  0.34570  0.55347  1.0000
  C   C478      1.0  0.75538  0.35526  0.54144  1.0000
  C   C479      1.0  0.75180  0.35469  0.51234  1.0000
  C   C480      1.0  0.77333  0.34457  0.49501  1.0000
  C   C481      1.0  0.79813  0.33406  0.50708  1.0000
  C   C482      1.0  0.80173  0.33466  0.53620  1.0000
  H   H466      1.0  0.73893  0.36374  0.55446  1.0000
  H   H467      1.0  0.73254  0.36283  0.50315  1.0000
  H   H468      1.0  0.81488  0.32620  0.49398  1.0000
  H   H469      1.0  0.82128  0.32714  0.54532  1.0000
  C   C483      1.0  0.53315  0.16845  0.47881  1.0000
  H   H470      1.0  0.66781  0.21248  0.36712  1.0000
  C   C484      1.0  0.55084  0.15315  0.55334  1.0000
  H   H471      1.0  0.73697  0.43533  0.50552  1.0000
  H   H472      1.0  0.98500  0.23388  0.42527  1.0000
  C   C485      1.0  0.70974  0.28154  0.67883  1.0000
  C   C486      1.0  0.69664  0.23168  0.68129  1.0000
  H   H473      1.0  0.93230  0.23348  0.35225  1.0000
  H   H474      1.0  0.68440  0.28894  0.59843  1.0000
  C   C487      1.0  0.68216  0.28851  0.67093  1.0000
  C   C488      1.0  0.69431  0.48303  0.61583  1.0000
  C   C489      1.0  0.72081  0.48938  0.62713  1.0000
  H   H475      1.0  0.81887  0.39837  0.49537  1.0000
  C   C490      1.0  0.71459  0.03989  0.62313  1.0000
  H   H476      1.0  0.88673  0.34846  0.37108  1.0000
  H   H477      1.0  0.72357  0.45368  0.55008  1.0000
  H   H478      1.0  0.73592  0.47270  0.63098  1.0000
  H   H479      1.0  0.77267  0.28433  0.61789  1.0000
  H   H480      1.0  0.67129  0.04650  0.61096  1.0000
  H   H481      1.0  0.67084  0.22678  0.58226  1.0000
  H   H482      1.0  0.72579  0.42051  0.56863  1.0000
  H   H483      1.0  0.91411  0.33309  0.41278  1.0000
  H   H484      1.0  0.64035  0.27246  0.66276  1.0000
  C   C491      1.0  0.94764  0.31466  0.38854  1.0000
  N   N39       1.0  0.76092  0.42914  0.54280  1.0000
  C   C492      1.0  0.75679  0.42833  0.51460  1.0000
  C   C493      1.0  0.73578  0.01968  0.62786  1.0000
  H   H485      1.0  0.74680  0.45061  0.57922  1.0000
  H   H486      1.0  0.78818  0.41832  0.57672  1.0000
  S   S166      1.0  0.68479  0.44793  0.60813  1.0000
  C   C494      1.0  0.72886  0.28974  0.60718  1.0000
  C   C495      1.0  0.52807  0.19757  0.47955  1.0000
  H   H487      1.0  0.63459  0.27433  0.43769  1.0000
  H   H488      1.0  0.54041  0.20853  0.54827  1.0000
  H   H489      1.0  0.65161  0.30338  0.42079  1.0000
  H   H490      1.0  0.95939  0.30806  0.40688  1.0000
  C   C496      1.0  0.70266  0.27630  0.60417  1.0000
  H   H491      1.0  0.94647  0.25728  0.45164  1.0000
  C   C497      1.0  0.75234  0.27394  0.61531  1.0000
  H   H492      1.0  0.56532  0.13522  0.54886  1.0000
  S   S167      1.0  0.98833  0.21721  0.36689  1.0000
  N   N40       1.0  0.70001  0.24779  0.60894  1.0000
  C   C498      1.0  0.72301  0.23206  0.61671  1.0000
  H   H493      1.0  0.76746  0.23243  0.62694  1.0000
  H   H494      1.0  0.64754  0.02199  0.66682  1.0000
  N   N41       1.0  0.54354  0.16861  0.52779  1.0000
  H   H495      1.0  0.77412  0.41613  0.47482  1.0000
  C   C499      1.0  0.53826  0.19712  0.52881  1.0000
  H   H496      1.0  0.52685  0.23473  0.50534  1.0000
  H   H497      1.0  0.72091  0.20952  0.62081  1.0000
  C   C500      1.0  0.54086  0.15422  0.50325  1.0000
  H   H498      1.0  0.53145  0.14477  0.56327  1.0000
  C   C501      1.0  0.80686  0.40837  0.53742  1.0000
  H   H499      1.0  0.82579  0.39944  0.54674  1.0000
  S   S168      1.0  0.68129  0.11865  0.68016  1.0000
  C   C502      1.0  0.74944  0.24491  0.62023  1.0000
  C   C503      1.0  0.67273  0.23378  0.60424  1.0000
  N   N42       1.0  0.67978  0.27512  0.44105  1.0000
  C   C504      1.0  0.68143  0.24642  0.43717  1.0000
  C   C505      1.0  0.70373  0.29079  0.44535  1.0000
  C   C506      1.0  0.70763  0.23276  0.43736  1.0000
  C   C507      1.0  0.73023  0.27778  0.44578  1.0000
  C   C508      1.0  0.73217  0.24861  0.44152  1.0000
  C   C509      1.0  0.65243  0.28957  0.43957  1.0000
  H   H500      1.0  0.66256  0.23406  0.43287  1.0000
  H   H501      1.0  0.70257  0.31360  0.44803  1.0000
  H   H502      1.0  0.70894  0.21017  0.43334  1.0000
  H   H503      1.0  0.74914  0.29037  0.44892  1.0000
  H   H504      1.0  0.75269  0.23842  0.44079  1.0000
  H   H505      1.0  0.64905  0.30259  0.45845  1.0000
  H   H506      1.0  0.56221  0.16703  0.56837  1.0000
  C   C510      1.0  0.90650  0.33721  0.36868  1.0000
  S   S169      1.0  0.63456  0.26438  0.37352  1.0000
  C   C511      1.0  0.92206  0.32896  0.39204  1.0000
  S   S170      1.0  0.67247  0.32354  0.66312  1.0000
  Fe  Fe87      1.0  0.55809  0.18805  0.36115  1.0000
  S   S171      1.0  0.75316  0.35274  0.66360  1.0000
  H   H507      1.0  0.52245  0.20899  0.46067  1.0000
  S   S172      1.0  0.76674  0.24387  0.36956  1.0000
  C   C512      1.0  0.66177  0.26707  0.66868  1.0000
  C   C513      1.0  0.68198  0.23044  0.36854  1.0000
  H   H508      1.0  0.66527  0.05530  0.66707  1.0000
  H   H509      1.0  0.53198  0.15696  0.45932  1.0000
  Fe  Fe88      1.0  0.75028  0.39868  0.67649  1.0000
  H   H510      1.0  0.60924  0.49658  0.66909  1.0000
  H   H511      1.0  0.65255  0.46963  0.66910  1.0000
  S   S173      1.0  0.70307  0.40067  0.67232  1.0000
  H   H512      1.0  0.99208  0.28435  0.37870  1.0000
  H   H513      1.0  0.65440  0.50006  0.60207  1.0000
  C   C514      1.0  0.98430  0.29388  0.35889  1.0000
  N   N43       1.0  0.95720  0.30837  0.36247  1.0000
  C   C515      1.0  0.68189  0.00200  0.61179  1.0000
  C   C516      1.0  0.66297  0.48767  0.67866  1.0000
  S   S174      1.0  0.77291  0.42455  0.70980  1.0000
  S   S175      1.0  0.60421  0.09789  0.70074  1.0000
  Fe  Fe89      1.0  0.80392  0.43331  0.86931  1.0000
  C   C517      1.0  0.94314  0.03036  0.93997  1.0000
  S   S176      1.0  0.78397  0.40169  0.83953  1.0000
  Fe  Fe90      1.0  0.83720  0.44115  0.92389  1.0000
  H   H514      1.0  0.97293  0.08712  0.94155  1.0000
  S   S177      1.0  0.86773  0.42741  0.95799  1.0000
  C   C518      1.0  0.96725  0.48162  0.93668  1.0000
  H   H515      1.0  0.66663  0.02551  0.83177  1.0000
  C   C519      1.0  0.92213  0.47305  0.86246  1.0000
  C   C520      1.0  0.62985  0.01725  0.99848  1.0000
  S   S178      1.0  0.79075  0.43582  0.91444  1.0000
  S   S179      1.0  0.85042  0.43417  0.87947  1.0000
  Fe  Fe91      1.0  0.60181  0.06079  0.86293  1.0000
  H   H516      1.0  0.60273  0.16432  0.71648  1.0000
  S   S180      1.0  0.62936  0.08229  0.83021  1.0000
  Fe  Fe92      1.0  0.57563  0.06541  0.92159  1.0000
  C   C521      1.0  0.85029  0.43630  0.75830  1.0000
  S   S181      1.0  0.56332  0.09639  0.95552  1.0000
  Fe  Fe93      1.0  0.84640  0.48121  0.87501  1.0000
  H   H517      1.0  0.87435  0.45221  0.82160  1.0000
  Fe  Fe94      1.0  0.55454  0.02097  0.88169  1.0000
  N   N44       1.0  0.69834  0.00220  0.85339  1.0000
  S   S182      1.0  0.62030  0.06245  0.90623  1.0000
  S   S183      1.0  0.55742  0.06846  0.87810  1.0000
  C   C522      1.0  0.55178  0.08687  0.98929  1.0000
  H   H518      1.0  0.65074  0.18545  0.71517  1.0000
  C   C523      1.0  0.96018  0.01910  0.87101  1.0000
  H   H519      1.0  0.95384  0.03926  0.86218  1.0000
  H   H520      1.0  0.56070  0.04232  0.98564  1.0000
  H   H521      1.0  0.89713  0.47453  0.92858  1.0000
  C   C524      1.0  0.73739  0.02462  0.69881  1.0000
  H   H522      1.0  0.60574  0.11534  0.00139  1.0000
  C   C525      1.0  0.69107  0.01937  0.92105  1.0000
  H   H523      1.0  0.92414  0.04108  0.93289  1.0000
  H   H524      1.0  0.71414  0.42898  0.85312  1.0000
  H   H525      1.0  0.95300  0.07619  0.91099  1.0000
  H   H526      1.0  0.90667  0.45625  0.86169  1.0000
  C   C526      1.0  0.84789  0.40845  0.79946  1.0000
  C   C527      1.0  0.68718  0.19057  0.75683  1.0000
  H   H527      1.0  0.73152  0.46059  0.92232  1.0000
  H   H528      1.0  0.84234  0.46952  0.81042  1.0000
  C   C528      1.0  0.91750  0.48474  0.93118  1.0000
  C   C529      1.0  0.86159  0.45844  0.80313  1.0000
  H   H529      1.0  0.62853  0.08297  0.96968  1.0000
  C   C530      1.0  0.85909  0.40828  0.98852  1.0000
  H   H530      1.0  0.75613  0.03734  0.70239  1.0000
  C   C531      1.0  0.64238  0.17776  0.73476  1.0000
  S   S184      1.0  0.80120  0.47996  0.86116  1.0000
  H   H531      1.0  0.66137  0.16875  0.80169  1.0000
  N   N45       1.0  0.68827  0.02165  0.68628  1.0000
  H   H532      1.0  0.63868  0.03299  0.95749  1.0000
  C   C532      1.0  0.71566  0.47697  0.92350  1.0000
  C   C533      1.0  0.83553  0.38742  0.75534  1.0000
  H   H533      1.0  0.61344  0.14816  0.80390  1.0000
  C   C534      1.0  0.61233  0.09100  0.73621  1.0000
  C   C535      1.0  0.63910  0.09653  0.74739  1.0000
  C   C536      1.0  0.64418  0.09281  0.77608  1.0000
  C   C537      1.0  0.62262  0.08350  0.79390  1.0000
  C   C538      1.0  0.59608  0.07718  0.78263  1.0000
  C   C539      1.0  0.59099  0.08092  0.75391  1.0000
  H   H534      1.0  0.65571  0.10434  0.73413  1.0000
  H   H535      1.0  0.66476  0.09778  0.78462  1.0000
  H   H536      1.0  0.57929  0.07001  0.79611  1.0000
  H   H537      1.0  0.57023  0.07650  0.74546  1.0000
  C   C540      1.0  0.77109  0.41906  0.74620  1.0000
  C   C541      1.0  0.78032  0.44085  0.76396  1.0000
  C   C542      1.0  0.78308  0.43622  0.79278  1.0000
  C   C543      1.0  0.77683  0.40963  0.80412  1.0000
  C   C544      1.0  0.76645  0.38819  0.78654  1.0000
  C   C545      1.0  0.76352  0.39287  0.75768  1.0000
  H   H538      1.0  0.78613  0.46119  0.75525  1.0000
  H   H539      1.0  0.79083  0.45297  0.80604  1.0000
  H   H540      1.0  0.76144  0.36758  0.79516  1.0000
  H   H541      1.0  0.75642  0.37591  0.74423  1.0000
  H   H542      1.0  0.95734  0.44448  0.86677  1.0000
  C   C546      1.0  0.87997  0.40488  0.00909  1.0000
  C   C547      1.0  0.83210  0.39723  0.99316  1.0000
  H   H543      1.0  0.84910  0.40665  0.82194  1.0000
  S   S185      1.0  0.63043  0.48068  0.92672  1.0000
  H   H544      1.0  0.69614  0.19530  0.77771  1.0000
  C   C548      1.0  0.62691  0.06665  0.98557  1.0000
  C   C549      1.0  0.67621  0.02390  0.85287  1.0000
  H   H545      1.0  0.65941  0.01853  0.86802  1.0000
  H   H546      1.0  0.83315  0.36542  0.79466  1.0000
  H   H547      1.0  0.81588  0.39954  0.97739  1.0000
  C   C550      1.0  0.64835  0.16863  0.78306  1.0000
  C   C551      1.0  0.69062  0.48446  0.68857  1.0000
  C   C552      1.0  0.72619  0.00991  0.85280  1.0000
  C   C553      1.0  0.70325  0.44921  0.85411  1.0000
  C   C554      1.0  0.97110  0.48802  0.86682  1.0000
  H   H548      1.0  0.74126  0.47383  0.85034  1.0000
  H   H549      1.0  0.68089  0.44750  0.92586  1.0000
  H   H550      1.0  0.54117  0.12993  0.99984  1.0000
  C   C555      1.0  0.54272  0.10833  0.00736  1.0000
  H   H551      1.0  0.67612  0.03658  0.91983  1.0000
  H   H552      1.0  0.68443  0.04513  0.85884  1.0000
  C   C556      1.0  0.62115  0.15713  0.78453  1.0000
  S   S186      1.0  0.57009  0.01844  0.92583  1.0000
  H   H553      1.0  0.68733  0.21067  0.74464  1.0000
  C   C557      1.0  0.93942  0.43780  0.93273  1.0000
  H   H554      1.0  0.98638  0.46905  0.93806  1.0000
  H   H555      1.0  0.66190  0.43080  0.85932  1.0000
  H   H556      1.0  0.82800  0.47612  0.99417  1.0000
  C   C558      1.0  0.99300  0.02891  0.94514  1.0000
  S   S187      1.0  0.59741  0.01346  0.86326  1.0000
  C   C559      1.0  0.67403  0.45023  0.85744  1.0000
  C   C560      1.0  0.61518  0.16616  0.73542  1.0000
  C   C561      1.0  0.55359  0.05901  0.99925  1.0000
  C   C562      1.0  0.71855  0.47443  0.85250  1.0000
  C   C563      1.0  0.82282  0.46557  0.01358  1.0000
  S   S188      1.0  0.50849  0.47964  0.86998  1.0000
  C   C564      1.0  0.66053  0.47655  0.85902  1.0000
  N   N46       1.0  0.85373  0.43363  0.78648  1.0000
  C   C565      1.0  0.72014  0.02521  0.92090  1.0000
  H   H557      1.0  0.85362  0.45656  0.74812  1.0000
  H   H558      1.0  0.82730  0.36978  0.74332  1.0000
  H   H559      1.0  0.87458  0.47372  0.79107  1.0000
  N   N47       1.0  0.65847  0.17908  0.75844  1.0000
  H   H560      1.0  0.70117  0.17517  0.74617  1.0000
  Fe  Fe95      1.0  0.61339  0.01556  0.90714  1.0000
  H   H561      1.0  0.90097  0.41314  0.00561  1.0000
  N   N48       1.0  0.94152  0.46880  0.93319  1.0000
  Fe  Fe96      1.0  0.79080  0.48280  0.90648  1.0000
  C   C566      1.0  0.71175  0.03762  0.69191  1.0000
  H   H562      1.0  0.99059  0.07302  0.91156  1.0000
  C   C567      1.0  0.83887  0.38495  0.78410  1.0000
  H   H563      1.0  0.95913  0.42803  0.92481  1.0000
  C   C568      1.0  0.84130  0.41321  0.74230  1.0000
  H   H564      1.0  0.58380  0.14609  0.76111  1.0000
  C   C569      1.0  0.95083  0.46642  0.86538  1.0000
  H   H565      1.0  0.83740  0.41568  0.72013  1.0000
  H   H566      1.0  0.93496  0.42968  0.95399  1.0000
  H   H567      1.0  0.73822  0.24785  0.69050  1.0000
  C   C570      1.0  0.60451  0.15594  0.76052  1.0000
  C   C571      1.0  0.68701  0.46961  0.92557  1.0000
  H   H568      1.0  0.72738  0.04694  0.91959  1.0000
  C   C572      1.0  0.98896  0.01304  0.87459  1.0000
  N   N49       1.0  0.96908  0.04269  0.93661  1.0000
  H   H569      1.0  0.92192  0.43081  0.91879  1.0000
  H   H570      1.0  0.73222  0.03209  0.85303  1.0000
  C   C573      1.0  0.97136  0.07120  0.92463  1.0000
  N   N50       1.0  0.61909  0.07349  0.01207  1.0000
  H   H571      1.0  0.63789  0.47712  0.86221  1.0000
  C   C574      1.0  0.63244  0.03847  0.97844  1.0000
  H   H572      1.0  0.71097  0.06054  0.69018  1.0000
  H   H573      1.0  0.99666  0.11116  0.00043  1.0000
  H   H574      1.0  0.50858  0.02630  0.95976  1.0000
  S   S189      1.0  0.77611  0.01161  0.92027  1.0000
  S   S190      1.0  0.83586  0.48850  0.91958  1.0000
  S   S191      1.0  0.90378  0.00851  0.87529  1.0000
  H   H575      1.0  0.65036  0.04179  0.69898  1.0000
  S   S192      1.0  0.70646  0.19622  0.68670  1.0000
  H   H576      1.0  0.77973  0.45709  0.00162  1.0000
  C   C575      1.0  0.94077  0.00318  0.95147  1.0000
  H   H577      1.0  0.70129  0.46419  0.68693  1.0000
  C   C576      1.0  0.66620  0.49070  0.92657  1.0000
  C   C577      1.0  0.73993  0.00312  0.92205  1.0000
  C   C578      1.0  0.71686  0.25318  0.68436  1.0000
  C   C579      1.0  0.99146  0.00159  0.95643  1.0000
  C   C580      1.0  0.70443  0.50038  0.85439  1.0000
  C   C581      1.0  0.77135  0.78647  0.30167  1.0000
  H   H578      1.0  0.77783  0.84087  0.23345  1.0000
  H   H579      1.0  0.96575  0.67436  0.06331  1.0000
  C   C582      1.0  0.95929  0.52176  0.17813  1.0000
  S   S193      1.0  0.54910  0.58420  0.09022  1.0000
  H   H580      1.0  0.97919  0.64514  0.08371  1.0000
  H   H581      1.0  0.55856  0.65372  0.07849  1.0000
  S   S194      1.0  0.54546  0.66023  0.20919  1.0000
  Fe  Fe97      1.0  0.97810  0.64450  0.14730  1.0000
  C   C583      1.0  0.97299  0.98111  0.10701  1.0000
  H   H582      1.0  0.51185  0.67764  0.07951  1.0000
  S   S195      1.0  0.94261  0.67365  0.13379  1.0000
  C   C584      1.0  0.89352  0.90689  0.02619  1.0000
  S   S196      1.0  0.52584  0.65266  0.13352  1.0000
  Fe  Fe98      1.0  0.88232  0.87832  0.13069  1.0000
  S   S197      1.0  0.92889  0.88239  0.12442  1.0000
  S   S198      1.0  0.85042  0.89224  0.09789  1.0000
  Fe  Fe99      1.0  0.88951  0.85146  0.18902  1.0000
  S   S199      1.0  0.93672  0.85450  0.18673  1.0000
  S   S200      1.0  0.86878  0.82390  0.22228  1.0000
  Fe  Fe100     1.0  0.92951  0.89792  0.16849  1.0000
  S   S201      1.0  0.95979  0.93341  0.17924  1.0000
  Fe  Fe101     1.0  0.93162  0.83877  0.14308  1.0000
  S   S202      1.0  0.96224  0.80662  0.12602  1.0000
  S   S203      1.0  0.88236  0.89642  0.17415  1.0000
  S   S204      1.0  0.88489  0.83320  0.14589  1.0000
  C   C585      1.0  0.94824  0.71064  0.13227  1.0000
  H   H583      1.0  0.94436  0.82518  0.05179  1.0000
  C   C586      1.0  0.77893  0.79652  0.27532  1.0000
  C   C587      1.0  0.95616  0.76986  0.12893  1.0000
  C   C588      1.0  0.92885  0.75854  0.12932  1.0000
  C   C589      1.0  0.92494  0.72897  0.13065  1.0000
  S   S205      1.0  0.51695  0.59145  0.16484  1.0000
  H   H584      1.0  0.79051  0.84432  0.33935  1.0000
  H   H585      1.0  0.91078  0.77246  0.12810  1.0000
  C   C590      1.0  0.90344  0.82445  0.07090  1.0000
  C   C591      1.0  0.95188  0.70449  0.20333  1.0000
  H   H586      1.0  0.90380  0.72025  0.13052  1.0000
  C   C592      1.0  0.92217  0.97629  0.16665  1.0000
  C   C593      1.0  0.94981  0.96903  0.17405  1.0000
  H   H587      1.0  0.76250  0.76537  0.30435  1.0000
  C   C594      1.0  0.95000  0.52663  0.15091  1.0000
  N   N51       1.0  0.94269  0.75444  0.19947  1.0000
  H   H588      1.0  0.90619  0.95999  0.16498  1.0000
  S   S206      1.0  0.97964  0.54721  0.19606  1.0000
  H   H589      1.0  0.94416  0.68281  0.20376  1.0000
  C   C595      1.0  0.53099  0.51310  0.13174  1.0000
  C   C596      1.0  0.54159  0.58130  0.05417  1.0000
  C   C597      1.0  0.91113  0.83611  0.02267  1.0000
  H   H590      1.0  0.92796  0.50942  0.11546  1.0000
  H   H591      1.0  0.58175  0.56203  0.04520  1.0000
  C   C598      1.0  0.88751  0.90153  0.05437  1.0000
  C   C599      1.0  0.85977  0.90345  0.06394  1.0000
  C   C600      1.0  0.83841  0.91220  0.04538  1.0000
  H   H592      1.0  0.90414  0.89479  0.06834  1.0000
  H   H593      1.0  0.81690  0.91391  0.05264  1.0000
  C   C601      1.0  0.53931  0.66252  0.30487  1.0000
  C   C602      1.0  0.51980  0.64654  0.28921  1.0000
  C   C603      1.0  0.52122  0.64571  0.25991  1.0000
  C   C604      1.0  0.54228  0.66082  0.24598  1.0000
  C   C605      1.0  0.56154  0.67710  0.26162  1.0000
  C   C606      1.0  0.56008  0.67799  0.29090  1.0000
  C   C607      1.0  0.98081  0.70993  0.20436  1.0000
  H   H594      1.0  0.50370  0.63443  0.29982  1.0000
  H   H595      1.0  0.57792  0.68885  0.25103  1.0000
  H   H596      1.0  0.57523  0.69035  0.30265  1.0000
  C   C608      1.0  0.86357  0.84038  0.31637  1.0000
  C   C609      1.0  0.87359  0.86168  0.29844  1.0000
  C   C610      1.0  0.87625  0.85672  0.26967  1.0000
  C   C611      1.0  0.86884  0.83036  0.25858  1.0000
  C   C612      1.0  0.85931  0.80889  0.27660  1.0000
  C   C613      1.0  0.85680  0.81380  0.30537  1.0000
  H   H597      1.0  0.87889  0.88233  0.30675  1.0000
  H   H598      1.0  0.88345  0.87350  0.25602  1.0000
  H   H599      1.0  0.85340  0.78846  0.26820  1.0000
  H   H600      1.0  0.84898  0.79722  0.31886  1.0000
  H   H601      1.0  0.76931  0.79619  0.34522  1.0000
  H   H602      1.0  0.51599  0.98250  0.14071  1.0000
  H   H603      1.0  0.90089  0.77100  0.19304  1.0000
  C   C614      1.0  0.92184  0.82821  0.04868  1.0000
  C   C615      1.0  0.93509  0.50546  0.13654  1.0000
  H   H604      1.0  0.92899  0.79261  0.18029  1.0000
  C   C616      1.0  0.93298  0.72713  0.20099  1.0000
  H   H605      1.0  0.95894  0.93772  0.11058  1.0000
  C   C617      1.0  0.79410  0.84023  0.29479  1.0000
  H   H606      1.0  0.54245  0.52901  0.11888  1.0000
  S   S207      1.0  0.98403  0.60038  0.13020  1.0000
  H   H607      1.0  0.90961  0.94886  0.09612  1.0000
  H   H608      1.0  0.91056  0.72263  0.19986  1.0000
  C   C618      1.0  0.87451  0.82898  0.06691  1.0000
  C   C619      1.0  0.97104  0.75996  0.20032  1.0000
  C   C620      1.0  0.97034  0.99041  0.17630  1.0000
  N   N52       1.0  0.86421  0.83698  0.04141  1.0000
  C   C621      1.0  0.97939  0.75153  0.13023  1.0000
  H   H609      1.0  0.92267  0.79027  0.21727  1.0000
  C   C622      1.0  0.84444  0.91760  0.01717  1.0000
  C   C623      1.0  0.79722  0.83339  0.24426  1.0000
  C   C624      1.0  0.97547  0.72209  0.13236  1.0000
  Fe  Fe102     1.0  0.51765  0.63761  0.17736  1.0000
  N   N53       1.0  0.50236  0.50855  0.12088  1.0000
  C   C625      1.0  0.92543  0.96554  0.09706  1.0000
  C   C626      1.0  0.51621  0.59111  0.04266  1.0000
  C   C627      1.0  0.98503  0.66522  0.07306  1.0000
  H   H610      1.0  0.82427  0.85064  0.05650  1.0000
  H   H611      1.0  0.57750  0.63643  0.03363  1.0000
  Fe  Fe103     1.0  0.52080  0.60717  0.12069  1.0000
  H   H612      1.0  0.95427  0.54669  0.14091  1.0000
  N   N54       1.0  0.79029  0.82303  0.27219  1.0000
  H   H613      1.0  0.80340  0.86113  0.29245  1.0000
  H   H614      1.0  0.99172  0.98488  0.18217  1.0000
  H   H615      1.0  0.99420  0.97602  0.11397  1.0000
  C   C628      1.0  0.92282  0.77815  0.19747  1.0000
  S   S208      1.0  0.53679  0.66231  0.34173  1.0000
  Fe  Fe104     1.0  0.99259  0.58795  0.17464  1.0000
  N   N55       1.0  0.50493  0.67371  0.03589  1.0000
  C   C629      1.0  0.95311  0.95924  0.10497  1.0000
  S   S209      1.0  0.98200  0.63089  0.19195  1.0000
  C   C630      1.0  0.77526  0.80381  0.32478  1.0000
  C   C631      1.0  0.56209  0.56977  0.03649  1.0000
  H   H616      1.0  0.99223  0.68062  0.08903  1.0000
  C   C632      1.0  0.55747  0.64757  0.03413  1.0000
  H   H617      1.0  0.80723  0.81638  0.23176  1.0000
  H   H618      1.0  0.86038  0.82670  0.08448  1.0000
  H   H619      1.0  0.81272  0.85112  0.24502  1.0000
  H   H620      1.0  0.77573  0.78295  0.25740  1.0000
  H   H621      1.0  0.51260  0.76656  0.14401  1.0000
  C   C633      1.0  0.52029  0.67037  0.05984  1.0000
  C   C634      1.0  0.99053  0.73780  0.20282  1.0000
  C   C635      1.0  0.54675  0.65720  0.05935  1.0000
  H   H622      1.0  0.91167  0.81835  0.09116  1.0000
  H   H623      1.0  0.50629  0.63307  0.24818  1.0000
  H   H624      1.0  0.97870  0.78160  0.19859  1.0000
  C   C636      1.0  0.83376  0.84107  0.03758  1.0000
  C   C637      1.0  0.78683  0.83082  0.32143  1.0000
  H   H625      1.0  0.99570  0.69256  0.20603  1.0000
  H   H626      1.0  0.50336  0.71634  0.13159  1.0000
  H   H627      1.0  0.52989  0.52104  0.15345  1.0000
  H   H628      1.0  0.99357  0.70836  0.13381  1.0000
  C   C638      1.0  0.91797  0.99358  0.09132  1.0000
  H   H629      1.0  0.91486  0.90434  0.01874  1.0000
  H   H630      1.0  0.99127  0.58020  0.01883  1.0000
  H   H631      1.0  0.50024  0.60000  0.05599  1.0000
  H   H632      1.0  0.82335  0.82045  0.03327  1.0000
  H   H633      1.0  0.92425  0.84828  0.34449  1.0000
  H   H634      1.0  0.51413  0.72009  0.21760  1.0000
  H   H635      1.0  0.97777  0.65116  0.01975  1.0000
  H   H636      1.0  0.82926  0.85598  0.02013  1.0000
  C   C639      1.0  0.88204  0.84020  0.01932  1.0000
  H   H637      1.0  0.50603  0.70634  0.18364  1.0000
  H   H638      1.0  0.89633  0.99882  0.08590  1.0000
  H   H639      1.0  0.50063  0.76825  0.21311  1.0000
  Fe  Fe105     1.0  0.72245  0.91373  0.63535  1.0000
  S   S210      1.0  0.76847  0.91729  0.64535  1.0000
  S   S211      1.0  0.69489  0.94564  0.61335  1.0000
  H   H640      1.0  0.99009  0.71558  0.41768  1.0000
  H   H641      1.0  0.52641  0.69641  0.47177  1.0000
  N   N56       1.0  0.68696  0.72471  0.44493  1.0000
  H   H642      1.0  0.55880  0.62545  0.51802  1.0000
  Fe  Fe106     1.0  0.77172  0.87236  0.63003  1.0000
  S   S212      1.0  0.80643  0.85693  0.60131  1.0000
  H   H643      1.0  0.65293  0.75398  0.44400  1.0000
  S   S213      1.0  0.72668  0.87077  0.61656  1.0000
  Fe  Fe107     1.0  0.68182  0.60492  0.64629  1.0000
  S   S214      1.0  0.63565  0.59987  0.63642  1.0000
  S   S215      1.0  0.71713  0.57400  0.63918  1.0000
  C   C640      1.0  0.80228  0.92310  0.56783  1.0000
  H   H644      1.0  0.90410  0.74709  0.35719  1.0000
  H   H645      1.0  0.66650  0.54970  0.61451  1.0000
  H   H646      1.0  0.72748  0.74372  0.43914  1.0000
  Fe  Fe108     1.0  0.63723  0.64650  0.62566  1.0000
  S   S216      1.0  0.61566  0.67203  0.59124  1.0000
  C   C641      1.0  0.54218  0.65891  0.49211  1.0000
  S   S217      1.0  0.68412  0.65028  0.63214  1.0000
  Fe  Fe109     1.0  0.81174  0.80991  0.44028  1.0000
  S   S218      1.0  0.81184  0.76234  0.43700  1.0000
  S   S219      1.0  0.78466  0.83157  0.47307  1.0000
  Fe  Fe110     1.0  0.84097  0.81684  0.38340  1.0000
  H   H647      1.0  0.50612  0.71492  0.35496  1.0000
  Fe  Fe111     1.0  0.79861  0.76915  0.39270  1.0000
  C   C642      1.0  0.55027  0.64679  0.51743  1.0000
  Fe  Fe112     1.0  0.85610  0.76756  0.42108  1.0000
  S   S220      1.0  0.88974  0.73509  0.43085  1.0000
  S   S221      1.0  0.79553  0.81635  0.39647  1.0000
  S   S222      1.0  0.85738  0.81480  0.42758  1.0000
  H   H648      1.0  0.97138  0.67113  0.48361  1.0000
  H   H649      1.0  0.55599  0.65386  0.56141  1.0000
  Fe  Fe113     1.0  0.59429  0.67995  0.42990  1.0000
  S   S223      1.0  0.59412  0.72654  0.43766  1.0000
  S   S224      1.0  0.61411  0.64931  0.46092  1.0000
  Fe  Fe114     1.0  0.54980  0.72579  0.42158  1.0000
  S   S225      1.0  0.51819  0.75294  0.44375  1.0000
  Fe  Fe115     1.0  0.60641  0.73061  0.39290  1.0000
  S   S226      1.0  0.63765  0.76593  0.38577  1.0000
  S   S227      1.0  0.54862  0.67863  0.41725  1.0000
  S   S228      1.0  0.60972  0.68357  0.38569  1.0000
  C   C643      1.0  0.73153  0.74763  0.37465  1.0000
  C   C644      1.0  0.72254  0.77375  0.38494  1.0000
  C   C645      1.0  0.69361  0.77920  0.38782  1.0000
  C   C646      1.0  0.67359  0.75829  0.38130  1.0000
  H   H650      1.0  0.64933  0.70032  0.44962  1.0000
  C   C647      1.0  0.66923  0.76455  0.66210  1.0000
  H   H651      1.0  0.73779  0.78981  0.39059  1.0000
  H   H652      1.0  0.79851  0.91906  0.59029  1.0000
  Fe  Fe116     1.0  0.71847  0.85389  0.65937  1.0000
  C   C648      1.0  0.95956  0.71488  0.48876  1.0000
  C   C649      1.0  0.92520  0.74523  0.42754  1.0000
  C   C650      1.0  0.93343  0.77348  0.43083  1.0000
  C   C651      1.0  0.96215  0.78074  0.43004  1.0000
  S   S229      1.0  0.56167  0.73398  0.37732  1.0000
  C   C652      1.0  0.97438  0.73175  0.42132  1.0000
  C   C653      1.0  0.94569  0.72441  0.42268  1.0000
  H   H653      1.0  0.91774  0.78958  0.43479  1.0000
  H   H654      1.0  0.96852  0.80253  0.43324  1.0000
  C   C654      1.0  0.72780  0.51751  0.63363  1.0000
  H   H655      1.0  0.93933  0.70252  0.42011  1.0000
  C   C655      1.0  0.61917  0.66638  0.55500  1.0000
  C   C656      1.0  0.62734  0.64017  0.54420  1.0000
  C   C657      1.0  0.62645  0.63551  0.51524  1.0000
  C   C658      1.0  0.61736  0.65693  0.49688  1.0000
  C   C659      1.0  0.61014  0.68345  0.50763  1.0000
  C   C660      1.0  0.61109  0.68812  0.53655  1.0000
  H   H656      1.0  0.63353  0.62323  0.55817  1.0000
  H   H657      1.0  0.63218  0.61496  0.50711  1.0000
  H   H658      1.0  0.60313  0.70014  0.49381  1.0000
  H   H659      1.0  0.60475  0.70846  0.54474  1.0000
  C   C661      1.0  0.79998  0.84703  0.56627  1.0000
  C   C662      1.0  0.77265  0.84616  0.55520  1.0000
  C   C663      1.0  0.76834  0.83990  0.52690  1.0000
  C   C664      1.0  0.79125  0.83465  0.50924  1.0000
  C   C665      1.0  0.81858  0.83471  0.52041  1.0000
  C   C666      1.0  0.82289  0.84087  0.54883  1.0000
  H   H660      1.0  0.75481  0.85086  0.56819  1.0000
  H   H661      1.0  0.74712  0.83991  0.51843  1.0000
  H   H662      1.0  0.83642  0.83081  0.50701  1.0000
  H   H663      1.0  0.84414  0.84140  0.55721  1.0000
  H   H664      1.0  0.81908  0.90798  0.56160  1.0000
  H   H665      1.0  0.70572  0.92758  0.55632  1.0000
  H   H666      1.0  0.74951  0.93460  0.58343  1.0000
  H   H667      1.0  0.74834  0.52237  0.64236  1.0000
  C   C667      1.0  0.71150  0.72689  0.36757  1.0000
  S   S230      1.0  0.62666  0.66006  0.66945  1.0000
  H   H668      1.0  0.80996  0.94515  0.56504  1.0000
  H   H669      1.0  0.67039  0.74991  0.47742  1.0000
  C   C668      1.0  0.53917  0.69079  0.54036  1.0000
  H   H670      1.0  0.74961  0.69989  0.42200  1.0000
  C   C669      1.0  0.70290  0.98177  0.61717  1.0000
  H   H671      1.0  0.99336  0.76368  0.35972  1.0000
  C   C670      1.0  0.67364  0.75090  0.45459  1.0000
  C   C671      1.0  0.70809  0.53927  0.62952  1.0000
  C   C672      1.0  0.68159  0.53294  0.61819  1.0000
  C   C673      1.0  0.71496  0.72447  0.43807  1.0000
  H   H672      1.0  0.74621  0.97521  0.62933  1.0000
  H   H673      1.0  0.68657  0.76988  0.44948  1.0000
  H   H674      1.0  0.50204  0.73382  0.50131  1.0000
  C   C674      1.0  0.98264  0.75989  0.42537  1.0000
  C   C675      1.0  0.75354  0.90434  0.50908  1.0000
  C   C676      1.0  0.62118  0.51686  0.66867  1.0000
  C   C677      1.0  0.91667  0.79104  0.36006  1.0000
  H   H675      1.0  0.66106  0.99519  0.60527  1.0000
  H   H676      1.0  0.93700  0.71077  0.48750  1.0000
  C   C678      1.0  0.72768  0.69962  0.42849  1.0000
  H   H677      1.0  0.95454  0.76003  0.49287  1.0000
  H   H678      1.0  0.70816  0.90774  0.50841  1.0000
  N   N57       1.0  0.73808  0.76836  0.61922  1.0000
  C   C679      1.0  0.75817  0.75732  0.63670  1.0000
  C   C680      1.0  0.71617  0.75189  0.61000  1.0000
  C   C681      1.0  0.75628  0.72920  0.64588  1.0000
  C   C682      1.0  0.71375  0.72364  0.61860  1.0000
  C   C683      1.0  0.73391  0.71232  0.63674  1.0000
  C   C684      1.0  0.74072  0.79759  0.60920  1.0000
  H   H679      1.0  0.77551  0.77041  0.64402  1.0000
  H   H680      1.0  0.70006  0.76075  0.59643  1.0000
  H   H681      1.0  0.77165  0.72071  0.66047  1.0000
  H   H682      1.0  0.69588  0.71089  0.61190  1.0000
  H   H683      1.0  0.73178  0.69075  0.64441  1.0000
  H   H684      1.0  0.75175  0.79797  0.58888  1.0000
  H   H685      1.0  0.71957  0.80755  0.60685  1.0000
  H   H686      1.0  0.75280  0.81088  0.62416  1.0000
  C   C685      1.0  0.72735  0.91113  0.52039  1.0000
  C   C686      1.0  0.68333  0.67513  0.43412  1.0000
  H   H687      1.0  0.75493  0.89518  0.48841  1.0000
  H   H688      1.0  0.68668  0.79960  0.39542  1.0000
  C   C687      1.0  0.72596  0.92213  0.54726  1.0000
  C   C688      1.0  0.75086  0.92596  0.56258  1.0000
  C   C689      1.0  0.71166  0.67487  0.42634  1.0000
  C   C690      1.0  0.72987  0.99064  0.62526  1.0000
  N   N58       1.0  0.77640  0.91868  0.55156  1.0000
  H   H689      1.0  0.79821  0.90241  0.51627  1.0000
  C   C691      1.0  0.77802  0.90843  0.52500  1.0000
  C   C692      1.0  0.67131  0.70036  0.44356  1.0000
  H   H690      1.0  0.67059  0.65601  0.43276  1.0000
  C   C693      1.0  0.54863  0.66272  0.54177  1.0000
  H   H691      1.0  0.72113  0.65557  0.41853  1.0000
  C   C694      1.0  0.96939  0.74258  0.49180  1.0000
  Fe  Fe117     1.0  0.56358  0.68650  0.37339  1.0000
  H   H692      1.0  0.62252  0.52451  0.64683  1.0000
  C   C695      1.0  0.68256  0.73201  0.37138  1.0000
  S   S231      1.0  0.84276  0.77010  0.37636  1.0000
  H   H693      1.0  0.53902  0.70329  0.55925  1.0000
  H   H694      1.0  0.66720  0.71587  0.36612  1.0000
  N   N59       1.0  0.53099  0.70242  0.51545  1.0000
  C   C696      1.0  0.67173  0.73647  0.67147  1.0000
  S   S232      1.0  0.76763  0.74005  0.37121  1.0000
  H   H695      1.0  0.54425  0.64692  0.47299  1.0000
  S   S233      1.0  0.76425  0.85314  0.67246  1.0000
  S   S234      1.0  0.71024  0.89704  0.67713  1.0000
  H   H696      1.0  0.65203  0.77030  0.64828  1.0000
  C   C697      1.0  0.92165  0.76191  0.35786  1.0000
  H   H697      1.0  0.53829  0.74507  0.50349  1.0000
  C   C698      1.0  0.53245  0.68692  0.49151  1.0000
  H   H698      1.0  0.65663  0.72068  0.66472  1.0000
  C   C699      1.0  0.97884  0.69270  0.48633  1.0000
  S   S235      1.0  0.68509  0.81977  0.65714  1.0000
  C   C700      1.0  0.68897  0.78516  0.67023  1.0000
  C   C701      1.0  0.52179  0.73205  0.51385  1.0000
  C   C702      1.0  0.99849  0.74775  0.49209  1.0000
  H   H699      1.0  0.51755  0.74112  0.53470  1.0000
  S   S236      1.0  0.85907  0.84814  0.35212  1.0000
  H   H700      1.0  0.71838  0.70665  0.35957  1.0000
  H   H701      1.0  0.89513  0.79868  0.36035  1.0000
  H   H702      1.0  0.95159  0.85252  0.37057  1.0000
  C   C703      1.0  0.93259  0.84007  0.36464  1.0000
  N   N60       1.0  0.93866  0.80971  0.36228  1.0000
  C   C704      1.0  0.67484  0.50489  0.61104  1.0000
  H   H703      1.0  0.95354  0.72941  0.35637  1.0000
  H   H704      1.0  0.98347  0.81487  0.36379  1.0000
  C   C705      1.0  0.97171  0.77124  0.35921  1.0000
  C   C706      1.0  0.96595  0.80020  0.36173  1.0000
  C   C707      1.0  0.94937  0.75201  0.35739  1.0000
  H   H705      1.0  0.91629  0.84373  0.38082  1.0000
  Fe  Fe118     1.0  0.62949  0.61385  0.68081  1.0000
  Fe  Fe119     1.0  0.67349  0.66087  0.67621  1.0000
  N   N61       1.0  0.64969  0.51338  0.68017  1.0000
  H   H706      1.0  0.67097  0.97992  0.68317  1.0000
  H   H707      1.0  0.60893  0.53254  0.68097  1.0000
  S   S237      1.0  0.77011  0.92651  0.72328  1.0000
  S   S238      1.0  0.59890  0.58977  0.70843  1.0000
  Fe  Fe120     1.0  0.82936  0.93026  0.87775  1.0000
  S   S239      1.0  0.82761  0.97706  0.87057  1.0000
  S   S240      1.0  0.81679  0.89780  0.84499  1.0000
  Fe  Fe121     1.0  0.85401  0.93705  0.93702  1.0000
  S   S241      1.0  0.85293  0.98457  0.93402  1.0000
  S   S242      1.0  0.87991  0.91573  0.97141  1.0000
  Fe  Fe122     1.0  0.81025  0.97877  0.91390  1.0000
  H   H708      1.0  0.55720  0.63183  0.80120  1.0000
  Fe  Fe123     1.0  0.87018  0.97871  0.89124  1.0000
  H   H709      1.0  0.76942  0.99560  0.85356  1.0000
  S   S243      1.0  0.80955  0.93141  0.92035  1.0000
  S   S244      1.0  0.87372  0.93160  0.89474  1.0000
  Fe  Fe124     1.0  0.58381  0.55832  0.87088  1.0000
  C   C708      1.0  0.93402  0.52294  0.86083  1.0000
  S   S245      1.0  0.60965  0.58461  0.84020  1.0000
  Fe  Fe125     1.0  0.55334  0.55748  0.92757  1.0000
  C   C709      1.0  0.71109  0.77768  0.68817  1.0000
  S   S246      1.0  0.52792  0.58250  0.95942  1.0000
  C   C710      1.0  0.59729  0.65331  0.80333  1.0000
  H   H710      1.0  0.73028  0.74390  0.71205  1.0000
  H   H711      1.0  0.59946  0.65049  0.82568  1.0000
  H   H712      1.0  0.66879  0.96808  0.85483  1.0000
  S   S247      1.0  0.59922  0.56014  0.91546  1.0000
  S   S248      1.0  0.53786  0.55991  0.88301  1.0000
  C   C711      1.0  0.94506  0.52761  0.93507  1.0000
  H   H713      1.0  0.87396  0.84699  0.99918  1.0000
  S   S249      1.0  0.75917  0.51558  0.91970  1.0000
  C   C712      1.0  0.70490  0.50789  0.69935  1.0000
  C   C713      1.0  0.69088  0.97417  0.85384  1.0000
  H   H714      1.0  0.87462  0.98325  0.81021  1.0000
  H   H715      1.0  0.70561  0.93080  0.85474  1.0000
  H   H716      1.0  0.71665  0.51983  0.85387  1.0000
  H   H717      1.0  0.92023  0.99308  0.95321  1.0000
  H   H718      1.0  0.70258  0.55272  0.70775  1.0000
  S   S250      1.0  0.58463  0.51091  0.86857  1.0000
  C   C714      1.0  0.97687  0.96695  0.89314  1.0000
  C   C715      1.0  0.91370  0.50131  0.85984  1.0000
  H   H719      1.0  0.89984  0.52684  0.92908  1.0000
  H   H720      1.0  0.69412  0.94755  0.92598  1.0000
  H   H721      1.0  0.70897  0.54871  0.92460  1.0000
  C   C716      1.0  0.70134  0.96927  0.92451  1.0000
  H   H722      1.0  0.65832  0.53560  0.92757  1.0000
  H   H723      1.0  0.94657  0.55056  0.93534  1.0000
  H   H724      1.0  0.55388  0.63560  0.74961  1.0000
  H   H725      1.0  0.98983  0.52135  0.94026  1.0000
  N   N62       1.0  0.67576  0.50118  0.85769  1.0000
  H   H726      1.0  0.96363  0.96723  0.96766  1.0000
  C   C717      1.0  0.93595  0.94936  0.82567  1.0000
  C   C718      1.0  0.74003  0.96067  0.85349  1.0000
  H   H727      1.0  0.51634  0.97836  0.93975  1.0000
  C   C719      1.0  0.96267  0.51635  0.86485  1.0000
  C   C720      1.0  0.73881  0.99512  0.70037  1.0000
  H   H728      1.0  0.65100  0.53342  0.83850  1.0000
  C   C721      1.0  0.69373  0.72897  0.68948  1.0000
  C   C722      1.0  0.60401  0.58511  0.74474  1.0000
  C   C723      1.0  0.62781  0.59591  0.75844  1.0000
  C   C724      1.0  0.62983  0.59431  0.78766  1.0000
  C   C725      1.0  0.60818  0.58185  0.80345  1.0000
  C   C726      1.0  0.58497  0.56995  0.78967  1.0000
  C   C727      1.0  0.58290  0.57164  0.76043  1.0000
  H   H729      1.0  0.64427  0.60621  0.74667  1.0000
  H   H730      1.0  0.64788  0.60353  0.79816  1.0000
  H   H731      1.0  0.56814  0.56035  0.80157  1.0000
  H   H732      1.0  0.56445  0.56314  0.75002  1.0000
  C   C728      1.0  0.78229  0.91768  0.75721  1.0000
  C   C729      1.0  0.78775  0.93976  0.77612  1.0000
  C   C730      1.0  0.79789  0.93401  0.80316  1.0000
  C   C731      1.0  0.80280  0.90602  0.81157  1.0000
  C   C732      1.0  0.79722  0.88392  0.79274  1.0000
  C   C733      1.0  0.78697  0.88968  0.76569  1.0000
  H   H733      1.0  0.78419  0.96148  0.76975  1.0000
  H   H734      1.0  0.80205  0.95124  0.81737  1.0000
  H   H735      1.0  0.80089  0.86219  0.79905  1.0000
  H   H736      1.0  0.78282  0.87250  0.75137  1.0000
  C   C734      1.0  0.96939  0.51119  0.93774  1.0000
  H   H737      1.0  0.82765  0.92333  0.00287  1.0000
  S   S251      1.0  0.87805  0.50998  0.85455  1.0000
  C   C735      1.0  0.57353  0.64275  0.78956  1.0000
  C   C736      1.0  0.91890  0.51435  0.93172  1.0000
  C   C737      1.0  0.61897  0.66586  0.78790  1.0000
  H   H738      1.0  0.54934  0.64258  0.99024  1.0000
  S   S252      1.0  0.69775  0.69367  0.70067  1.0000
  H   H739      1.0  0.59259  0.65799  0.72333  1.0000
  C   C738      1.0  0.71158  0.95300  0.85390  1.0000
  H   H740      1.0  0.90243  0.87144  0.82218  1.0000
  C   C739      1.0  0.53279  0.57958  0.99589  1.0000
  S   S253      1.0  0.67543  0.61588  0.69109  1.0000
  H   H741      1.0  0.63266  0.69230  0.72536  1.0000
  C   C740      1.0  0.96514  0.98867  0.95955  1.0000
  H   H742      1.0  0.95808  0.95373  0.82989  1.0000
  H   H743      1.0  0.93937  0.90488  0.83441  1.0000
  H   H744      1.0  0.85678  0.93410  0.81426  1.0000
  H   H745      1.0  0.92752  0.54484  0.85880  1.0000
  C   C741      1.0  0.59372  0.65754  0.74587  1.0000
  C   C742      1.0  0.72361  0.50551  0.92301  1.0000
  S   S254      1.0  0.55320  0.50997  0.92924  1.0000
  C   C743      1.0  0.73048  0.97509  0.92388  1.0000
  C   C744      1.0  0.91775  0.97148  0.81860  1.0000
  C   C745      1.0  0.70287  0.52660  0.92474  1.0000
  C   C746      1.0  0.71470  0.97903  0.69500  1.0000
  H   H746      1.0  0.97818  0.53313  0.86600  1.0000
  N   N63       1.0  0.61686  0.66807  0.75955  1.0000
  H   H747      1.0  0.67552  0.54607  0.86469  1.0000
  H   H748      1.0  0.64436  0.52793  0.87503  1.0000
  C   C747      1.0  0.74741  0.98931  0.85298  1.0000
  H   H749      1.0  0.71576  0.95609  0.69604  1.0000
  C   C748      1.0  0.88613  0.88763  0.82673  1.0000
  C   C749      1.0  0.66354  0.53646  0.69070  1.0000
  C   C750      1.0  0.99743  0.98710  0.88597  1.0000
  C   C751      1.0  0.69137  0.53412  0.70034  1.0000
  Fe  Fe126     1.0  0.75681  0.89827  0.68690  1.0000
  H   H750      1.0  0.86809  0.88380  0.81226  1.0000
  H   H751      1.0  0.63778  0.67313  0.79869  1.0000
  H   H752      1.0  0.93228  0.95783  0.89621  1.0000
  Fe  Fe127     1.0  0.59756  0.51263  0.91340  1.0000
  C   C752      1.0  0.94799  0.97318  0.88998  1.0000
  H   H753      1.0  0.74558  0.95794  0.92490  1.0000
  C   C753      1.0  0.88909  0.96597  0.81458  1.0000
  C   C754      1.0  0.92520  0.92184  0.82828  1.0000
  C   C755      1.0  0.87911  0.93818  0.81711  1.0000
  C   C756      1.0  0.68156  0.99135  0.92276  1.0000
  H   H754      1.0  0.63397  0.99533  0.99294  1.0000
  S   S255      1.0  0.64520  0.98320  0.92229  1.0000
  H   H755      1.0  0.57404  0.56067  0.99404  1.0000
  H   H756      1.0  0.65319  0.55694  0.69126  1.0000
  C   C757      1.0  0.64040  0.67979  0.74350  1.0000
  C   C758      1.0  0.57166  0.64489  0.76065  1.0000
  H   H757      1.0  0.92524  0.83956  0.00529  1.0000
  H   H758      1.0  0.87840  0.88456  0.84833  1.0000
  N   N64       1.0  0.89719  0.91648  0.82345  1.0000
  C   C759      1.0  0.67420  0.51923  0.92638  1.0000
  C   C760      1.0  0.71325  0.74965  0.69805  1.0000
  H   H759      1.0  0.75634  0.94449  0.85401  1.0000
  C   C761      1.0  0.87194  0.91427  0.00733  1.0000
  C   C762      1.0  0.66103  0.52848  0.85889  1.0000
  H   H760      1.0  0.72668  0.50585  0.70617  1.0000
  H   H761      1.0  0.75857  0.98463  0.70547  1.0000
  C   C763      1.0  0.93961  0.99941  0.87908  1.0000
  H   H762      1.0  0.65374  0.69433  0.75614  1.0000
  H   H763      1.0  0.98330  0.94676  0.90183  1.0000
  Fe  Fe128     1.0  0.54021  0.51233  0.88445  1.0000
  H   H764      1.0  0.65399  0.66235  0.73578  1.0000
  S   S256      1.0  0.51877  0.99287  0.86709  1.0000
  C   C764      1.0  0.55774  0.56889  0.00748  1.0000
  H   H765      1.0  0.72624  0.79354  0.69468  1.0000
  H   H766      1.0  0.99810  0.52009  0.81147  1.0000
  H   H767      1.0  0.50261  0.66568  0.99220  1.0000
  C   C765      1.0  0.51186  0.59023  0.01365  1.0000
  C   C766      1.0  0.51513  0.66399  0.01109  1.0000
  H   H768      1.0  0.92562  0.99308  0.81739  1.0000
  C   C767      1.0  0.54166  0.65106  0.00978  1.0000
  C   C768      1.0  0.68944  0.99269  0.68788  1.0000
