data_image0
_chemical_formula_structural       Fe2S2FeCHCS2CSFeSCFe2S2FeS2FeS2FeSFeS3H2FeS2FeS2FeSFeS3FeH2C2H3CHCH2CHSFeC2HC7H4C6H5C3HNHC6H5C8H4C2HCHCHCH6CNC5H2C2SH3CNC4HCH2CNH4SCH3CH2CSNC6H12C2H2CSCH2CH2NC6H3C3HC2HCSHCSCHCHSH3CH2SCHSCH2C5SCFe2S2FeCHCSCFeS2Fe2HFeS2H3FeS2FeSCFeSH2SCH3FeS2FeS2FeSFeS3C5H3C7HCH2C6H2C2H2CHCHCH2SH3FeH2SC7H4NHCSC7HC2HCH3SC3HCNH8CHCH4CHCSCH4C2HCSCHNC4H2C2HSH2CH2SC2H2CNHCNHCHNC2HCHC3FeCH2C2HNC5HCH3CNC2H3SC3SHC3H2C2SHS2CHSFe2S2FeCFeCS2FeSFeSHFe2S2FeS2FeS2FeSFeS3H2FeS2FeS2FeSFeS3HCHCNHCHCH2SHSCNHCSC8H4C6H5CHCSCHC6H6C7H4CH3CSCHC2HNC2HC2H3CH4C3HCHC2SC2H3C4HSCHC2H2CH3CHCHCSC2H2CHCHC3H3CNC6H8NC6H10NH4CH3NH2CNH2CHC2NH3CH2C2HSCS2HFeS2FeC2HSHFeS2HFeCFeS2HSCFeS2FeS2FeSFeCSCNH2FeS2FeS2FeSFeS3CNH2CSH3C6H4C6H4CH4SH2C3HC4HFeC6H6C6H2CHCHCHC3SHC2H2SC3NC2HC3SH3NC6H4NHCHCNC4H4NC6H8FeH2C3H3CH2C2H3SH4CH3CH2CH2CFeC2HCH2CHCH2C2H2CH3C2HNCSH2CHSHCHCFeSHFeS2FeSFeS3FeS2FeS2FeSFeS3CSHFeSCFeSHFeSFeSFeS2HFe2CS2C4HC2H2S2H2C6H4C6HFeHC6H4C6H4C6H2NH2CSC3HNHC2HNH2CHSHC2H2SC3HCH2C3H3NH3CHCHC4HCH2CH7C4NC2HCH4CHNHC2HC2HCHCH2NHC2H2CHC4H2C2N2CHCSH2C2H3CH2CHC2H3C3H3CS2H2C2H2FeSHFeS2FeHFeS3FeS2FeS2FeSFeS3H3CFe2S2HFe2HS2FeS2Fe3S3HCHCHSH5SC4SC3S2NH4CH3SC6H4CHC6HC6H4C6H4C6H4CH2NCHCHCHC3H4CNC6H8NCH2CH3C2H2CSC4HC3HCHNC2H4CHC3H2C2HCHC2HCH2CHC2H6S2HCNHSCHCH5FeSHFeS2FeSFeS3FeS2FeS2FeNFeS3CN2HSH2SCFeSHSFeS2Fe3NS2C3NCHC2HSC9H4CH2C2SCH2C6H4C6H4C6H2CH5C3FeH3CH5CH2CHC3HC2H4C4FeH3C6SH2CHCNC6H8NC2NSH2CNHC2H2C2H3SCH3C2HSH2CHCH4C5H2CHSH3FeCH2C2H3C2HCHC3H3SH3SH3C2HFeSCFeS2FeHFeS3FeS2FeS2FeSFeS3H3CHFeS2HFeC2S2FeS2HFeCFeS2HNSHCNC2FeSHCHSHC2HCHC2FeH3CHC3HC6H4CHC4SH2C6H4C6H4C6H5CH4CH2NC2HCHCH5C4HCH2CHC3H4C3SC4HCH2C2H2CHCNH4CNCHC2H2C2H2CFeH3CHN2C4SHCH2CHNCH4C2H2CH3CH2CHS2H2FeHCFeSHFeSFeSFeSFeSHSFeS2CHCFeS2FeS2FeSFeS3FeS2FeS2FeS2CSHNCH7C2H2C6H4C6H6C3H3CSCH3FeH2C6H4C7H2CHCH2C3H2CH2CH14NC6H2CH2C2H2C3SFeHC2H2C3SNC6H2C3HSH2CSH3CSC3HNCNC2H5NC6H3CHCH2C2NCH2CHC3H2FeS2Fe2CS2FeS2Fe2SFeCS2HCHFeS2FeS2FeSFeS3FeS2FeS2FeSFeCS2C2HCHCSC3H2C7H4C6H6SCSH2C2HC2HC2HSHC8H4C6H4C2H3SHCNHCH7FeNHCH3NC4HCHCH2C3HCH2C2HNHCHC2HSH2SNC2SCHC4H2CH2CSH6C4HC2HCHC2HCH2CHCNH3CH2NCSCSCHCHSC2H3C2H3CH3C3H5C3FeSHFeCS2HSFeSH2FeS2CH2FeS2FeS2FeSFeS3FeS2FeSHFeSH2SCH2CSCHCHC3NC7H4C6H5C3SH2C2FeH2C2HCHC6H4FeCH2C6H2CHN2HCHC3H3CFeH5CHC2SCSC3NC4HCH2CSH2C2H2C2FeH3CHNC2H2CH3CSCSCH2C2H2CH2N2HCFeCH4CHCHCH4CHC3SH4SCH2C2SHSH2Fe2S2Fe2HS2FeS2Fe2CFeS3H3FeS2FeS2FeSFeS3FeS2FeS2FeSFeHS2H2CHCHSC4H2C6H4C6H2CHC4H5C3HC5HC7H4C6H8C2SHCHCSHNHCHNC6H3C2H4SHCH3C3HSH3CHCNC6H11CN2C2HC2HSH3CHSCH2C3H2CH2CH3CS2HCHNHNHNCHCHSH3SHCH2CHSC4HC2HCH2C5NFeSHFeS2FeCFeS3CHNCHFeS2FeS2FeSFeS3FeS2Fe3HS2FeS2FeSFe2S2C2H5C2HCHSC6H4CH2C3H2C3H2C4HCH2C7H4C6H4SC5H3C2SH2C2HNC6H5C2H3C3H2NH2CH2CH3CHCSH2SCNHCH4NCHC2H3CH4CH4NCHCHSHC2HSHSC4HC3H5C2NSC3HCHNH2SHCH2NHFeS2FeSHFeSFeS3FeS2FeSHFeSFeS3CHCFeS2HFeCHS2FeS2HFe2HS2C2H2SH2CSC7H4C2H2C3H2C6H4C6H4C6HCH2C2HC2H3NHCNCFeC2H2NHCHCHC2H3C2NH3C2HC4H5CNC5H7CHC4H2C2HCFeC2H4NCH5CHC2H2CHFeCH4C4HC6H5NH2CNCHCSHC2H2CH2FeSHFeS2FeCFeS3H2SC2FeS2FeS2FeSFeS3FeS2Fe2HCS2NSNCSCFeS2CFeH2SCHC3SCHC6H6C3H3FeHC2HC2HCSH4C6H4C6H4C6H8C2N2C6HSHCHCHC2FeCHCHCH2CH2CHC2H4C2HCHCHCH3CNCFeC6H7CHCHCHNC3HC3HCH2CH3NHCHCHNCHCHC2SH7CSC2HSH4FeS2FeSCFeSFeS3FeS2FeSCFeSFeS3HCHFeS2HFe2HS2FeS2H2NCS2H2S2CNC2H2C6H4C2NC4H2C6H4C6H4C6HSH3CH2CSC2H2CHCFeHC3NC6H9CNHCHSHCHNHC2HC4H2CHCFeH2C2HCHC2HCHC2HCHSH3CHCFeHCHC3H2CHCHCHCH8NHSHCHC2HCHC2HC2HCNH2CHNH3CHFeCNCS2CH2CHC2HC2SC2
_chemical_formula_sum              "Fe256 S512 C1536 H1536 N128"
_cell_length_a       71.1856
_cell_length_b       48.2684
_cell_length_c       61.7809
_cell_angle_alpha    89.2676
_cell_angle_beta     88.8472
_cell_angle_gamma    88.5156

_space_group_name_H-M_alt    "P 1"
_space_group_IT_number       1

loop_
  _space_group_symop_operation_xyz
  'x, y, z'

loop_
  _atom_site_type_symbol
  _atom_site_label
  _atom_site_symmetry_multiplicity
  _atom_site_fract_x
  _atom_site_fract_y
  _atom_site_fract_z
  _atom_site_occupancy
  Fe  Fe1       1.0  0.02390  0.20215  0.09899  1.0000
  Fe  Fe2       1.0  0.06202  0.20012  0.12116  1.0000
  S   S1        1.0  0.04894  0.19620  0.15405  1.0000
  S   S2        1.0  0.09379  0.19924  0.11780  1.0000
  Fe  Fe3       1.0  0.03013  0.16520  0.13960  1.0000
  C   C1        1.0  0.26150  0.27009  0.17927  1.0000
  H   H1        1.0  0.26193  0.26765  0.24167  1.0000
  C   C2        1.0  0.23704  0.27269  0.27875  1.0000
  S   S3        1.0  0.04445  0.16698  0.10687  1.0000
  S   S4        1.0  0.04290  0.23550  0.11035  1.0000
  C   C3        1.0  0.01636  0.37241  0.26859  1.0000
  S   S5        1.0  0.06380  0.45492  0.22180  1.0000
  Fe  Fe4       1.0  0.03554  0.41589  0.18036  1.0000
  S   S6        1.0  0.04934  0.39407  0.20832  1.0000
  C   C4        1.0  0.03818  0.03569  0.15810  1.0000
  Fe  Fe5       1.0  0.03786  0.42991  0.22772  1.0000
  Fe  Fe6       1.0  0.07370  0.42099  0.19956  1.0000
  S   S7        1.0  0.10365  0.40388  0.19851  1.0000
  S   S8        1.0  0.06061  0.44057  0.17037  1.0000
  Fe  Fe7       1.0  0.18626  0.43063  0.11978  1.0000
  S   S9        1.0  0.20002  0.43603  0.15161  1.0000
  S   S10       1.0  0.15477  0.43534  0.11713  1.0000
  Fe  Fe8       1.0  0.22349  0.42016  0.09513  1.0000
  S   S11       1.0  0.24001  0.42469  0.12559  1.0000
  S   S12       1.0  0.23836  0.41853  0.06190  1.0000
  Fe  Fe9       1.0  0.21756  0.39889  0.14138  1.0000
  S   S13       1.0  0.22152  0.36652  0.16779  1.0000
  Fe  Fe10      1.0  0.22091  0.46153  0.13317  1.0000
  S   S14       1.0  0.19175  0.00480  0.12326  1.0000
  S   S15       1.0  0.20229  0.39165  0.11054  1.0000
  S   S16       1.0  0.20589  0.45893  0.10170  1.0000
  H   H2        1.0  0.26236  0.39464  0.38348  1.0000
  H   H3        1.0  0.21437  0.26271  0.35888  1.0000
  Fe  Fe11      1.0  0.17775  0.18876  0.19774  1.0000
  S   S17       1.0  0.19238  0.17559  0.16689  1.0000
  S   S18       1.0  0.14629  0.19794  0.20001  1.0000
  Fe  Fe12      1.0  0.21466  0.19136  0.22306  1.0000
  S   S19       1.0  0.23157  0.17865  0.19352  1.0000
  S   S20       1.0  0.23119  0.19498  0.25437  1.0000
  Fe  Fe13      1.0  0.21275  0.20843  0.17539  1.0000
  S   S21       1.0  0.22286  0.23795  0.14919  1.0000
  Fe  Fe14      1.0  0.20960  0.14675  0.18801  1.0000
  S   S22       1.0  0.22015  0.10207  0.18241  1.0000
  S   S23       1.0  0.19721  0.22328  0.20514  1.0000
  S   S24       1.0  0.19357  0.15779  0.21868  1.0000
  Fe  Fe15      1.0  0.04921  0.47341  0.19273  1.0000
  H   H4        1.0  0.25649  0.33702  0.18680  1.0000
  H   H5        1.0  0.24722  0.06775  0.13641  1.0000
  C   C5        1.0  0.23907  0.22409  0.26863  1.0000
  C   C6        1.0  0.23092  0.25059  0.26613  1.0000
  H   H6        1.0  0.21112  0.99024  0.08125  1.0000
  H   H7        1.0  0.07823  0.10529  0.13552  1.0000
  H   H8        1.0  0.14899  0.98892  0.14136  1.0000
  C   C7        1.0  0.03315  0.27203  0.37501  1.0000
  H   H9        1.0  0.02434  0.30839  0.32870  1.0000
  C   C8        1.0  0.02569  0.07550  0.17798  1.0000
  H   H10       1.0  0.01899  0.23515  0.38496  1.0000
  H   H11       1.0  0.16876  0.23499  0.16507  1.0000
  C   C9        1.0  0.26312  0.15624  0.42011  1.0000
  H   H12       1.0  0.23436  0.20936  0.38048  1.0000
  S   S25       1.0  0.02075  0.26092  0.16768  1.0000
  Fe  Fe16      1.0  0.02849  0.22890  0.14260  1.0000
  C   C10       1.0  0.25079  0.02610  0.12439  1.0000
  C   C11       1.0  0.02135  0.30866  0.14242  1.0000
  H   H13       1.0  0.25892  0.14271  0.43335  1.0000
  C   C12       1.0  0.26259  0.43684  0.39504  1.0000
  C   C13       1.0  0.19845  0.03078  0.14150  1.0000
  C   C14       1.0  0.21185  0.02572  0.15740  1.0000
  C   C15       1.0  0.21795  0.04770  0.17014  1.0000
  C   C16       1.0  0.21058  0.07485  0.16735  1.0000
  C   C17       1.0  0.19679  0.07972  0.15186  1.0000
  C   C18       1.0  0.19080  0.05780  0.13899  1.0000
  H   H14       1.0  0.21783  0.00507  0.15957  1.0000
  H   H15       1.0  0.22861  0.04371  0.18212  1.0000
  H   H16       1.0  0.19104  0.10048  0.14948  1.0000
  H   H17       1.0  0.18041  0.06194  0.12674  1.0000
  C   C19       1.0  0.22111  0.27378  0.15415  1.0000
  C   C20       1.0  0.22414  0.29268  0.13706  1.0000
  C   C21       1.0  0.22360  0.32137  0.14083  1.0000
  C   C22       1.0  0.22045  0.33115  0.16183  1.0000
  C   C23       1.0  0.21734  0.31227  0.17886  1.0000
  C   C24       1.0  0.21751  0.28371  0.17501  1.0000
  H   H18       1.0  0.22704  0.28512  0.12088  1.0000
  H   H19       1.0  0.22620  0.33584  0.12764  1.0000
  H   H20       1.0  0.21505  0.31976  0.19517  1.0000
  H   H21       1.0  0.21561  0.26943  0.18837  1.0000
  H   H22       1.0  0.24230  0.00041  0.43094  1.0000
  C   C25       1.0  0.24532  0.39051  0.04480  1.0000
  C   C26       1.0  0.25902  0.24385  0.21270  1.0000
  C   C27       1.0  0.23037  0.06103  0.10847  1.0000
  H   H23       1.0  0.02025  0.34690  0.12381  1.0000
  N   N1        1.0  0.26329  0.29401  0.19064  1.0000
  H   H24       1.0  0.21416  0.04754  0.08181  1.0000
  C   C28       1.0  0.14082  0.42390  0.13917  1.0000
  C   C29       1.0  0.14878  0.41278  0.15801  1.0000
  C   C30       1.0  0.13722  0.40593  0.17594  1.0000
  C   C31       1.0  0.11769  0.41043  0.17519  1.0000
  C   C32       1.0  0.10977  0.42066  0.15606  1.0000
  C   C33       1.0  0.12126  0.42732  0.13814  1.0000
  H   H25       1.0  0.16384  0.40995  0.15894  1.0000
  H   H26       1.0  0.02065  0.29553  0.12844  1.0000
  H   H27       1.0  0.09483  0.42359  0.15494  1.0000
  H   H28       1.0  0.11501  0.43564  0.12354  1.0000
  H   H29       1.0  0.22162  0.23649  0.31645  1.0000
  C   C34       1.0  0.14139  0.48261  0.16611  1.0000
  C   C35       1.0  0.25890  0.47866  0.07377  1.0000
  C   C36       1.0  0.10829  0.20021  0.14070  1.0000
  C   C37       1.0  0.10096  0.20602  0.16138  1.0000
  C   C38       1.0  0.11286  0.20603  0.17929  1.0000
  C   C39       1.0  0.13216  0.19986  0.17677  1.0000
  C   C40       1.0  0.13953  0.19426  0.15607  1.0000
  C   C41       1.0  0.12765  0.19461  0.13812  1.0000
  H   H30       1.0  0.08615  0.21045  0.16366  1.0000
  H   H31       1.0  0.10703  0.21026  0.19525  1.0000
  H   H32       1.0  0.15429  0.18922  0.15386  1.0000
  H   H33       1.0  0.13346  0.19010  0.12219  1.0000
  C   C42       1.0  0.02965  0.09331  0.16035  1.0000
  C   C43       1.0  0.03795  0.08217  0.14157  1.0000
  H   H34       1.0  0.25981  0.19961  0.28587  1.0000
  C   C44       1.0  0.26132  0.18513  0.42230  1.0000
  H   H35       1.0  0.15947  0.26514  0.19580  1.0000
  C   C45       1.0  0.25125  0.26854  0.29409  1.0000
  H   H36       1.0  0.08259  0.14066  0.12673  1.0000
  C   C46       1.0  0.25946  0.24208  0.29647  1.0000
  H   H37       1.0  0.04855  0.04508  0.12587  1.0000
  H   H38       1.0  0.25058  0.98612  0.10959  1.0000
  H   H39       1.0  0.26050  0.01957  0.13688  1.0000
  H   H40       1.0  0.13130  0.13829  0.17789  1.0000
  H   H41       1.0  0.25798  0.41759  0.02094  1.0000
  H   H42       1.0  0.21977  0.25400  0.25467  1.0000
  C   C47       1.0  0.25342  0.22004  0.28379  1.0000
  N   N2        1.0  0.22859  0.22571  0.34898  1.0000
  C   C48       1.0  0.23170  0.20474  0.36368  1.0000
  C   C49       1.0  0.22449  0.21986  0.32802  1.0000
  C   C50       1.0  0.23175  0.17703  0.35725  1.0000
  C   C51       1.0  0.22434  0.19240  0.32102  1.0000
  C   C52       1.0  0.22818  0.17090  0.33572  1.0000
  H   H43       1.0  0.04430  0.30960  0.36119  1.0000
  H   H44       1.0  0.22716  0.00405  0.06107  1.0000
  C   C53       1.0  0.25497  0.39634  0.02520  1.0000
  C   C54       1.0  0.26157  0.26818  0.22412  1.0000
  S   S26       1.0  0.25472  0.07801  0.50608  1.0000
  H   H45       1.0  0.22837  0.14953  0.33042  1.0000
  H   H46       1.0  0.23471  0.16048  0.36888  1.0000
  H   H47       1.0  0.04145  0.27266  0.38952  1.0000
  C   C55       1.0  0.02353  0.29206  0.34092  1.0000
  N   N3        1.0  0.17228  0.31456  0.15927  1.0000
  C   C56       1.0  0.17698  0.29801  0.14206  1.0000
  C   C57       1.0  0.16585  0.30313  0.17832  1.0000
  C   C58       1.0  0.17583  0.26916  0.14389  1.0000
  C   C59       1.0  0.16438  0.27436  0.18065  1.0000
  H   H48       1.0  0.18028  0.25599  0.13053  1.0000
  C   C60       1.0  0.17331  0.34478  0.15707  1.0000
  H   H49       1.0  0.18215  0.30700  0.12697  1.0000
  H   H50       1.0  0.16197  0.31627  0.19189  1.0000
  C   C61       1.0  0.16951  0.25734  0.16333  1.0000
  N   N4        1.0  0.23234  0.01522  0.09360  1.0000
  H   H51       1.0  0.23709  0.25680  0.37089  1.0000
  H   H52       1.0  0.17857  0.35401  0.17214  1.0000
  H   H53       1.0  0.18334  0.35088  0.14392  1.0000
  H   H54       1.0  0.15924  0.35394  0.15343  1.0000
  S   S27       1.0  0.26034  0.05460  0.44682  1.0000
  C   C62       1.0  0.22892  0.25465  0.35585  1.0000
  H   H55       1.0  0.22152  0.18789  0.30420  1.0000
  H   H56       1.0  0.23409  0.35809  0.06502  1.0000
  H   H57       1.0  0.24093  0.45815  0.44224  1.0000
  C   C63       1.0  0.24149  0.36291  0.05004  1.0000
  H   H58       1.0  0.23577  0.26778  0.34319  1.0000
  H   H59       1.0  0.23058  0.29310  0.27680  1.0000
  C   C64       1.0  0.24342  0.05317  0.12407  1.0000
  S   S28       1.0  0.04391  0.99983  0.15568  1.0000
  N   N5        1.0  0.07141  0.30189  0.16092  1.0000
  C   C65       1.0  0.07761  0.31223  0.17995  1.0000
  C   C66       1.0  0.06748  0.31931  0.14386  1.0000
  C   C67       1.0  0.07967  0.34077  0.18238  1.0000
  C   C68       1.0  0.06918  0.34798  0.14583  1.0000
  C   C69       1.0  0.07535  0.35868  0.16521  1.0000
  C   C70       1.0  0.06989  0.27186  0.15847  1.0000
  H   H60       1.0  0.08093  0.29841  0.19340  1.0000
  H   H61       1.0  0.06263  0.31114  0.12874  1.0000
  H   H62       1.0  0.08454  0.34908  0.19748  1.0000
  H   H63       1.0  0.06543  0.36188  0.13256  1.0000
  H   H64       1.0  0.07672  0.38085  0.16696  1.0000
  H   H65       1.0  0.06522  0.26186  0.17391  1.0000
  H   H66       1.0  0.05916  0.26696  0.14640  1.0000
  H   H67       1.0  0.08363  0.26260  0.15310  1.0000
  H   H68       1.0  0.11393  0.14333  0.21284  1.0000
  H   H69       1.0  0.14947  0.46542  0.19701  1.0000
  H   H70       1.0  0.11691  0.46802  0.21250  1.0000
  H   H71       1.0  0.06172  0.13290  0.14197  1.0000
  C   C71       1.0  0.02353  0.34289  0.17855  1.0000
  C   C72       1.0  0.04226  0.05354  0.14052  1.0000
  H   H72       1.0  0.14348  0.39792  0.19064  1.0000
  H   H73       1.0  0.06200  0.13264  0.18000  1.0000
  C   C73       1.0  0.26355  0.29326  0.21278  1.0000
  S   S29       1.0  0.02406  0.12922  0.16275  1.0000
  C   C74       1.0  0.24504  0.00724  0.10897  1.0000
  H   H74       1.0  0.04077  0.09548  0.12774  1.0000
  H   H75       1.0  0.26125  0.31946  0.16203  1.0000
  C   C75       1.0  0.02232  0.35487  0.15792  1.0000
  H   H76       1.0  0.07896  0.14015  0.21388  1.0000
  H   H77       1.0  0.02667  0.03336  0.19051  1.0000
  N   N6        1.0  0.08693  0.13199  0.16014  1.0000
  C   C76       1.0  0.10612  0.13312  0.15950  1.0000
  C   C77       1.0  0.07722  0.13400  0.17943  1.0000
  C   C78       1.0  0.11610  0.13677  0.17848  1.0000
  C   C79       1.0  0.08675  0.13809  0.19869  1.0000
  C   C80       1.0  0.10631  0.13961  0.19814  1.0000
  C   C81       1.0  0.07691  0.12744  0.14008  1.0000
  H   H78       1.0  0.11378  0.13175  0.14417  1.0000
  H   H79       1.0  0.02418  0.35581  0.19259  1.0000
  H   H80       1.0  0.23701  0.47712  0.05029  1.0000
  C   C82       1.0  0.22486  0.04163  0.09335  1.0000
  C   C83       1.0  0.24282  0.98544  0.41795  1.0000
  C   C84       1.0  0.25682  0.34736  0.01618  1.0000
  H   H81       1.0  0.22398  0.08169  0.10870  1.0000
  C   C85       1.0  0.22601  0.99529  0.07773  1.0000
  C   C86       1.0  0.02990  0.04682  0.17688  1.0000
  H   H82       1.0  0.25724  0.26095  0.01372  1.0000
  C   C87       1.0  0.24700  0.99386  0.39675  1.0000
  S   S30       1.0  0.25809  0.29688  0.30997  1.0000
  H   H83       1.0  0.25582  0.19371  0.43732  1.0000
  C   C88       1.0  0.03472  0.29274  0.35916  1.0000
  S   S31       1.0  0.02244  0.45068  0.20005  1.0000
  C   C89       1.0  0.25906  0.24477  0.19011  1.0000
  H   H84       1.0  0.24949  0.01554  0.39313  1.0000
  C   C90       1.0  0.02314  0.31403  0.18119  1.0000
  H   H85       1.0  0.02362  0.30497  0.19730  1.0000
  S   S32       1.0  0.02353  0.42829  0.26114  1.0000
  H   H86       1.0  0.25694  0.22608  0.18096  1.0000
  H   H87       1.0  0.15544  0.48081  0.15898  1.0000
  H   H88       1.0  0.02294  0.36843  0.25296  1.0000
  C   C91       1.0  0.01553  0.39942  0.27657  1.0000
  H   H89       1.0  0.01919  0.08389  0.19254  1.0000
  H   H90       1.0  0.24871  0.44200  0.38912  1.0000
  S   S33       1.0  0.02182  0.39118  0.15451  1.0000
  C   C92       1.0  0.24718  0.34151  0.03579  1.0000
  H   H91       1.0  0.25699  0.22436  0.22134  1.0000
  S   S34       1.0  0.26231  0.30758  0.37206  1.0000
  C   C93       1.0  0.24943  0.46232  0.45618  1.0000
  H   H92       1.0  0.26130  0.27054  0.16171  1.0000
  H   H93       1.0  0.24409  0.32028  0.04000  1.0000
  C   C94       1.0  0.02042  0.25081  0.37230  1.0000
  C   C95       1.0  0.02117  0.33770  0.13983  1.0000
  C   C96       1.0  0.11979  0.47538  0.19612  1.0000
  C   C97       1.0  0.13803  0.47391  0.18743  1.0000
  C   C98       1.0  0.02202  0.29685  0.16319  1.0000
  S   S35       1.0  0.26417  0.23906  0.40880  1.0000
  C   C99       1.0  0.26432  0.44403  0.46117  1.0000
  Fe  Fe17      1.0  0.03514  0.45674  0.59166  1.0000
  Fe  Fe18      1.0  0.06951  0.44397  0.61989  1.0000
  S   S36       1.0  0.05219  0.43039  0.64854  1.0000
  S   S37       1.0  0.10117  0.44482  0.61865  1.0000
  Fe  Fe19      1.0  0.03483  0.40815  0.62462  1.0000
  C   C100      1.0  0.25098  0.10623  0.52398  1.0000
  H   H94       1.0  0.06190  0.32674  0.68687  1.0000
  C   C101      1.0  0.03244  0.33792  0.64465  1.0000
  S   S38       1.0  0.05374  0.41878  0.59637  1.0000
  C   C102      1.0  0.25374  0.06623  0.62074  1.0000
  Fe  Fe20      1.0  0.07018  0.17137  0.70304  1.0000
  S   S39       1.0  0.05995  0.19204  0.67286  1.0000
  S   S40       1.0  0.10043  0.15644  0.70569  1.0000
  Fe  Fe21      1.0  0.03188  0.17917  0.72702  1.0000
  Fe  Fe22      1.0  0.03436  0.16659  0.67904  1.0000
  H   H95       1.0  0.26445  0.27800  0.66074  1.0000
  Fe  Fe23      1.0  0.04591  0.22374  0.69426  1.0000
  S   S41       1.0  0.04544  0.14396  0.70832  1.0000
  S   S42       1.0  0.05794  0.20453  0.72443  1.0000
  H   H96       1.0  0.07419  0.02036  0.62762  1.0000
  H   H97       1.0  0.07782  0.11981  0.67995  1.0000
  H   H98       1.0  0.16099  0.37115  0.69117  1.0000
  Fe  Fe24      1.0  0.21761  0.44443  0.72364  1.0000
  S   S43       1.0  0.23301  0.43267  0.69255  1.0000
  S   S44       1.0  0.23435  0.44348  0.75480  1.0000
  Fe  Fe25      1.0  0.18051  0.45451  0.70035  1.0000
  S   S45       1.0  0.19388  0.44476  0.66838  1.0000
  C   C103      1.0  0.22949  0.09026  0.73476  1.0000
  Fe  Fe26      1.0  0.20740  0.40800  0.68500  1.0000
  S   S46       1.0  0.20047  0.37067  0.66443  1.0000
  H   H99       1.0  0.23907  0.40413  0.86845  1.0000
  H   H100      1.0  0.15907  0.46119  0.65633  1.0000
  S   S47       1.0  0.19309  0.41698  0.71707  1.0000
  C   C104      1.0  0.15409  0.39138  0.68701  1.0000
  H   H101      1.0  0.24391  0.01805  0.81334  1.0000
  H   H102      1.0  0.14290  0.38025  0.61456  1.0000
  H   H103      1.0  0.14014  0.45309  0.62422  1.0000
  Fe  Fe27      1.0  0.18673  0.17577  0.62961  1.0000
  S   S48       1.0  0.19952  0.17802  0.66240  1.0000
  S   S49       1.0  0.15523  0.17692  0.62519  1.0000
  Fe  Fe28      1.0  0.22469  0.17334  0.60569  1.0000
  S   S50       1.0  0.24010  0.17536  0.63701  1.0000
  S   S51       1.0  0.24364  0.17431  0.57545  1.0000
  Fe  Fe29      1.0  0.21930  0.14482  0.64971  1.0000
  S   S52       1.0  0.22929  0.11008  0.67190  1.0000
  Fe  Fe30      1.0  0.21900  0.20858  0.64686  1.0000
  S   S53       1.0  0.22987  0.24488  0.66579  1.0000
  S   S54       1.0  0.20528  0.14028  0.61774  1.0000
  S   S55       1.0  0.20489  0.20890  0.61468  1.0000
  C   C105      1.0  0.24558  0.14834  0.55533  1.0000
  C   C106      1.0  0.25874  0.06267  0.58276  1.0000
  C   C107      1.0  0.22907  0.26420  0.95846  1.0000
  C   C108      1.0  0.22845  0.43481  0.82020  1.0000
  C   C109      1.0  0.23374  0.12565  0.55533  1.0000
  H   H104      1.0  0.11646  0.39122  0.68859  1.0000
  H   H105      1.0  0.23492  0.10286  0.72087  1.0000
  H   H106      1.0  0.25296  0.00962  0.59051  1.0000
  C   C110      1.0  0.13335  0.45471  0.64000  1.0000
  C   C111      1.0  0.21691  0.02054  0.65513  1.0000
  C   C112      1.0  0.22667  0.02650  0.67385  1.0000
  C   C113      1.0  0.23012  0.05411  0.67902  1.0000
  C   C114      1.0  0.22328  0.07592  0.66593  1.0000
  C   C115      1.0  0.21274  0.06998  0.64778  1.0000
  C   C116      1.0  0.20984  0.04231  0.64219  1.0000
  H   H107      1.0  0.23226  0.00976  0.68383  1.0000
  C   C117      1.0  0.24091  0.47345  0.76881  1.0000
  H   H108      1.0  0.20727  0.08658  0.63768  1.0000
  H   H109      1.0  0.20213  0.03777  0.62779  1.0000
  C   C118      1.0  0.20799  0.33542  0.66617  1.0000
  C   C119      1.0  0.22123  0.32598  0.68115  1.0000
  C   C120      1.0  0.22726  0.29792  0.68132  1.0000
  C   C121      1.0  0.22014  0.27906  0.66657  1.0000
  C   C122      1.0  0.20664  0.28838  0.65186  1.0000
  C   C123      1.0  0.20066  0.31645  0.65163  1.0000
  H   H110      1.0  0.22694  0.34031  0.69246  1.0000
  H   H111      1.0  0.23767  0.29087  0.69281  1.0000
  C   C124      1.0  0.04502  0.29517  0.67317  1.0000
  C   C125      1.0  0.26257  0.12919  0.52373  1.0000
  H   H112      1.0  0.02012  0.00642  0.56034  1.0000
  H   H113      1.0  0.22737  0.08710  0.54005  1.0000
  C   C126      1.0  0.06571  0.07943  0.68286  1.0000
  H   H114      1.0  0.16518  0.40621  0.68248  1.0000
  C   C127      1.0  0.24832  0.98812  0.75519  1.0000
  H   H115      1.0  0.08477  0.24511  0.66852  1.0000
  C   C128      1.0  0.23569  0.42036  0.85669  1.0000
  H   H116      1.0  0.24972  0.05698  0.63615  1.0000
  H   H117      1.0  0.19040  0.32357  0.64001  1.0000
  S   S56       1.0  0.21500  0.98612  0.64674  1.0000
  H   H118      1.0  0.19224  0.01345  0.73846  1.0000
  H   H119      1.0  0.23640  0.30748  0.61963  1.0000
  H   H120      1.0  0.13299  0.23529  0.62615  1.0000
  Fe  Fe31      1.0  0.21761  0.47007  0.67910  1.0000
  H   H121      1.0  0.22553  0.10427  0.74832  1.0000
  H   H122      1.0  0.22343  0.28154  0.58926  1.0000
  S   S57       1.0  0.14923  0.46463  0.70221  1.0000
  C   C129      1.0  0.02666  0.05984  0.63959  1.0000
  C   C130      1.0  0.11550  0.15985  0.68282  1.0000
  C   C131      1.0  0.13501  0.15765  0.68545  1.0000
  C   C132      1.0  0.14737  0.16170  0.66772  1.0000
  C   C133      1.0  0.14030  0.16791  0.64720  1.0000
  C   C134      1.0  0.12078  0.16903  0.64443  1.0000
  C   C135      1.0  0.10844  0.16507  0.66217  1.0000
  H   H123      1.0  0.14059  0.15326  0.70133  1.0000
  H   H124      1.0  0.16233  0.16039  0.67003  1.0000
  H   H125      1.0  0.11520  0.17359  0.62858  1.0000
  H   H126      1.0  0.09350  0.16598  0.65973  1.0000
  N   N7        1.0  0.23099  0.46872  0.84808  1.0000
  H   H127      1.0  0.08918  0.24848  0.70659  1.0000
  C   C136      1.0  0.11384  0.45228  0.64197  1.0000
  S   S58       1.0  0.03002  0.46823  0.55628  1.0000
  C   C137      1.0  0.14418  0.45899  0.65830  1.0000
  C   C138      1.0  0.13568  0.46071  0.67883  1.0000
  C   C139      1.0  0.11605  0.45896  0.68079  1.0000
  C   C140      1.0  0.10513  0.45465  0.66241  1.0000
  C   C141      1.0  0.19455  0.03384  0.73144  1.0000
  C   C142      1.0  0.24209  0.24617  0.59377  1.0000
  C   C143      1.0  0.23914  0.26523  0.97765  1.0000
  H   H128      1.0  0.25857  0.10613  0.63479  1.0000
  C   C144      1.0  0.25536  0.47126  0.78400  1.0000
  C   C145      1.0  0.02563  0.31090  0.64321  1.0000
  H   H129      1.0  0.10930  0.46045  0.69661  1.0000
  C   C146      1.0  0.24520  0.00991  0.79712  1.0000
  H   H130      1.0  0.21757  0.27887  0.95557  1.0000
  H   H131      1.0  0.08555  0.00638  0.65134  1.0000
  H   H132      1.0  0.05772  0.08426  0.69754  1.0000
  S   S59       1.0  0.01666  0.01354  0.66365  1.0000
  C   C147      1.0  0.18512  0.07142  0.70762  1.0000
  C   C148      1.0  0.25904  0.09395  0.62010  1.0000
  C   C149      1.0  0.02415  0.10674  0.65393  1.0000
  H   H133      1.0  0.09007  0.45270  0.66412  1.0000
  C   C150      1.0  0.18212  0.04504  0.71629  1.0000
  N   N8        1.0  0.25336  0.05110  0.60219  1.0000
  H   H134      1.0  0.21666  0.99588  0.79667  1.0000
  H   H135      1.0  0.17561  0.08033  0.69575  1.0000
  H   H136      1.0  0.13859  0.22681  0.69483  1.0000
  H   H137      1.0  0.25809  0.05102  0.56788  1.0000
  H   H138      1.0  0.22611  0.42996  0.80334  1.0000
  H   H139      1.0  0.23525  0.28091  0.98948  1.0000
  H   H140      1.0  0.09361  0.06163  0.63050  1.0000
  H   H141      1.0  0.02886  0.26971  0.76900  1.0000
  C   C151      1.0  0.02842  0.08866  0.63677  1.0000
  H   H142      1.0  0.02996  0.04603  0.62632  1.0000
  C   C152      1.0  0.04568  0.34340  0.66036  1.0000
  H   H143      1.0  0.03307  0.09701  0.62129  1.0000
  H   H144      1.0  0.24124  0.07619  0.73992  1.0000
  H   H145      1.0  0.23849  0.05850  0.69292  1.0000
  H   H146      1.0  0.17022  0.03323  0.71127  1.0000
  C   C153      1.0  0.01818  0.09590  0.67389  1.0000
  H   H147      1.0  0.03541  0.23643  0.75750  1.0000
  C   C154      1.0  0.22978  0.99735  0.78760  1.0000
  S   S60       1.0  0.05267  0.26969  0.69223  1.0000
  C   C155      1.0  0.12236  0.38812  0.67245  1.0000
  H   H148      1.0  0.21979  0.03991  0.74898  1.0000
  H   H149      1.0  0.15299  0.22693  0.65803  1.0000
  H   H150      1.0  0.10825  0.38099  0.62064  1.0000
  H   H151      1.0  0.06019  0.00932  0.65033  1.0000
  C   C156      1.0  0.23647  0.10472  0.53976  1.0000
  C   C157      1.0  0.10266  0.23635  0.70573  1.0000
  H   H152      1.0  0.05095  0.36411  0.66173  1.0000
  C   C158      1.0  0.05186  0.32215  0.67458  1.0000
  S   S61       1.0  0.02378  0.36421  0.62682  1.0000
  C   C159      1.0  0.11760  0.38211  0.63426  1.0000
  H   H153      1.0  0.23060  0.02387  0.60017  1.0000
  N   N9        1.0  0.21315  0.07459  0.72843  1.0000
  C   C160      1.0  0.22744  0.46234  0.82707  1.0000
  C   C161      1.0  0.26244  0.01095  0.78594  1.0000
  C   C162      1.0  0.03192  0.28957  0.65734  1.0000
  C   C163      1.0  0.20063  0.08618  0.71418  1.0000
  H   H154      1.0  0.11221  0.24532  0.71763  1.0000
  H   H155      1.0  0.16394  0.38490  0.64574  1.0000
  C   C164      1.0  0.21011  0.04895  0.73734  1.0000
  C   C165      1.0  0.25641  0.23452  0.60628  1.0000
  H   H156      1.0  0.20287  0.10668  0.70735  1.0000
  S   S62       1.0  0.02545  0.14282  0.64991  1.0000
  H   H157      1.0  0.22263  0.12405  0.56746  1.0000
  H   H158      1.0  0.23682  0.45311  0.87980  1.0000
  C   C166      1.0  0.06470  0.05322  0.67362  1.0000
  H   H159      1.0  0.09857  0.24444  0.63148  1.0000
  H   H160      1.0  0.05588  0.03785  0.68141  1.0000
  S   S63       1.0  0.01894  0.20042  0.69786  1.0000
  C   C167      1.0  0.07354  0.01947  0.64561  1.0000
  C   C168      1.0  0.23484  0.27256  0.59861  1.0000
  H   H161      1.0  0.25586  0.31005  0.64951  1.0000
  H   H162      1.0  0.14669  0.39997  0.70156  1.0000
  C   C169      1.0  0.08563  0.06657  0.64515  1.0000
  N   N10       1.0  0.14140  0.38820  0.66890  1.0000
  H   H163      1.0  0.03002  0.39013  0.54220  1.0000
  C   C170      1.0  0.23278  0.41375  0.83511  1.0000
  N   N11       1.0  0.25396  0.24722  0.98120  1.0000
  H   H164      1.0  0.23388  0.39234  0.82995  1.0000
  C   C171      1.0  0.07691  0.09941  0.67294  1.0000
  H   H165      1.0  0.09990  0.21459  0.71059  1.0000
  N   N12       1.0  0.07438  0.04724  0.65482  1.0000
  C   C172      1.0  0.02010  0.04918  0.65943  1.0000
  C   C173      1.0  0.14882  0.38483  0.64848  1.0000
  H   H166      1.0  0.02652  0.26892  0.65607  1.0000
  C   C174      1.0  0.24225  0.28710  0.61581  1.0000
  H   H167      1.0  0.09505  0.38608  0.65787  1.0000
  C   C175      1.0  0.24599  0.02299  0.60295  1.0000
  C   C176      1.0  0.13704  0.38195  0.63083  1.0000
  C   C177      1.0  0.11017  0.38506  0.65520  1.0000
  Fe  Fe32      1.0  0.03410  0.46783  0.64010  1.0000
  C   C178      1.0  0.23439  0.24479  0.94278  1.0000
  H   H168      1.0  0.09588  0.10837  0.64634  1.0000
  H   H169      1.0  0.20109  0.27410  0.64040  1.0000
  C   C179      1.0  0.08701  0.09297  0.65402  1.0000
  C   C180      1.0  0.23455  0.44812  0.86298  1.0000
  H   H170      1.0  0.26187  0.21381  0.60284  1.0000
  N   N13       1.0  0.11101  0.23706  0.68386  1.0000
  C   C181      1.0  0.09981  0.24159  0.66634  1.0000
  C   C182      1.0  0.12987  0.23174  0.68104  1.0000
  C   C183      1.0  0.10754  0.24140  0.64534  1.0000
  C   C184      1.0  0.13811  0.23185  0.66030  1.0000
  C   C185      1.0  0.12683  0.23654  0.64235  1.0000
  H   H171      1.0  0.02965  0.28813  0.73124  1.0000
  C   C186      1.0  0.26379  0.00049  0.76478  1.0000
  H   H172      1.0  0.26265  0.45154  0.78643  1.0000
  H   H173      1.0  0.24826  0.01286  0.61902  1.0000
  H   H174      1.0  0.23641  0.23448  0.58059  1.0000
  C   C187      1.0  0.25924  0.22815  0.96593  1.0000
  N   N14       1.0  0.25633  0.27549  0.62798  1.0000
  C   C188      1.0  0.25986  0.15012  0.53932  1.0000
  C   C189      1.0  0.01598  0.06725  0.67655  1.0000
  H   H175      1.0  0.22703  0.24417  0.92759  1.0000
  H   H176      1.0  0.22410  0.47864  0.81538  1.0000
  H   H177      1.0  0.02335  0.43414  0.51702  1.0000
  S   S64       1.0  0.04087  0.98644  0.60802  1.0000
  C   C190      1.0  0.26334  0.24949  0.62350  1.0000
  C   C191      1.0  0.26433  0.29097  0.64572  1.0000
  C   C192      1.0  0.02340  0.25038  0.76222  1.0000
  S   S65       1.0  0.01779  0.17987  0.76069  1.0000
  H   H178      1.0  0.02325  0.37434  0.57982  1.0000
  C   C193      1.0  0.01725  0.39742  0.55040  1.0000
  C   C194      1.0  0.01700  0.27655  0.72883  1.0000
  C   C195      1.0  0.23137  0.98587  0.76681  1.0000
  H   H179      1.0  0.26145  0.44342  0.93394  1.0000
  H   H180      1.0  0.25423  0.21195  0.93421  1.0000
  C   C196      1.0  0.26072  0.37494  0.01098  1.0000
  C   C197      1.0  0.24956  0.22662  0.94651  1.0000
  S   S66       1.0  0.26340  0.31950  0.99874  1.0000
  H   H181      1.0  0.01540  0.30645  0.63110  1.0000
  S   S67       1.0  0.20339  0.48286  0.71022  1.0000
  S   S68       1.0  0.05270  0.48276  0.61294  1.0000
  C   C198      1.0  0.26461  0.10587  0.60039  1.0000
  H   H182      1.0  0.01529  0.23971  0.77531  1.0000
  S   S69       1.0  0.01496  0.44463  0.61849  1.0000
  Fe  Fe33      1.0  0.03476  0.70817  0.08939  1.0000
  Fe  Fe34      1.0  0.06997  0.69778  0.11675  1.0000
  S   S70       1.0  0.05378  0.68133  0.14533  1.0000
  S   S71       1.0  0.10148  0.70136  0.11560  1.0000
  Fe  Fe35      1.0  0.03705  0.65835  0.12128  1.0000
  C   C199      1.0  0.03562  0.58750  0.14052  1.0000
  Fe  Fe36      1.0  0.03414  0.71738  0.13807  1.0000
  C   C200      1.0  0.25620  0.84725  0.01355  1.0000
  S   S72       1.0  0.05502  0.67185  0.09302  1.0000
  S   S73       1.0  0.05149  0.73527  0.11084  1.0000
  Fe  Fe37      1.0  0.03871  0.96315  0.17858  1.0000
  S   S74       1.0  0.05232  0.95436  0.21064  1.0000
  Fe  Fe38      1.0  0.02724  0.90190  0.17486  1.0000
  S   S75       1.0  0.04026  0.88902  0.20623  1.0000
  H   H183      1.0  0.14552  0.66260  0.20383  1.0000
  Fe  Fe39      1.0  0.02688  0.92847  0.21872  1.0000
  Fe  Fe40      1.0  0.06417  0.91560  0.19507  1.0000
  S   S76       1.0  0.09475  0.90183  0.19695  1.0000
  S   S77       1.0  0.05196  0.92549  0.16293  1.0000
  Fe  Fe41      1.0  0.17551  0.90801  0.11244  1.0000
  S   S78       1.0  0.18661  0.92603  0.14254  1.0000
  S   S79       1.0  0.14493  0.89685  0.11082  1.0000
  Fe  Fe42      1.0  0.21299  0.91518  0.08702  1.0000
  S   S80       1.0  0.22651  0.93408  0.11593  1.0000
  S   S81       1.0  0.22804  0.91741  0.05393  1.0000
  Fe  Fe43      1.0  0.21224  0.89966  0.13459  1.0000
  S   S82       1.0  0.22312  0.87386  0.16257  1.0000
  Fe  Fe44      1.0  0.19937  0.95859  0.12110  1.0000
  S   S83       1.0  0.23400  0.50077  0.14580  1.0000
  S   S84       1.0  0.20031  0.87941  0.10553  1.0000
  S   S85       1.0  0.18675  0.94174  0.09107  1.0000
  H   H184      1.0  0.24523  0.81962  0.03813  1.0000
  H   H185      1.0  0.25403  0.69401  0.29222  1.0000
  Fe  Fe45      1.0  0.17775  0.70621  0.19963  1.0000
  S   S86       1.0  0.19006  0.69169  0.16819  1.0000
  S   S87       1.0  0.14732  0.72135  0.20076  1.0000
  Fe  Fe46      1.0  0.21453  0.69378  0.22337  1.0000
  S   S88       1.0  0.22900  0.67762  0.19293  1.0000
  S   S89       1.0  0.23103  0.69195  0.25471  1.0000
  Fe  Fe47      1.0  0.21524  0.71528  0.17745  1.0000
  S   S90       1.0  0.22836  0.74324  0.15206  1.0000
  Fe  Fe48      1.0  0.20209  0.65536  0.18679  1.0000
  S   S91       1.0  0.19238  0.61426  0.17321  1.0000
  S   S92       1.0  0.20222  0.73236  0.20793  1.0000
  S   S93       1.0  0.18851  0.66903  0.21828  1.0000
  H   H186      1.0  0.23241  0.52575  0.46921  1.0000
  C   C201      1.0  0.02370  0.77908  0.16217  1.0000
  H   H187      1.0  0.15949  0.64332  0.15884  1.0000
  C   C202      1.0  0.23826  0.72031  0.27031  1.0000
  N   N15       1.0  0.23080  0.65368  0.45416  1.0000
  H   H188      1.0  0.02506  0.62931  0.07611  1.0000
  C   C203      1.0  0.02679  0.79731  0.17911  1.0000
  H   H189      1.0  0.23570  0.66849  0.48591  1.0000
  C   C204      1.0  0.25018  0.71517  0.28791  1.0000
  H   H190      1.0  0.20118  0.85686  0.01896  1.0000
  H   H191      1.0  0.26106  0.77660  0.17853  1.0000
  S   S94       1.0  0.02736  0.71701  0.05407  1.0000
  H   H192      1.0  0.22414  0.75204  0.25151  1.0000
  S   S95       1.0  0.26361  0.79320  0.30628  1.0000
  C   C205      1.0  0.23076  0.50494  0.46202  1.0000
  N   N16       1.0  0.23869  0.52374  0.09065  1.0000
  H   H193      1.0  0.02969  0.65333  0.05451  1.0000
  C   C206      1.0  0.01874  0.83657  0.15588  1.0000
  S   S96       1.0  0.25196  0.56841  0.49564  1.0000
  C   C207      1.0  0.23227  0.51058  0.07289  1.0000
  C   C208      1.0  0.04917  0.59281  0.15592  1.0000
  C   C209      1.0  0.22208  0.53167  0.15433  1.0000
  C   C210      1.0  0.20259  0.53522  0.15287  1.0000
  C   C211      1.0  0.19381  0.56062  0.15880  1.0000
  C   C212      1.0  0.20435  0.58271  0.16631  1.0000
  C   C213      1.0  0.22385  0.57913  0.16780  1.0000
  C   C214      1.0  0.23264  0.55375  0.16180  1.0000
  H   H194      1.0  0.19430  0.51848  0.14708  1.0000
  H   H195      1.0  0.17873  0.56317  0.15757  1.0000
  H   H196      1.0  0.23214  0.59589  0.17356  1.0000
  H   H197      1.0  0.24773  0.55122  0.16300  1.0000
  C   C215      1.0  0.22609  0.77950  0.15508  1.0000
  C   C216      1.0  0.22875  0.79686  0.13695  1.0000
  C   C217      1.0  0.22749  0.82584  0.13898  1.0000
  C   C218      1.0  0.22407  0.83763  0.15929  1.0000
  C   C219      1.0  0.22160  0.82029  0.17745  1.0000
  C   C220      1.0  0.22231  0.79134  0.17530  1.0000
  H   H198      1.0  0.23191  0.78788  0.12128  1.0000
  H   H199      1.0  0.22975  0.83905  0.12494  1.0000
  H   H200      1.0  0.21903  0.82930  0.19321  1.0000
  H   H201      1.0  0.22058  0.77830  0.18946  1.0000
  H   H202      1.0  0.23282  0.73033  0.43540  1.0000
  C   C221      1.0  0.23958  0.89000  0.03940  1.0000
  H   H203      1.0  0.23072  0.85704  0.06073  1.0000
  C   C222      1.0  0.26091  0.73941  0.19814  1.0000
  S   S97       1.0  0.25333  0.56333  0.43387  1.0000
  C   C223      1.0  0.11553  0.64025  0.13900  1.0000
  H   H204      1.0  0.09099  0.48673  0.19019  1.0000
  C   C224      1.0  0.13127  0.89672  0.13499  1.0000
  C   C225      1.0  0.13953  0.89734  0.15534  1.0000
  C   C226      1.0  0.12821  0.89865  0.17423  1.0000
  C   C227      1.0  0.10855  0.89957  0.17293  1.0000
  C   C228      1.0  0.10033  0.89835  0.15260  1.0000
  C   C229      1.0  0.11164  0.89673  0.13374  1.0000
  H   H205      1.0  0.15461  0.89674  0.15660  1.0000
  H   H206      1.0  0.13469  0.89924  0.18991  1.0000
  H   H207      1.0  0.08529  0.89854  0.15134  1.0000
  H   H208      1.0  0.10514  0.89603  0.11808  1.0000
  H   H209      1.0  0.12675  0.95951  0.10475  1.0000
  H   H210      1.0  0.22439  0.62199  0.47739  1.0000
  C   C230      1.0  0.22865  0.66043  0.43275  1.0000
  C   C231      1.0  0.11350  0.70891  0.13938  1.0000
  C   C232      1.0  0.10431  0.71060  0.15960  1.0000
  C   C233      1.0  0.11472  0.71486  0.17837  1.0000
  C   C234      1.0  0.13433  0.71725  0.17700  1.0000
  C   C235      1.0  0.14332  0.71631  0.15670  1.0000
  C   C236      1.0  0.13298  0.71210  0.13801  1.0000
  H   H211      1.0  0.08928  0.70810  0.16083  1.0000
  H   H212      1.0  0.10763  0.71574  0.19401  1.0000
  H   H213      1.0  0.15821  0.71914  0.15525  1.0000
  H   H214      1.0  0.14013  0.71102  0.12241  1.0000
  C   C237      1.0  0.04806  0.54475  0.16921  1.0000
  H   H215      1.0  0.22370  0.56224  0.08736  1.0000
  H   H216      1.0  0.01936  0.85995  0.35780  1.0000
  H   H217      1.0  0.25184  0.98064  0.36400  1.0000
  C   C238      1.0  0.02458  0.82602  0.17589  1.0000
  S   S98       1.0  0.01569  0.69318  0.11636  1.0000
  C   C239      1.0  0.24956  0.89626  0.02011  1.0000
  H   H218      1.0  0.01593  0.77560  0.12883  1.0000
  C   C240      1.0  0.25503  0.51486  0.10014  1.0000
  C   C241      1.0  0.25749  0.73718  0.29968  1.0000
  H   H219      1.0  0.21712  0.49656  0.46770  1.0000
  N   N17       1.0  0.24592  0.94655  0.38515  1.0000
  C   C242      1.0  0.23829  0.86224  0.04593  1.0000
  C   C243      1.0  0.25293  0.76463  0.29397  1.0000
  H   H220      1.0  0.13666  0.62904  0.21144  1.0000
  C   C244      1.0  0.24654  0.84104  0.03306  1.0000
  C   C245      1.0  0.23334  0.74775  0.26493  1.0000
  H   H221      1.0  0.23748  0.95072  0.43916  1.0000
  H   H222      1.0  0.03085  0.78919  0.19479  1.0000
  H   H223      1.0  0.07022  0.96851  0.12968  1.0000
  C   C246      1.0  0.23184  0.70888  0.44078  1.0000
  H   H224      1.0  0.08012  0.49202  0.15216  1.0000
  H   H225      1.0  0.23691  0.79088  0.27224  1.0000
  H   H226      1.0  0.06570  0.57594  0.18212  1.0000
  H   H227      1.0  0.01798  0.55630  0.12760  1.0000
  C   C247      1.0  0.22741  0.54661  0.10000  1.0000
  C   C248      1.0  0.14415  0.96721  0.14195  1.0000
  C   C249      1.0  0.01570  0.81831  0.13891  1.0000
  H   H228      1.0  0.02892  0.51886  0.15275  1.0000
  C   C250      1.0  0.23428  0.70176  0.46253  1.0000
  H   H229      1.0  0.24599  0.61677  0.46206  1.0000
  C   C251      1.0  0.22886  0.68814  0.42580  1.0000
  C   C252      1.0  0.23120  0.62453  0.46114  1.0000
  S   S99       1.0  0.02591  0.74327  0.16694  1.0000
  C   C253      1.0  0.09224  0.97142  0.15289  1.0000
  C   C254      1.0  0.24234  0.48802  0.06408  1.0000
  H   H230      1.0  0.12907  0.49846  0.13696  1.0000
  H   H231      1.0  0.22723  0.64436  0.42078  1.0000
  H   H232      1.0  0.25588  0.72661  0.18526  1.0000
  C   C255      1.0  0.13508  0.64162  0.13911  1.0000
  C   C256      1.0  0.09775  0.96369  0.11478  1.0000
  C   C257      1.0  0.24840  0.97401  0.38042  1.0000
  C   C258      1.0  0.14421  0.64084  0.19857  1.0000
  H   H233      1.0  0.01689  0.62217  0.04934  1.0000
  S   S100      1.0  0.05649  0.51894  0.18764  1.0000
  C   C259      1.0  0.05535  0.57153  0.17014  1.0000
  H   H234      1.0  0.23439  0.92698  0.35803  1.0000
  C   C260      1.0  0.01844  0.78961  0.14193  1.0000
  C   C261      1.0  0.24007  0.95747  0.42258  1.0000
  H   H235      1.0  0.14299  0.64328  0.12398  1.0000
  H   H236      1.0  0.02669  0.83979  0.18916  1.0000
  C   C262      1.0  0.24736  0.92622  0.36771  1.0000
  H   H237      1.0  0.22362  0.61133  0.44977  1.0000
  H   H238      1.0  0.23992  0.91639  0.40973  1.0000
  H   H239      1.0  0.09245  0.96071  0.09866  1.0000
  C   C263      1.0  0.12635  0.49247  0.15369  1.0000
  H   H240      1.0  0.24959  0.90476  0.37414  1.0000
  C   C264      1.0  0.03464  0.53935  0.15369  1.0000
  H   H241      1.0  0.25944  0.67496  0.36965  1.0000
  C   C265      1.0  0.02845  0.56064  0.13944  1.0000
  S   S101      1.0  0.02724  0.61371  0.12237  1.0000
  C   C266      1.0  0.24066  0.76973  0.27670  1.0000
  C   C267      1.0  0.10543  0.63939  0.15857  1.0000
  H   H242      1.0  0.10716  0.63956  0.19321  1.0000
  H   H243      1.0  0.02079  0.87187  0.25068  1.0000
  C   C268      1.0  0.01907  0.63881  0.06118  1.0000
  H   H244      1.0  0.23501  0.55731  0.11291  1.0000
  C   C269      1.0  0.24163  0.93817  0.40588  1.0000
  H   H245      1.0  0.21907  0.51709  0.06571  1.0000
  C   C270      1.0  0.11512  0.63963  0.17805  1.0000
  C   C271      1.0  0.26377  0.76755  0.19438  1.0000
  C   C272      1.0  0.23369  0.67389  0.46899  1.0000
  H   H246      1.0  0.21433  0.53837  0.10750  1.0000
  H   H247      1.0  0.10816  0.64095  0.12377  1.0000
  H   H248      1.0  0.09018  0.63925  0.15859  1.0000
  C   C273      1.0  0.14431  0.64176  0.15888  1.0000
  N   N18       1.0  0.06900  0.82549  0.15200  1.0000
  C   C274      1.0  0.06716  0.79864  0.14567  1.0000
  C   C275      1.0  0.07696  0.83119  0.17138  1.0000
  C   C276      1.0  0.07295  0.77662  0.15910  1.0000
  C   C277      1.0  0.08299  0.80967  0.18517  1.0000
  C   C278      1.0  0.08092  0.78222  0.17897  1.0000
  C   C279      1.0  0.06329  0.84838  0.13757  1.0000
  H   H249      1.0  0.06087  0.79405  0.13032  1.0000
  H   H250      1.0  0.07864  0.85248  0.17632  1.0000
  H   H251      1.0  0.07104  0.75536  0.15423  1.0000
  H   H252      1.0  0.08921  0.81434  0.20056  1.0000
  H   H253      1.0  0.08545  0.76527  0.18951  1.0000
  H   H254      1.0  0.05671  0.86566  0.14700  1.0000
  H   H255      1.0  0.07571  0.85606  0.12837  1.0000
  H   H256      1.0  0.05255  0.84190  0.12597  1.0000
  N   N19       1.0  0.17852  0.78784  0.14908  1.0000
  C   C280      1.0  0.18040  0.81478  0.14236  1.0000
  C   C281      1.0  0.17267  0.78186  0.16981  1.0000
  C   C282      1.0  0.17696  0.83654  0.15675  1.0000
  C   C283      1.0  0.16908  0.80312  0.18463  1.0000
  C   C284      1.0  0.17133  0.83063  0.17803  1.0000
  C   C285      1.0  0.18195  0.76528  0.13372  1.0000
  H   H257      1.0  0.18497  0.81960  0.12592  1.0000
  H   H258      1.0  0.17090  0.76055  0.17509  1.0000
  H   H259      1.0  0.17906  0.85781  0.15153  1.0000
  H   H260      1.0  0.16466  0.79817  0.20112  1.0000
  H   H261      1.0  0.16884  0.84737  0.18938  1.0000
  H   H262      1.0  0.18783  0.74655  0.14205  1.0000
  H   H263      1.0  0.16863  0.75999  0.12588  1.0000
  H   H264      1.0  0.19257  0.77106  0.12111  1.0000
  H   H265      1.0  0.26174  0.70621  0.22187  1.0000
  H   H266      1.0  0.05474  0.61336  0.15700  1.0000
  N   N20       1.0  0.13433  0.64025  0.17800  1.0000
  H   H267      1.0  0.15855  0.63126  0.19697  1.0000
  H   H268      1.0  0.22751  0.69337  0.40875  1.0000
  H   H269      1.0  0.25972  0.93035  0.35694  1.0000
  H   H270      1.0  0.09622  0.50394  0.13171  1.0000
  C   C286      1.0  0.09285  0.50453  0.14933  1.0000
  H   H271      1.0  0.23686  0.71769  0.47426  1.0000
  H   H272      1.0  0.23447  0.97556  0.07802  1.0000
  H   H273      1.0  0.08928  0.52622  0.15404  1.0000
  N   N21       1.0  0.10848  0.49365  0.16230  1.0000
  H   H274      1.0  0.23055  0.50796  0.44412  1.0000
  H   H275      1.0  0.25983  0.52468  0.11466  1.0000
  C   C287      1.0  0.25571  0.62239  0.51037  1.0000
  N   N22       1.0  0.24617  0.48580  0.46799  1.0000
  H   H276      1.0  0.26290  0.72503  0.37650  1.0000
  H   H277      1.0  0.01894  0.79973  0.01973  1.0000
  C   C288      1.0  0.11711  0.96316  0.11832  1.0000
  H   H278      1.0  0.14794  0.95756  0.15775  1.0000
  C   C289      1.0  0.08528  0.96795  0.13219  1.0000
  C   C290      1.0  0.26438  0.68159  0.38518  1.0000
  N   N23       1.0  0.12383  0.96657  0.13870  1.0000
  H   H279      1.0  0.15195  0.95533  0.12919  1.0000
  H   H280      1.0  0.08258  0.97462  0.16652  1.0000
  H   H281      1.0  0.11697  0.97315  0.17208  1.0000
  C   C291      1.0  0.11168  0.97067  0.15589  1.0000
  H   H282      1.0  0.25070  0.91765  0.01493  1.0000
  H   H283      1.0  0.01579  0.93840  0.30332  1.0000
  C   C292      1.0  0.25687  0.49102  0.48557  1.0000
  C   C293      1.0  0.10512  0.48560  0.18331  1.0000
  H   H284      1.0  0.25410  0.50938  0.49520  1.0000
  S   S102      1.0  0.26188  0.49032  0.41006  1.0000
  C   C294      1.0  0.26435  0.72796  0.21856  1.0000
  S   S103      1.0  0.26466  0.62666  0.39613  1.0000
  S   S104      1.0  0.26418  0.81358  0.36772  1.0000
  H   H285      1.0  0.25847  0.55545  0.68137  1.0000
  Fe  Fe49      1.0  0.05958  0.95129  0.62006  1.0000
  S   S105      1.0  0.04566  0.94789  0.65268  1.0000
  S   S106      1.0  0.09125  0.95240  0.61681  1.0000
  Fe  Fe50      1.0  0.02730  0.91688  0.63753  1.0000
  C   C295      1.0  0.21941  0.89099  0.97523  1.0000
  C   C296      1.0  0.23318  0.92836  0.80083  1.0000
  H   H286      1.0  0.20503  0.90461  0.00457  1.0000
  S   S107      1.0  0.04256  0.91772  0.60543  1.0000
  H   H287      1.0  0.04651  0.85125  0.63048  1.0000
  Fe  Fe51      1.0  0.06450  0.66973  0.69441  1.0000
  S   S108      1.0  0.05363  0.67904  0.66152  1.0000
  S   S109      1.0  0.09520  0.65789  0.69787  1.0000
  H   H288      1.0  0.08414  0.50578  0.64340  1.0000
  Fe  Fe52      1.0  0.02852  0.65549  0.67243  1.0000
  C   C297      1.0  0.04743  0.80879  0.64214  1.0000
  Fe  Fe53      1.0  0.03993  0.71695  0.67628  1.0000
  S   S110      1.0  0.04034  0.64311  0.70457  1.0000
  S   S111      1.0  0.05199  0.70850  0.70917  1.0000
  H   H289      1.0  0.25702  0.60215  0.69728  1.0000
  S   S112      1.0  0.02669  0.49603  0.66797  1.0000
  C   C298      1.0  0.21511  0.83768  0.99147  1.0000
  Fe  Fe54      1.0  0.20759  0.94914  0.72338  1.0000
  S   S113      1.0  0.22813  0.93626  0.69694  1.0000
  S   S114      1.0  0.21230  0.96711  0.75692  1.0000
  Fe  Fe55      1.0  0.17354  0.93308  0.69662  1.0000
  S   S115      1.0  0.19127  0.91925  0.66814  1.0000
  S   S116      1.0  0.14181  0.93217  0.69908  1.0000
  Fe  Fe56      1.0  0.21001  0.89886  0.69278  1.0000
  S   S117      1.0  0.22368  0.85583  0.68894  1.0000
  Fe  Fe57      1.0  0.20766  0.95744  0.67449  1.0000
  C   C299      1.0  0.25916  0.58399  0.70764  1.0000
  S   S118      1.0  0.19111  0.91001  0.72113  1.0000
  C   C300      1.0  0.21772  0.83907  0.60944  1.0000
  N   N24       1.0  0.25020  0.93087  0.79038  1.0000
  H   H290      1.0  0.21663  0.93747  0.82968  1.0000
  H   H291      1.0  0.13121  0.94581  0.62116  1.0000
  Fe  Fe58      1.0  0.17813  0.66498  0.61538  1.0000
  S   S119      1.0  0.18870  0.68295  0.64572  1.0000
  S   S120      1.0  0.14777  0.65260  0.61360  1.0000
  Fe  Fe59      1.0  0.21610  0.67096  0.59114  1.0000
  S   S121      1.0  0.22920  0.68992  0.62045  1.0000
  S   S122      1.0  0.23320  0.66960  0.55926  1.0000
  Fe  Fe60      1.0  0.21426  0.65604  0.63897  1.0000
  S   S123      1.0  0.22366  0.62954  0.66737  1.0000
  Fe  Fe61      1.0  0.20215  0.71504  0.62452  1.0000
  S   S124      1.0  0.19383  0.76072  0.62919  1.0000
  S   S125      1.0  0.20283  0.63579  0.60970  1.0000
  S   S126      1.0  0.19007  0.69835  0.59404  1.0000
  C   C301      1.0  0.23861  0.64088  0.54221  1.0000
  N   N25       1.0  0.22807  0.85189  0.62465  1.0000
  H   H292      1.0  0.22161  0.91878  0.79283  1.0000
  H   H293      1.0  0.20578  0.84974  0.60220  1.0000
  C   C302      1.0  0.23038  0.61509  0.54534  1.0000
  S   S127      1.0  0.04798  0.75428  0.65518  1.0000
  H   H294      1.0  0.22057  0.61210  0.55872  1.0000
  H   H295      1.0  0.09060  0.51384  0.67038  1.0000
  H   H296      1.0  0.01643  0.52713  0.62911  1.0000
  C   C303      1.0  0.22695  0.53571  0.65800  1.0000
  C   C304      1.0  0.21926  0.54681  0.67713  1.0000
  C   C305      1.0  0.21797  0.57568  0.67975  1.0000
  C   C306      1.0  0.22387  0.59359  0.66304  1.0000
  C   C307      1.0  0.23083  0.58252  0.64359  1.0000
  C   C308      1.0  0.23259  0.55366  0.64121  1.0000
  H   H297      1.0  0.21492  0.53327  0.69020  1.0000
  H   H298      1.0  0.21262  0.58417  0.69486  1.0000
  H   H299      1.0  0.23553  0.59620  0.63068  1.0000
  H   H300      1.0  0.23855  0.54523  0.62636  1.0000
  C   C309      1.0  0.21350  0.82828  0.67485  1.0000
  C   C310      1.0  0.19762  0.83261  0.66217  1.0000
  C   C311      1.0  0.19136  0.81123  0.64899  1.0000
  C   C312      1.0  0.20076  0.78524  0.64848  1.0000
  C   C313      1.0  0.21613  0.78048  0.66189  1.0000
  C   C314      1.0  0.22251  0.80197  0.67493  1.0000
  H   H301      1.0  0.19047  0.85266  0.66204  1.0000
  H   H302      1.0  0.17941  0.81509  0.63873  1.0000
  H   H303      1.0  0.22349  0.76058  0.66168  1.0000
  H   H304      1.0  0.23477  0.79839  0.68477  1.0000
  C   C315      1.0  0.22187  0.81159  0.60373  1.0000
  H   H305      1.0  0.05814  0.80226  0.63049  1.0000
  H   H306      1.0  0.23707  0.51118  0.84212  1.0000
  H   H307      1.0  0.16898  0.61403  0.64281  1.0000
  H   H308      1.0  0.22778  0.88499  0.64733  1.0000
  S   S128      1.0  0.01620  0.62497  0.64960  1.0000
  H   H309      1.0  0.05100  0.86089  0.69416  1.0000
  H   H310      1.0  0.03694  0.80197  0.98483  1.0000
  C   C316      1.0  0.05737  0.88164  0.69496  1.0000
  C   C317      1.0  0.22337  0.88061  0.63056  1.0000
  C   C318      1.0  0.25113  0.51995  0.79313  1.0000
  H   H311      1.0  0.22818  0.57338  0.53359  1.0000
  C   C319      1.0  0.01963  0.82568  0.67186  1.0000
  C   C320      1.0  0.01616  0.57023  0.63830  1.0000
  C   C321      1.0  0.23160  0.49904  0.76584  1.0000
  C   C322      1.0  0.23668  0.52213  0.77796  1.0000
  H   H312      1.0  0.22030  0.50098  0.75443  1.0000
  Fe  Fe62      1.0  0.02237  0.95276  0.59638  1.0000
  C   C323      1.0  0.10961  0.65621  0.67433  1.0000
  C   C324      1.0  0.12905  0.65883  0.67616  1.0000
  C   C325      1.0  0.14085  0.65797  0.65767  1.0000
  C   C326      1.0  0.13338  0.65384  0.63722  1.0000
  C   C327      1.0  0.11394  0.65080  0.63544  1.0000
  C   C328      1.0  0.10209  0.65226  0.65388  1.0000
  H   H313      1.0  0.13500  0.66178  0.69192  1.0000
  H   H314      1.0  0.15573  0.66012  0.65943  1.0000
  H   H315      1.0  0.10801  0.64752  0.61971  1.0000
  H   H316      1.0  0.08722  0.64990  0.65225  1.0000
  H   H317      1.0  0.09011  0.88765  0.63003  1.0000
  H   H318      1.0  0.02353  0.80175  0.60440  1.0000
  C   C329      1.0  0.10544  0.94969  0.63994  1.0000
  C   C330      1.0  0.12497  0.94596  0.63728  1.0000
  C   C331      1.0  0.13646  0.94171  0.65537  1.0000
  C   C332      1.0  0.12844  0.94115  0.67622  1.0000
  C   C333      1.0  0.10903  0.94589  0.67891  1.0000
  C   C334      1.0  0.09758  0.95017  0.66087  1.0000
  H   H319      1.0  0.02015  0.78297  0.68307  1.0000
  H   H320      1.0  0.15144  0.93821  0.65313  1.0000
  C   C335      1.0  0.23712  0.87329  0.94356  1.0000
  H   H321      1.0  0.08270  0.95346  0.66326  1.0000
  C   C336      1.0  0.23472  0.59316  0.53102  1.0000
  H   H322      1.0  0.23806  0.50067  0.86998  1.0000
  C   C337      1.0  0.18190  0.51673  0.64531  1.0000
  H   H323      1.0  0.18845  0.58042  0.62317  1.0000
  C   C338      1.0  0.02702  0.84518  0.65711  1.0000
  C   C339      1.0  0.24488  0.95216  0.83174  1.0000
  C   C340      1.0  0.04093  0.83661  0.64218  1.0000
  S   S129      1.0  0.25703  0.55658  0.86949  1.0000
  H   H324      1.0  0.23967  0.77570  0.60977  1.0000
  C   C341      1.0  0.26073  0.58686  0.72998  1.0000
  C   C342      1.0  0.03994  0.78922  0.65681  1.0000
  H   H325      1.0  0.16252  0.55895  0.68357  1.0000
  H   H326      1.0  0.05967  0.88672  0.71218  1.0000
  S   S130      1.0  0.25758  0.55001  0.80709  1.0000
  C   C343      1.0  0.24762  0.81083  0.62851  1.0000
  C   C344      1.0  0.23025  0.93900  0.82163  1.0000
  C   C345      1.0  0.07420  0.88452  0.66010  1.0000
  N   N26       1.0  0.17460  0.57250  0.65347  1.0000
  C   C346      1.0  0.18374  0.56485  0.63471  1.0000
  C   C347      1.0  0.16934  0.55288  0.66844  1.0000
  H   H327      1.0  0.16862  0.50916  0.67645  1.0000
  C   C348      1.0  0.17279  0.52469  0.66454  1.0000
  C   C349      1.0  0.25782  0.87506  0.00724  1.0000
  C   C350      1.0  0.26224  0.95436  0.82105  1.0000
  S   S131      1.0  0.18839  0.97291  0.70098  1.0000
  H   H328      1.0  0.02734  0.59345  0.68797  1.0000
  H   H329      1.0  0.10276  0.94564  0.69502  1.0000
  H   H330      1.0  0.24267  0.96099  0.84769  1.0000
  N   N27       1.0  0.07459  0.54571  0.65420  1.0000
  C   C351      1.0  0.06683  0.55349  0.63490  1.0000
  C   C352      1.0  0.07711  0.56491  0.66993  1.0000
  C   C353      1.0  0.06173  0.58119  0.63077  1.0000
  C   C354      1.0  0.07222  0.59284  0.66632  1.0000
  C   C355      1.0  0.06442  0.60091  0.64661  1.0000
  C   C356      1.0  0.07919  0.51638  0.65845  1.0000
  H   H331      1.0  0.06423  0.53823  0.62269  1.0000
  H   H332      1.0  0.08275  0.55869  0.68548  1.0000
  H   H333      1.0  0.05509  0.58718  0.61570  1.0000
  H   H334      1.0  0.07419  0.60806  0.67884  1.0000
  N   N28       1.0  0.22637  0.86880  0.96374  1.0000
  H   H335      1.0  0.02690  0.83589  0.95626  1.0000
  C   C357      1.0  0.02489  0.57922  0.67511  1.0000
  H   H336      1.0  0.21552  0.50500  0.85728  1.0000
  C   C358      1.0  0.18744  0.53688  0.63030  1.0000
  N   N29       1.0  0.07494  0.88185  0.68214  1.0000
  C   C359      1.0  0.09187  0.87841  0.69209  1.0000
  C   C360      1.0  0.10866  0.87808  0.67992  1.0000
  C   C361      1.0  0.09071  0.88431  0.64743  1.0000
  C   C362      1.0  0.10803  0.88110  0.65745  1.0000
  H   H337      1.0  0.09254  0.87645  0.70957  1.0000
  H   H338      1.0  0.12212  0.87663  0.68791  1.0000
  H   H339      1.0  0.12098  0.88201  0.64792  1.0000
  H   H340      1.0  0.04708  0.89732  0.68860  1.0000
  N   N30       1.0  0.11440  0.72654  0.66031  1.0000
  C   C363      1.0  0.13130  0.73336  0.66868  1.0000
  C   C364      1.0  0.11304  0.72070  0.63879  1.0000
  C   C365      1.0  0.14751  0.73399  0.65545  1.0000
  C   C366      1.0  0.12899  0.72087  0.62516  1.0000
  C   C367      1.0  0.14630  0.72759  0.63359  1.0000
  C   C368      1.0  0.09746  0.72673  0.67422  1.0000
  H   H341      1.0  0.13237  0.73810  0.68571  1.0000
  H   H342      1.0  0.09965  0.71524  0.63216  1.0000
  H   H343      1.0  0.16099  0.73922  0.66204  1.0000
  H   H344      1.0  0.12807  0.71509  0.60830  1.0000
  H   H345      1.0  0.15881  0.72760  0.62324  1.0000
  H   H346      1.0  0.09047  0.74758  0.67398  1.0000
  H   H347      1.0  0.08726  0.71149  0.66865  1.0000
  H   H348      1.0  0.10082  0.72061  0.69116  1.0000
  Fe  Fe63      1.0  0.02584  0.98064  0.63993  1.0000
  H   H349      1.0  0.22935  0.54182  0.77557  1.0000
  H   H350      1.0  0.15862  0.60531  0.66849  1.0000
  C   C369      1.0  0.22452  0.84242  0.97173  1.0000
  C   C370      1.0  0.17133  0.60197  0.65802  1.0000
  C   C371      1.0  0.24301  0.83828  0.63395  1.0000
  H   H351      1.0  0.01636  0.72639  0.01021  1.0000
  H   H352      1.0  0.23096  0.82492  0.96328  1.0000
  H   H353      1.0  0.24972  0.97957  0.73911  1.0000
  C   C372      1.0  0.26044  0.49436  0.79614  1.0000
  H   H354      1.0  0.25789  0.66412  0.52222  1.0000
  H   H355      1.0  0.03112  0.54304  0.69480  1.0000
  C   C373      1.0  0.02411  0.53173  0.66239  1.0000
  C   C374      1.0  0.20778  0.86015  0.00318  1.0000
  H   H356      1.0  0.06652  0.50580  0.66486  1.0000
  H   H357      1.0  0.25235  0.87245  0.94694  1.0000
  H   H358      1.0  0.26069  0.67023  0.92721  1.0000
  S   S132      1.0  0.23051  0.49973  0.65487  1.0000
  H   H359      1.0  0.26485  0.51882  0.74398  1.0000
  H   H360      1.0  0.18369  0.61039  0.66618  1.0000
  H   H361      1.0  0.19505  0.53090  0.61563  1.0000
  H   H362      1.0  0.06079  0.88736  0.65227  1.0000
  C   C375      1.0  0.20993  0.88700  0.99506  1.0000
  H   H363      1.0  0.05987  0.62223  0.64378  1.0000
  H   H364      1.0  0.22158  0.91197  0.96939  1.0000
  H   H365      1.0  0.23041  0.89520  0.61920  1.0000
  C   C376      1.0  0.23033  0.49779  0.85471  1.0000
  H   H366      1.0  0.23988  0.92059  0.75936  1.0000
  H   H367      1.0  0.20793  0.88463  0.63030  1.0000
  C   C377      1.0  0.23686  0.79739  0.61342  1.0000
  H   H368      1.0  0.23361  0.89368  0.93589  1.0000
  H   H369      1.0  0.21303  0.80092  0.59257  1.0000
  C   C378      1.0  0.01886  0.54159  0.64195  1.0000
  Fe  Fe64      1.0  0.02635  0.68264  0.71601  1.0000
  C   C379      1.0  0.02705  0.55060  0.67896  1.0000
  C   C380      1.0  0.02604  0.79782  0.67172  1.0000
  H   H370      1.0  0.01922  0.62641  0.74846  1.0000
  C   C381      1.0  0.25130  0.64434  0.52465  1.0000
  H   H371      1.0  0.25763  0.89702  0.77012  1.0000
  H   H372      1.0  0.25895  0.79972  0.63660  1.0000
  C   C382      1.0  0.02489  0.81579  0.98762  1.0000
  H   H373      1.0  0.23420  0.85713  0.93149  1.0000
  C   C383      1.0  0.25307  0.91912  0.76874  1.0000
  H   H374      1.0  0.18509  0.49505  0.64220  1.0000
  H   H375      1.0  0.25096  0.84823  0.64636  1.0000
  C   C384      1.0  0.01925  0.58914  0.65483  1.0000
  C   C385      1.0  0.26058  0.50673  0.70243  1.0000
  H   H376      1.0  0.02194  0.51688  0.91102  1.0000
  H   H377      1.0  0.02401  0.48923  0.51330  1.0000
  C   C386      1.0  0.01927  0.83474  0.97162  1.0000
  H   H378      1.0  0.01751  0.83704  0.57504  1.0000
  H   H379      1.0  0.26418  0.56528  0.76052  1.0000
  H   H380      1.0  0.26001  0.60729  0.73715  1.0000
  C   C387      1.0  0.25987  0.55746  0.69873  1.0000
  C   C388      1.0  0.26341  0.53707  0.73363  1.0000
  H   H381      1.0  0.21439  0.81682  0.99814  1.0000
  N   N31       1.0  0.26175  0.53442  0.71173  1.0000
  C   C389      1.0  0.26303  0.56329  0.74308  1.0000
  S   S133      1.0  0.01802  0.87972  0.65772  1.0000
  H   H382      1.0  0.24587  0.49963  0.70379  1.0000
  H   H383      1.0  0.01492  0.55073  0.90116  1.0000
  C   C390      1.0  0.24737  0.59665  0.51345  1.0000
  H   H384      1.0  0.26480  0.50670  0.68499  1.0000
  S   S134      1.0  0.26469  0.81952  0.99698  1.0000
  H   H385      1.0  0.26377  0.93072  0.75922  1.0000
  C   C391      1.0  0.26470  0.94340  0.80030  1.0000
  H   H386      1.0  0.40224  0.35204  0.40166  1.0000
  C   C392      1.0  0.35294  0.01730  0.42750  1.0000
  Fe  Fe65      1.0  0.45727  0.28123  0.47295  1.0000
  S   S135      1.0  0.47690  0.29607  0.44650  1.0000
  H   H387      1.0  0.42111  0.23475  0.40892  1.0000
  Fe  Fe66      1.0  0.42279  0.28932  0.44394  1.0000
  S   S136      1.0  0.43961  0.30539  0.41569  1.0000
  S   S137      1.0  0.39140  0.28403  0.44439  1.0000
  Fe  Fe67      1.0  0.45961  0.27031  0.42457  1.0000
  S   S138      1.0  0.46944  0.24277  0.39722  1.0000
  Fe  Fe68      1.0  0.45511  0.32993  0.44000  1.0000
  S   S139      1.0  0.46388  0.37513  0.43931  1.0000
  S   S140      1.0  0.44171  0.25279  0.45142  1.0000
  S   S141      1.0  0.43650  0.31657  0.46779  1.0000
  Fe  Fe69      1.0  0.42171  0.07525  0.36861  1.0000
  S   S142      1.0  0.43389  0.06148  0.40000  1.0000
  S   S143      1.0  0.39128  0.09010  0.36799  1.0000
  Fe  Fe70      1.0  0.45870  0.06302  0.34390  1.0000
  S   S144      1.0  0.47300  0.04735  0.37429  1.0000
  S   S145      1.0  0.47568  0.06234  0.31209  1.0000
  Fe  Fe71      1.0  0.44610  0.02490  0.38194  1.0000
  S   S146      1.0  0.29856  0.36916  0.39619  1.0000
  Fe  Fe72      1.0  0.45902  0.08506  0.38920  1.0000
  S   S147      1.0  0.47200  0.11310  0.41344  1.0000
  S   S148      1.0  0.43275  0.03792  0.35052  1.0000
  S   S149      1.0  0.44606  0.10159  0.35876  1.0000
  C   C393      1.0  0.38725  0.35008  0.40469  1.0000
  S   S150      1.0  0.50276  0.16347  0.25210  1.0000
  H   H388      1.0  0.38026  0.02237  0.37059  1.0000
  Fe  Fe73      1.0  0.28533  0.02494  0.44569  1.0000
  S   S151      1.0  0.29780  0.04226  0.47569  1.0000
  C   C394      1.0  0.32174  0.20550  0.38872  1.0000
  Fe  Fe74      1.0  0.27832  0.08373  0.42719  1.0000
  S   S152      1.0  0.28978  0.10482  0.45607  1.0000
  H   H389      1.0  0.47160  0.05281  0.05164  1.0000
  Fe  Fe75      1.0  0.31252  0.07185  0.45311  1.0000
  S   S153      1.0  0.34324  0.08175  0.45542  1.0000
  Fe  Fe76      1.0  0.27370  0.07344  0.47588  1.0000
  S   S154      1.0  0.30197  0.05223  0.42323  1.0000
  Fe  Fe77      1.0  0.31377  0.28229  0.36186  1.0000
  S   S155      1.0  0.30198  0.29290  0.39449  1.0000
  S   S156      1.0  0.34478  0.27058  0.35887  1.0000
  H   H390      1.0  0.33774  0.01839  0.42908  1.0000
  Fe  Fe78      1.0  0.28893  0.33057  0.37846  1.0000
  Fe  Fe79      1.0  0.27710  0.26910  0.38478  1.0000
  C   C395      1.0  0.48135  0.03423  0.11141  1.0000
  S   S157      1.0  0.30163  0.32051  0.34569  1.0000
  S   S158      1.0  0.28970  0.25552  0.35303  1.0000
  C   C396      1.0  0.50199  0.26793  0.20956  1.0000
  C   C397      1.0  0.47005  0.35103  0.50139  1.0000
  C   C398      1.0  0.50432  0.47432  0.04091  1.0000
  C   C399      1.0  0.29061  0.45012  0.41328  1.0000
  H   H391      1.0  0.48386  0.02913  0.12828  1.0000
  C   C400      1.0  0.39179  0.01587  0.42313  1.0000
  C   C401      1.0  0.47511  0.02016  0.07564  1.0000
  H   H392      1.0  0.33187  0.17758  0.36393  1.0000
  H   H393      1.0  0.32637  0.13530  0.38652  1.0000
  S   S159      1.0  0.43664  0.98510  0.39912  1.0000
  S   S160      1.0  0.50665  0.42986  0.11546  1.0000
  H   H394      1.0  0.46319  0.25647  0.18013  1.0000
  H   H395      1.0  0.33402  0.34158  0.41499  1.0000
  C   C402      1.0  0.35620  0.08592  0.43101  1.0000
  C   C403      1.0  0.34742  0.08733  0.41094  1.0000
  C   C404      1.0  0.35828  0.08901  0.39171  1.0000
  C   C405      1.0  0.37796  0.08912  0.39241  1.0000
  C   C406      1.0  0.38666  0.08848  0.41250  1.0000
  C   C407      1.0  0.37583  0.08696  0.43171  1.0000
  H   H396      1.0  0.33229  0.08706  0.41020  1.0000
  H   H397      1.0  0.35142  0.08979  0.37622  1.0000
  H   H398      1.0  0.40169  0.08938  0.41335  1.0000
  H   H399      1.0  0.38270  0.08613  0.44718  1.0000
  C   C408      1.0  0.48267  0.09077  0.29540  1.0000
  C   C409      1.0  0.47804  0.40357  0.07100  1.0000
  C   C410      1.0  0.48069  0.06212  0.10489  1.0000
  C   C411      1.0  0.32616  0.17941  0.38028  1.0000
  C   C412      1.0  0.26557  0.32056  0.17919  1.0000
  C   C413      1.0  0.47697  0.11813  0.29983  1.0000
  H   H400      1.0  0.40701  0.01527  0.42154  1.0000
  Fe  Fe80      1.0  0.27607  0.29475  0.34025  1.0000
  H   H401      1.0  0.46768  0.12236  0.31351  1.0000
  C   C414      1.0  0.37929  0.27819  0.42033  1.0000
  C   C415      1.0  0.38815  0.27945  0.39990  1.0000
  C   C416      1.0  0.37756  0.27654  0.38108  1.0000
  C   C417      1.0  0.35811  0.27247  0.38261  1.0000
  C   C418      1.0  0.34951  0.27025  0.40307  1.0000
  C   C419      1.0  0.36001  0.27325  0.42180  1.0000
  H   H402      1.0  0.40302  0.28327  0.39859  1.0000
  H   H403      1.0  0.38435  0.27806  0.36530  1.0000
  H   H404      1.0  0.33481  0.26589  0.40457  1.0000
  H   H405      1.0  0.35313  0.27194  0.43755  1.0000
  C   C420      1.0  0.46855  0.20697  0.40240  1.0000
  C   C421      1.0  0.46520  0.18908  0.38532  1.0000
  C   C422      1.0  0.46553  0.16028  0.38874  1.0000
  C   C423      1.0  0.46962  0.14917  0.40918  1.0000
  C   C424      1.0  0.47276  0.16711  0.42634  1.0000
  C   C425      1.0  0.47201  0.19598  0.42303  1.0000
  H   H406      1.0  0.46260  0.19751  0.36931  1.0000
  H   H407      1.0  0.46358  0.14681  0.37527  1.0000
  H   H408      1.0  0.47603  0.15867  0.44218  1.0000
  H   H409      1.0  0.47476  0.20969  0.43626  1.0000
  C   C426      1.0  0.45690  0.40132  0.42033  1.0000
  C   C427      1.0  0.44528  0.39575  0.40300  1.0000
  C   C428      1.0  0.44028  0.41704  0.38817  1.0000
  C   C429      1.0  0.44681  0.44413  0.39043  1.0000
  C   C430      1.0  0.45827  0.44978  0.40788  1.0000
  C   C431      1.0  0.46329  0.42846  0.42271  1.0000
  H   H410      1.0  0.44033  0.37499  0.40087  1.0000
  H   H411      1.0  0.43146  0.41243  0.37469  1.0000
  N   N32       1.0  0.31106  0.18416  0.42197  1.0000
  H   H412      1.0  0.47229  0.43302  0.43604  1.0000
  H   H413      1.0  0.40860  0.13935  0.38584  1.0000
  C   C432      1.0  0.47729  0.06888  0.08325  1.0000
  S   S161      1.0  0.44006  0.46992  0.37103  1.0000
  C   C433      1.0  0.41825  0.21387  0.40377  1.0000
  C   C434      1.0  0.41143  0.16026  0.39095  1.0000
  C   C435      1.0  0.40661  0.18259  0.37731  1.0000
  H   H414      1.0  0.33189  0.32884  0.37704  1.0000
  N   N33       1.0  0.48856  0.33748  0.49828  1.0000
  H   H415      1.0  0.27977  0.15402  0.36821  1.0000
  C   C436      1.0  0.49887  0.34208  0.47971  1.0000
  C   C437      1.0  0.37488  0.34843  0.38745  1.0000
  H   H416      1.0  0.48988  0.28867  0.18179  1.0000
  N   N34       1.0  0.49666  0.39754  0.03843  1.0000
  H   H417      1.0  0.46455  0.35979  0.48595  1.0000
  H   H418      1.0  0.38045  0.34933  0.37101  1.0000
  C   C438      1.0  0.27029  0.40993  0.39181  1.0000
  H   H419      1.0  0.51152  0.35290  0.07762  1.0000
  S   S162      1.0  0.27135  0.10879  0.39715  1.0000
  H   H420      1.0  0.49651  0.24296  0.48960  1.0000
  C   C439      1.0  0.36099  0.34533  0.42963  1.0000
  C   C440      1.0  0.38023  0.34836  0.42589  1.0000
  H   H421      1.0  0.35548  0.34333  0.44606  1.0000
  H   H422      1.0  0.38976  0.34851  0.43939  1.0000
  S   S163      1.0  0.50925  0.18271  0.19082  1.0000
  C   C441      1.0  0.49460  0.08570  0.27736  1.0000
  C   C442      1.0  0.39011  0.01629  0.38365  1.0000
  C   C443      1.0  0.51088  0.15854  0.38459  1.0000
  H   H423      1.0  0.29849  0.46540  0.42166  1.0000
  C   C444      1.0  0.50079  0.10761  0.26388  1.0000
  H   H424      1.0  0.35716  0.01850  0.46187  1.0000
  H   H425      1.0  0.29409  0.20527  0.44573  1.0000
  C   C445      1.0  0.51310  0.30717  0.51176  1.0000
  C   C446      1.0  0.50955  0.04768  0.16989  1.0000
  C   C447      1.0  0.48238  0.41099  0.04954  1.0000
  H   H426      1.0  0.48535  0.37645  0.09776  1.0000
  H   H427      1.0  0.49340  0.35563  0.46702  1.0000
  H   H428      1.0  0.35050  0.33555  0.35829  1.0000
  N   N35       1.0  0.50078  0.24629  0.22401  1.0000
  H   H429      1.0  0.47456  0.42801  0.04203  1.0000
  H   H430      1.0  0.45971  0.33574  0.50751  1.0000
  H   H431      1.0  0.35311  0.01794  0.39278  1.0000
  C   C448      1.0  0.49511  0.13495  0.26829  1.0000
  H   H432      1.0  0.27047  0.23856  0.30808  1.0000
  C   C449      1.0  0.48840  0.38228  0.08104  1.0000
  H   H433      1.0  0.32403  0.22404  0.37898  1.0000
  C   C450      1.0  0.27346  0.19159  0.38582  1.0000
  C   C451      1.0  0.48315  0.14005  0.28633  1.0000
  C   C452      1.0  0.36389  0.01719  0.44597  1.0000
  C   C453      1.0  0.47428  0.04782  0.06854  1.0000
  H   H434      1.0  0.28046  0.32681  0.17954  1.0000
  C   C454      1.0  0.47357  0.25385  0.19266  1.0000
  H   H435      1.0  0.47855  0.16108  0.28982  1.0000
  H   H436      1.0  0.31333  0.13996  0.42365  1.0000
  C   C455      1.0  0.42389  0.14098  0.42472  1.0000
  H   H437      1.0  0.42924  0.19466  0.43249  1.0000
  H   H438      1.0  0.41093  0.13444  0.43345  1.0000
  H   H439      1.0  0.42983  0.12329  0.41522  1.0000
  H   H440      1.0  0.43466  0.14604  0.43674  1.0000
  H   H441      1.0  0.46695  0.41458  0.07990  1.0000
  H   H442      1.0  0.48301  0.07834  0.11652  1.0000
  H   H443      1.0  0.27740  0.20500  0.37248  1.0000
  C   C456      1.0  0.47213  0.23234  0.20788  1.0000
  C   C457      1.0  0.48851  0.27192  0.19358  1.0000
  C   C458      1.0  0.49129  0.01260  0.01807  1.0000
  C   C459      1.0  0.27269  0.45712  0.40570  1.0000
  N   N36       1.0  0.47915  0.01368  0.09669  1.0000
  C   C460      1.0  0.42285  0.19107  0.41702  1.0000
  C   C461      1.0  0.36174  0.01711  0.40704  1.0000
  H   H444      1.0  0.50539  0.08994  0.18030  1.0000
  C   C462      1.0  0.28819  0.40289  0.39937  1.0000
  H   H445      1.0  0.40153  0.03147  0.38294  1.0000
  H   H446      1.0  0.31541  0.18848  0.45558  1.0000
  H   H447      1.0  0.29522  0.16849  0.44893  1.0000
  H   H448      1.0  0.48951  0.09510  0.34682  1.0000
  C   C463      1.0  0.38344  0.01634  0.44383  1.0000
  H   H449      1.0  0.33665  0.36421  0.36980  1.0000
  N   N37       1.0  0.41958  0.16468  0.41043  1.0000
  H   H450      1.0  0.46342  0.47047  0.40985  1.0000
  C   C464      1.0  0.50918  0.13166  0.37674  1.0000
  C   C465      1.0  0.48382  0.98650  0.01480  1.0000
  H   H451      1.0  0.40022  0.17894  0.36184  1.0000
  C   C466      1.0  0.51046  0.07656  0.16741  1.0000
  C   C467      1.0  0.31567  0.15851  0.41395  1.0000
  H   H452      1.0  0.48473  0.21206  0.23530  1.0000
  C   C468      1.0  0.30365  0.18675  0.44418  1.0000
  H   H453      1.0  0.49908  0.06463  0.27377  1.0000
  C   C469      1.0  0.34323  0.34351  0.37314  1.0000
  H   H454      1.0  0.27380  0.13061  0.51173  1.0000
  H   H455      1.0  0.51074  0.03562  0.03668  1.0000
  N   N38       1.0  0.35607  0.34504  0.39129  1.0000
  H   H456      1.0  0.51169  0.16198  0.40187  1.0000
  C   C470      1.0  0.50127  0.40537  0.01597  1.0000
  C   C471      1.0  0.31416  0.20752  0.40973  1.0000
  H   H457      1.0  0.47696  0.09040  0.07790  1.0000
  H   H458      1.0  0.46062  0.21807  0.20732  1.0000
  C   C472      1.0  0.41007  0.20956  0.38381  1.0000
  H   H459      1.0  0.31209  0.41790  0.41617  1.0000
  C   C473      1.0  0.50848  0.17632  0.34806  1.0000
  C   C474      1.0  0.27474  0.16268  0.38340  1.0000
  C   C475      1.0  0.29826  0.42314  0.41018  1.0000
  C   C476      1.0  0.34899  0.34398  0.41203  1.0000
  H   H460      1.0  0.40640  0.22712  0.37343  1.0000
  H   H461      1.0  0.31043  0.22785  0.41604  1.0000
  C   C477      1.0  0.32313  0.15573  0.39294  1.0000
  C   C478      1.0  0.48587  0.22898  0.22366  1.0000
  N   N39       1.0  0.38094  0.01664  0.40510  1.0000
  N   N40       1.0  0.50753  0.12725  0.35503  1.0000
  C   C479      1.0  0.50437  0.47803  0.01828  1.0000
  H   H462      1.0  0.50389  0.03894  0.18480  1.0000
  C   C480      1.0  0.50487  0.01549  0.03406  1.0000
  S   S164      1.0  0.51395  0.99406  0.15692  1.0000
  H   H463      1.0  0.28053  0.47773  0.50475  1.0000
  H   H464      1.0  0.50996  0.10330  0.25009  1.0000
  C   C481      1.0  0.48045  0.98453  0.10359  1.0000
  C   C482      1.0  0.50477  0.09915  0.34721  1.0000
  H   H465      1.0  0.39208  0.01649  0.45808  1.0000
  H   H466      1.0  0.39635  0.99538  0.38036  1.0000
  H   H467      1.0  0.47284  0.00388  0.06409  1.0000
  C   C483      1.0  0.26667  0.20292  0.40528  1.0000
  H   H468      1.0  0.26644  0.46053  0.06749  1.0000
  H   H469      1.0  0.50551  0.14565  0.32356  1.0000
  C   C484      1.0  0.26972  0.14493  0.40059  1.0000
  H   H470      1.0  0.50780  0.19365  0.33672  1.0000
  C   C485      1.0  0.50711  0.14914  0.34073  1.0000
  C   C486      1.0  0.51097  0.99260  0.04668  1.0000
  H   H471      1.0  0.51083  0.20202  0.37617  1.0000
  H   H472      1.0  0.50491  0.29198  0.12803  1.0000
  H   H473      1.0  0.51242  0.25674  0.25405  1.0000
  C   C487      1.0  0.51035  0.18100  0.37015  1.0000
  C   C488      1.0  0.49715  0.24133  0.50706  1.0000
  C   C489      1.0  0.50310  0.36900  0.06970  1.0000
  H   H474      1.0  0.51164  0.08325  0.35777  1.0000
  H   H475      1.0  0.50866  0.11445  0.38821  1.0000
  H   H476      1.0  0.51071  0.09639  0.33055  1.0000
  C   C490      1.0  0.50711  0.37701  0.04831  1.0000
  S   S165      1.0  0.46378  0.27270  0.50853  1.0000
  S   S166      1.0  0.51399  0.34959  0.12476  1.0000
  H   H477      1.0  0.51371  0.28184  0.20998  1.0000
  H   H478      1.0  0.28740  0.43576  0.48252  1.0000
  C   C491      1.0  0.27565  0.44959  0.47867  1.0000
  C   C492      1.0  0.27183  0.47311  0.49110  1.0000
  H   H479      1.0  0.26725  0.42602  0.45115  1.0000
  H   H480      1.0  0.26520  0.31215  0.22182  1.0000
  Fe  Fe81      1.0  0.46824  0.04603  0.97121  1.0000
  S   S167      1.0  0.48562  0.05401  0.94109  1.0000
  H   H481      1.0  0.29556  0.13231  0.90680  1.0000
  Fe  Fe82      1.0  0.43176  0.05307  0.94593  1.0000
  S   S168      1.0  0.44669  0.06169  0.91438  1.0000
  S   S169      1.0  0.39993  0.05257  0.94806  1.0000
  Fe  Fe83      1.0  0.46570  0.02624  0.92474  1.0000
  H   H482      1.0  0.48733  0.31684  0.52900  1.0000
  Fe  Fe84      1.0  0.46505  0.08898  0.93361  1.0000
  S   S170      1.0  0.47810  0.12936  0.92182  1.0000
  S   S171      1.0  0.44960  0.01564  0.95518  1.0000
  S   S172      1.0  0.44880  0.08286  0.96483  1.0000
  Fe  Fe85      1.0  0.45220  0.28411  0.87609  1.0000
  S   S173      1.0  0.44137  0.29965  0.84400  1.0000
  S   S174      1.0  0.44009  0.24305  0.88806  1.0000
  Fe  Fe86      1.0  0.46563  0.34317  0.88684  1.0000
  S   S175      1.0  0.45499  0.36194  0.85590  1.0000
  S   S176      1.0  0.47705  0.37016  0.91299  1.0000
  Fe  Fe87      1.0  0.42973  0.33602  0.86272  1.0000
  S   S177      1.0  0.39946  0.35100  0.86076  1.0000
  Fe  Fe88      1.0  0.46800  0.32392  0.84055  1.0000
  S   S178      1.0  0.48775  0.32431  0.81078  1.0000
  S   S179      1.0  0.43955  0.31994  0.89458  1.0000
  S   S180      1.0  0.47985  0.30578  0.87159  1.0000
  H   H483      1.0  0.26845  0.12750  0.59948  1.0000
  H   H484      1.0  0.33316  0.14277  0.90991  1.0000
  H   H485      1.0  0.33447  0.43869  0.87004  1.0000
  C   C493      1.0  0.49085  0.32828  0.67464  1.0000
  Fe  Fe89      1.0  0.28805  0.03966  0.83202  1.0000
  Fe  Fe90      1.0  0.32233  0.04741  0.86118  1.0000
  S   S181      1.0  0.30502  0.06605  0.88816  1.0000
  S   S182      1.0  0.35378  0.03955  0.86210  1.0000
  H   H486      1.0  0.49823  0.37032  0.71725  1.0000
  Fe  Fe91      1.0  0.28986  0.09013  0.86223  1.0000
  Fe  Fe92      1.0  0.28502  0.03214  0.88095  1.0000
  H   H487      1.0  0.27135  0.21443  0.96843  1.0000
  S   S183      1.0  0.30881  0.07379  0.83541  1.0000
  S   S184      1.0  0.30342  0.01190  0.85567  1.0000
  Fe  Fe93      1.0  0.31866  0.32377  0.94328  1.0000
  S   S185      1.0  0.30853  0.30545  0.91281  1.0000
  S   S186      1.0  0.34893  0.33577  0.94585  1.0000
  Fe  Fe94      1.0  0.28017  0.31978  0.96673  1.0000
  Fe  Fe95      1.0  0.29357  0.27473  0.93405  1.0000
  Fe  Fe96      1.0  0.28355  0.33409  0.91868  1.0000
  S   S187      1.0  0.51243  0.42920  0.68377  1.0000
  S   S188      1.0  0.30562  0.29129  0.96454  1.0000
  S   S189      1.0  0.29453  0.35403  0.94836  1.0000
  H   H488      1.0  0.39531  0.10631  0.91667  1.0000
  C   C494      1.0  0.26495  0.08992  0.58171  1.0000
  H   H489      1.0  0.48855  0.46897  0.72207  1.0000
  C   C495      1.0  0.29340  0.15401  0.90274  1.0000
  H   H490      1.0  0.50064  0.99061  0.94412  1.0000
  S   S190      1.0  0.47474  0.99533  0.89920  1.0000
  H   H491      1.0  0.26884  0.22844  0.00741  1.0000
  H   H492      1.0  0.40264  0.09697  0.88990  1.0000
  H   H493      1.0  0.47605  0.18398  0.54922  1.0000
  H   H494      1.0  0.50755  0.41887  0.81707  1.0000
  H   H495      1.0  0.46905  0.16564  0.58633  1.0000
  S   S191      1.0  0.50862  0.42363  0.74582  1.0000
  C   C496      1.0  0.32175  0.48237  0.89279  1.0000
  C   C497      1.0  0.33828  0.12372  0.87894  1.0000
  C   C498      1.0  0.50731  0.34825  0.77689  1.0000
  C   C499      1.0  0.29631  0.17448  0.91834  1.0000
  S   S192      1.0  0.28299  0.02325  0.79803  1.0000
  C   C500      1.0  0.27101  0.45471  0.90178  1.0000
  C   C501      1.0  0.49318  0.35277  0.68604  1.0000
  C   C502      1.0  0.50859  0.98538  0.95851  1.0000
  S   S193      1.0  0.27554  0.36133  0.89010  1.0000
  S   S194      1.0  0.27525  0.00636  0.90947  1.0000
  N   N41       1.0  0.49190  0.30309  0.68503  1.0000
  H   H496      1.0  0.38040  0.09695  0.86179  1.0000
  H   H497      1.0  0.32387  0.12656  0.87369  1.0000
  H   H498      1.0  0.43341  0.40942  0.93076  1.0000
  H   H499      1.0  0.27705  0.00142  0.75593  1.0000
  C   C503      1.0  0.42416  0.44875  0.91698  1.0000
  H   H500      1.0  0.31526  0.00154  0.91114  1.0000
  H   H501      1.0  0.36605  0.13567  0.92167  1.0000
  H   H502      1.0  0.34769  0.10321  0.84974  1.0000
  S   S195      1.0  0.26798  0.05765  0.85716  1.0000
  C   C504      1.0  0.38541  0.34701  0.88445  1.0000
  C   C505      1.0  0.36600  0.34354  0.88272  1.0000
  C   C506      1.0  0.35463  0.34001  0.90139  1.0000
  C   C507      1.0  0.36255  0.34039  0.92194  1.0000
  C   C508      1.0  0.38187  0.34434  0.92365  1.0000
  C   C509      1.0  0.39325  0.34750  0.90501  1.0000
  H   H503      1.0  0.35979  0.34325  0.86688  1.0000
  H   H504      1.0  0.33976  0.33710  0.89978  1.0000
  H   H505      1.0  0.38809  0.34483  0.93947  1.0000
  H   H506      1.0  0.40800  0.35085  0.90675  1.0000
  C   C510      1.0  0.49286  0.35204  0.79253  1.0000
  H   H507      1.0  0.27889  0.29694  0.64143  1.0000
  C   C511      1.0  0.51348  0.22486  0.53955  1.0000
  C   C512      1.0  0.48507  0.16803  0.55640  1.0000
  C   C513      1.0  0.48122  0.15787  0.57722  1.0000
  C   C514      1.0  0.48341  0.37777  0.79358  1.0000
  C   C515      1.0  0.32877  0.99049  0.90729  1.0000
  C   C516      1.0  0.42024  0.42013  0.87876  1.0000
  H   H508      1.0  0.47229  0.38104  0.80554  1.0000
  C   C517      1.0  0.38712  0.04822  0.92424  1.0000
  C   C518      1.0  0.39615  0.04102  0.90475  1.0000
  C   C519      1.0  0.38570  0.03798  0.88593  1.0000
  C   C520      1.0  0.36615  0.04241  0.88637  1.0000
  C   C521      1.0  0.35708  0.04978  0.90584  1.0000
  C   C522      1.0  0.36754  0.05247  0.92475  1.0000
  H   H509      1.0  0.41120  0.03802  0.90408  1.0000
  H   H510      1.0  0.39282  0.03247  0.87088  1.0000
  H   H511      1.0  0.34207  0.05354  0.90634  1.0000
  H   H512      1.0  0.36046  0.05820  0.93977  1.0000
  C   C523      1.0  0.47444  0.40633  0.90909  1.0000
  C   C524      1.0  0.47405  0.42401  0.92699  1.0000
  C   C525      1.0  0.47169  0.45288  0.92406  1.0000
  C   C526      1.0  0.47020  0.46414  0.90316  1.0000
  C   C527      1.0  0.47101  0.44652  0.88532  1.0000
  C   C528      1.0  0.47301  0.41776  0.88827  1.0000
  H   H513      1.0  0.47535  0.41534  0.94314  1.0000
  H   H514      1.0  0.47126  0.46641  0.93791  1.0000
  H   H515      1.0  0.47002  0.45517  0.86912  1.0000
  H   H516      1.0  0.47390  0.40458  0.87435  1.0000
  C   C529      1.0  0.46716  0.16074  0.91249  1.0000
  C   C530      1.0  0.47854  0.18288  0.90595  1.0000
  C   C531      1.0  0.47056  0.20820  0.89842  1.0000
  C   C532      1.0  0.45104  0.21165  0.89735  1.0000
  C   C533      1.0  0.43963  0.18952  0.90391  1.0000
  C   C534      1.0  0.44762  0.16420  0.91144  1.0000
  H   H517      1.0  0.49366  0.18041  0.90670  1.0000
  H   H518      1.0  0.47952  0.22497  0.89344  1.0000
  H   H519      1.0  0.42452  0.19199  0.90318  1.0000
  H   H520      1.0  0.43871  0.14740  0.91647  1.0000
  C   C535      1.0  0.35168  0.11088  0.86540  1.0000
  H   H521      1.0  0.50890  0.05318  0.63680  1.0000
  H   H522      1.0  0.26906  0.16761  0.53912  1.0000
  N   N42       1.0  0.37515  0.11602  0.89243  1.0000
  C   C536      1.0  0.49626  0.35144  0.70826  1.0000
  H   H523      1.0  0.30081  0.16831  0.93435  1.0000
  C   C537      1.0  0.50269  0.39546  0.76329  1.0000
  H   H524      1.0  0.30883  0.46199  0.93021  1.0000
  C   C538      1.0  0.42825  0.42025  0.91649  1.0000
  H   H525      1.0  0.33959  0.99749  0.91857  1.0000
  C   C539      1.0  0.26871  0.40721  0.91521  1.0000
  C   C540      1.0  0.48915  0.27762  0.67294  1.0000
  C   C541      1.0  0.48828  0.39930  0.77900  1.0000
  H   H526      1.0  0.47309  0.26083  0.55263  1.0000
  H   H527      1.0  0.49069  0.13027  0.60277  1.0000
  H   H528      1.0  0.41098  0.99283  0.93771  1.0000
  H   H529      1.0  0.51486  0.32851  0.77610  1.0000
  C   C542      1.0  0.49470  0.30158  0.70687  1.0000
  N   N43       1.0  0.38656  0.27393  0.89539  1.0000
  C   C543      1.0  0.36747  0.27144  0.89686  1.0000
  C   C544      1.0  0.39707  0.27390  0.91370  1.0000
  C   C545      1.0  0.35835  0.26976  0.91709  1.0000
  C   C546      1.0  0.38838  0.27258  0.93419  1.0000
  C   C547      1.0  0.36888  0.27070  0.93585  1.0000
  C   C548      1.0  0.39595  0.27541  0.87410  1.0000
  H   H530      1.0  0.35914  0.27123  0.88236  1.0000
  H   H531      1.0  0.41225  0.27519  0.91251  1.0000
  H   H532      1.0  0.34317  0.26834  0.91828  1.0000
  H   H533      1.0  0.39672  0.27336  0.94865  1.0000
  H   H534      1.0  0.36187  0.27049  0.95161  1.0000
  H   H535      1.0  0.40834  0.28885  0.87464  1.0000
  H   H536      1.0  0.40090  0.25440  0.86907  1.0000
  H   H537      1.0  0.38655  0.28473  0.86168  1.0000
  N   N44       1.0  0.41803  0.46250  0.89884  1.0000
  C   C549      1.0  0.32972  0.40536  0.89263  1.0000
  H   H538      1.0  0.32342  0.37663  0.91856  1.0000
  H   H539      1.0  0.33353  0.99670  0.89070  1.0000
  C   C550      1.0  0.49559  0.32068  0.51435  1.0000
  H   H540      1.0  0.27985  0.19613  0.86115  1.0000
  H   H541      1.0  0.28088  0.45911  0.86875  1.0000
  H   H542      1.0  0.48896  0.32955  0.65727  1.0000
  C   C551      1.0  0.36210  0.12870  0.90581  1.0000
  C   C552      1.0  0.28445  0.19000  0.87714  1.0000
  H   H543      1.0  0.48082  0.41908  0.77992  1.0000
  H   H544      1.0  0.41873  0.40903  0.86373  1.0000
  C   C553      1.0  0.49333  0.13805  0.58644  1.0000
  S   S196      1.0  0.29717  0.22750  0.93384  1.0000
  C   C554      1.0  0.39471  0.11300  0.89937  1.0000
  C   C555      1.0  0.28751  0.16169  0.88200  1.0000
  C   C556      1.0  0.31547  0.41859  0.92683  1.0000
  C   C557      1.0  0.29334  0.20280  0.91342  1.0000
  H   H545      1.0  0.40196  0.13300  0.89732  1.0000
  C   C558      1.0  0.37019  0.10735  0.87237  1.0000
  C   C559      1.0  0.49692  0.32569  0.71880  1.0000
  C   C560      1.0  0.48289  0.25355  0.51988  1.0000
  H   H546      1.0  0.30993  0.41306  0.94275  1.0000
  C   C561      1.0  0.28733  0.21048  0.89275  1.0000
  H   H547      1.0  0.50063  0.38708  0.00531  1.0000
  N   N45       1.0  0.32165  0.45315  0.89946  1.0000
  C   C562      1.0  0.31493  0.44619  0.91966  1.0000
  C   C563      1.0  0.32907  0.43319  0.88601  1.0000
  H   H548      1.0  0.26939  0.09893  0.56631  1.0000
  H   H549      1.0  0.41183  0.45964  0.86530  1.0000
  H   H550      1.0  0.27414  0.24002  0.63350  1.0000
  H   H551      1.0  0.50436  0.16694  0.52926  1.0000
  C   C564      1.0  0.32294  0.39811  0.91321  1.0000
  H   H552      1.0  0.49541  0.28162  0.71514  1.0000
  C   C565      1.0  0.27932  0.41602  0.87839  1.0000
  C   C566      1.0  0.26668  0.43586  0.91847  1.0000
  C   C567      1.0  0.41626  0.44865  0.87981  1.0000
  H   H553      1.0  0.26806  0.37980  0.99598  1.0000
  H   H554      1.0  0.28495  0.23215  0.88873  1.0000
  C   C568      1.0  0.27478  0.39718  0.89508  1.0000
  C   C569      1.0  0.26506  0.24931  0.00082  1.0000
  H   H555      1.0  0.43178  0.99817  0.90510  1.0000
  C   C570      1.0  0.34349  0.13274  0.89928  1.0000
  H   H556      1.0  0.49988  0.23548  0.56983  1.0000
  C   C571      1.0  0.42638  0.40597  0.89721  1.0000
  C   C572      1.0  0.48403  0.25135  0.54256  1.0000
  H   H557      1.0  0.49381  0.28002  0.65575  1.0000
  C   C573      1.0  0.51236  0.22709  0.51687  1.0000
  H   H558      1.0  0.47412  0.27210  0.67358  1.0000
  H   H559      1.0  0.49921  0.32436  0.73609  1.0000
  C   C574      1.0  0.49921  0.23706  0.55237  1.0000
  H   H560      1.0  0.51355  0.34325  0.89001  1.0000
  C   C575      1.0  0.27764  0.44477  0.88178  1.0000
  C   C576      1.0  0.50108  0.15822  0.54512  1.0000
  H   H561      1.0  0.49777  0.26010  0.67969  1.0000
  H   H562      1.0  0.49307  0.37257  0.67751  1.0000
  H   H563      1.0  0.42624  0.45989  0.93184  1.0000
  H   H564      1.0  0.43008  0.38408  0.89645  1.0000
  H   H565      1.0  0.28394  0.40832  0.86274  1.0000
  H   H566      1.0  0.33541  0.38949  0.88190  1.0000
  S   S197      1.0  0.48386  0.04241  0.00322  1.0000
  S   S198      1.0  0.28383  0.13686  0.86162  1.0000
  H   H567      1.0  0.51222  0.39437  0.89334  1.0000
  C   C577      1.0  0.50930  0.12891  0.57477  1.0000
  N   N46       1.0  0.51298  0.13898  0.55436  1.0000
  H   H568      1.0  0.49142  0.42166  0.00965  1.0000
  S   S199      1.0  0.26723  0.30157  0.93716  1.0000
  C   C578      1.0  0.51224  0.36979  0.76236  1.0000
  H   H569      1.0  0.27813  0.26066  0.99698  1.0000
  C   C579      1.0  0.51480  0.38508  0.87762  1.0000
  H   H570      1.0  0.47095  0.36809  0.51317  1.0000
  H   H571      1.0  0.26489  0.39287  0.92807  1.0000
  H   H572      1.0  0.47328  0.98404  0.00265  1.0000
  H   H573      1.0  0.36987  0.51278  0.35834  1.0000
  H   H574      1.0  0.39248  0.87730  0.41751  1.0000
  Fe  Fe97      1.0  0.46679  0.78617  0.46506  1.0000
  S   S200      1.0  0.48441  0.79161  0.43464  1.0000
  H   H575      1.0  0.50935  0.88417  0.42949  1.0000
  Fe  Fe98      1.0  0.43028  0.79087  0.43954  1.0000
  S   S201      1.0  0.44529  0.79680  0.40778  1.0000
  S   S202      1.0  0.39853  0.79063  0.44208  1.0000
  Fe  Fe99      1.0  0.46440  0.76238  0.41970  1.0000
  S   S203      1.0  0.47174  0.73089  0.39387  1.0000
  Fe  Fe100     1.0  0.46366  0.82564  0.42537  1.0000
  S   S204      1.0  0.47536  0.86480  0.40964  1.0000
  S   S205      1.0  0.44814  0.75440  0.45063  1.0000
  S   S206      1.0  0.44730  0.82230  0.45667  1.0000
  Fe  Fe101     1.0  0.42036  0.56691  0.35878  1.0000
  S   S207      1.0  0.43276  0.54829  0.38872  1.0000
  S   S208      1.0  0.38994  0.58201  0.35858  1.0000
  Fe  Fe102     1.0  0.45753  0.56036  0.33247  1.0000
  S   S209      1.0  0.47222  0.54074  0.36112  1.0000
  S   S210      1.0  0.47482  0.56301  0.30085  1.0000
  Fe  Fe103     1.0  0.44599  0.51613  0.36694  1.0000
  N   N47       1.0  0.36049  0.50700  0.39112  1.0000
  Fe  Fe104     1.0  0.45735  0.57477  0.38006  1.0000
  S   S211      1.0  0.46957  0.60061  0.40643  1.0000
  S   S212      1.0  0.43221  0.53365  0.33699  1.0000
  S   S213      1.0  0.44414  0.59546  0.35124  1.0000
  C   C580      1.0  0.34063  0.51226  0.38617  1.0000
  N   N48       1.0  0.32035  0.69441  0.39315  1.0000
  N   N49       1.0  0.47573  0.57975  0.20404  1.0000
  H   H576      1.0  0.29632  0.94662  0.37122  1.0000
  S   S214      1.0  0.28887  0.53116  0.45636  1.0000
  H   H577      1.0  0.32936  0.68070  0.42433  1.0000
  H   H578      1.0  0.33270  0.52062  0.40047  1.0000
  S   S215      1.0  0.28908  0.59938  0.45014  1.0000
  C   C581      1.0  0.33802  0.86931  0.39589  1.0000
  Fe  Fe105     1.0  0.30683  0.56267  0.43914  1.0000
  S   S216      1.0  0.33841  0.56073  0.44173  1.0000
  H   H579      1.0  0.27335  0.73574  0.25078  1.0000
  S   S217      1.0  0.29315  0.55817  0.40709  1.0000
  Fe  Fe106     1.0  0.31705  0.79218  0.36184  1.0000
  S   S218      1.0  0.30485  0.81077  0.39211  1.0000
  S   S219      1.0  0.34804  0.78034  0.35907  1.0000
  Fe  Fe107     1.0  0.27895  0.79492  0.33845  1.0000
  Fe  Fe108     1.0  0.28934  0.84080  0.37049  1.0000
  Fe  Fe109     1.0  0.28126  0.78170  0.38651  1.0000
  N   N50       1.0  0.49840  0.86685  0.45897  1.0000
  S   S220      1.0  0.30318  0.82386  0.34017  1.0000
  S   S221      1.0  0.29435  0.76141  0.35720  1.0000
  C   C582      1.0  0.51454  0.67192  0.38095  1.0000
  C   C583      1.0  0.49138  0.73301  0.50739  1.0000
  C   C584      1.0  0.35357  0.86725  0.40939  1.0000
  N   N51       1.0  0.48642  0.77623  0.19195  1.0000
  C   C585      1.0  0.35723  0.85063  0.36671  1.0000
  H   H580      1.0  0.40314  0.50105  0.36603  1.0000
  C   C586      1.0  0.47424  0.52708  0.22268  1.0000
  C   C587      1.0  0.49069  0.48838  0.05346  1.0000
  H   H581      1.0  0.26695  0.73290  0.31287  1.0000
  S   S222      1.0  0.29057  0.88818  0.37110  1.0000
  C   C588      1.0  0.36551  0.50038  0.41186  1.0000
  C   C589      1.0  0.49121  0.63849  0.25875  1.0000
  C   C590      1.0  0.32443  0.72355  0.39701  1.0000
  C   C591      1.0  0.35251  0.56959  0.41906  1.0000
  C   C592      1.0  0.34469  0.57858  0.39951  1.0000
  C   C593      1.0  0.35634  0.58299  0.38118  1.0000
  C   C594      1.0  0.37584  0.57828  0.38226  1.0000
  C   C595      1.0  0.38362  0.57022  0.40203  1.0000
  C   C596      1.0  0.37204  0.56605  0.42035  1.0000
  H   H582      1.0  0.32968  0.58150  0.39837  1.0000
  H   H583      1.0  0.35018  0.58943  0.36599  1.0000
  H   H584      1.0  0.39853  0.56693  0.40335  1.0000
  H   H585      1.0  0.37821  0.55933  0.43547  1.0000
  C   C597      1.0  0.48133  0.59282  0.28563  1.0000
  H   H586      1.0  0.48448  0.72744  0.49268  1.0000
  H   H587      1.0  0.51170  0.61053  0.24422  1.0000
  C   C598      1.0  0.38677  0.85625  0.41594  1.0000
  C   C599      1.0  0.31235  0.68718  0.37415  1.0000
  S   S223      1.0  0.47961  0.78751  0.49878  1.0000
  C   C600      1.0  0.50749  0.76743  0.22132  1.0000
  H   H588      1.0  0.33914  0.52795  0.37294  1.0000
  H   H589      1.0  0.46804  0.59490  0.23539  1.0000
  C   C601      1.0  0.38483  0.78606  0.41894  1.0000
  C   C602      1.0  0.39301  0.78187  0.39841  1.0000
  C   C603      1.0  0.38158  0.77948  0.38023  1.0000
  C   C604      1.0  0.36193  0.78164  0.38240  1.0000
  C   C605      1.0  0.35380  0.78542  0.40297  1.0000
  C   C606      1.0  0.36519  0.78761  0.42114  1.0000
  H   H590      1.0  0.40810  0.78067  0.39646  1.0000
  H   H591      1.0  0.38800  0.77650  0.36437  1.0000
  H   H592      1.0  0.33874  0.78657  0.40500  1.0000
  H   H593      1.0  0.35875  0.79075  0.43697  1.0000
  C   C607      1.0  0.46944  0.69510  0.39834  1.0000
  C   C608      1.0  0.46667  0.67824  0.38045  1.0000
  C   C609      1.0  0.46621  0.64936  0.38293  1.0000
  C   C610      1.0  0.46877  0.63700  0.40327  1.0000
  C   C611      1.0  0.47147  0.65388  0.42123  1.0000
  C   C612      1.0  0.47160  0.68293  0.41883  1.0000
  H   H594      1.0  0.46521  0.68753  0.36452  1.0000
  H   H595      1.0  0.46473  0.63670  0.36888  1.0000
  H   H596      1.0  0.47361  0.64445  0.43701  1.0000
  H   H597      1.0  0.47400  0.69581  0.43268  1.0000
  C   C613      1.0  0.46415  0.89790  0.40653  1.0000
  C   C614      1.0  0.44625  0.90387  0.41530  1.0000
  C   C615      1.0  0.43810  0.93066  0.41283  1.0000
  C   C616      1.0  0.44769  0.95176  0.40158  1.0000
  C   C617      1.0  0.46560  0.94578  0.39289  1.0000
  C   C618      1.0  0.47378  0.91902  0.39541  1.0000
  H   H598      1.0  0.43871  0.88789  0.42397  1.0000
  H   H599      1.0  0.42426  0.93508  0.41967  1.0000
  C   C619      1.0  0.47821  0.75128  0.19581  1.0000
  H   H600      1.0  0.48763  0.91463  0.38855  1.0000
  H   H601      1.0  0.49048  0.48573  0.07089  1.0000
  H   H602      1.0  0.27765  0.65558  0.43409  1.0000
  H   H603      1.0  0.27783  0.48446  0.10000  1.0000
  H   H604      1.0  0.35867  0.84332  0.35020  1.0000
  C   C620      1.0  0.39787  0.49414  0.40009  1.0000
  C   C621      1.0  0.29140  0.96068  0.40393  1.0000
  C   C622      1.0  0.47828  0.53023  0.20059  1.0000
  Fe  Fe110     1.0  0.27395  0.52902  0.42479  1.0000
  H   H605      1.0  0.46617  0.97636  0.10647  1.0000
  H   H606      1.0  0.48407  0.57594  0.02673  1.0000
  H   H607      1.0  0.38591  0.84093  0.37444  1.0000
  C   C623      1.0  0.26644  0.70995  0.38898  1.0000
  H   H608      1.0  0.27149  0.80602  0.20835  1.0000
  H   H609      1.0  0.47806  0.71387  0.21552  1.0000
  H   H610      1.0  0.32452  0.87720  0.40198  1.0000
  H   H611      1.0  0.46094  0.62081  0.30029  1.0000
  H   H612      1.0  0.50403  0.72856  0.23849  1.0000
  C   C624      1.0  0.47724  0.50593  0.04342  1.0000
  H   H613      1.0  0.48461  0.90501  0.44940  1.0000
  H   H614      1.0  0.30737  0.61827  0.38376  1.0000
  C   C625      1.0  0.51086  0.86809  0.44183  1.0000
  H   H615      1.0  0.46285  0.61473  0.18874  1.0000
  C   C626      1.0  0.28989  0.91229  0.39256  1.0000
  C   C627      1.0  0.49350  0.57798  0.01280  1.0000
  C   C628      1.0  0.28561  0.90451  0.41392  1.0000
  H   H616      1.0  0.48194  0.89570  0.47757  1.0000
  C   C629      1.0  0.29296  0.94041  0.38771  1.0000
  C   C630      1.0  0.28672  0.95299  0.42521  1.0000
  H   H617      1.0  0.39819  0.84217  0.40967  1.0000
  H   H618      1.0  0.46706  0.74452  0.18557  1.0000
  H   H619      1.0  0.28315  0.88298  0.41789  1.0000
  H   H620      1.0  0.29187  0.80252  0.24311  1.0000
  C   C631      1.0  0.28404  0.92478  0.43014  1.0000
  C   C632      1.0  0.26979  0.78400  0.21126  1.0000
  C   C633      1.0  0.26838  0.66185  0.40139  1.0000
  C   C634      1.0  0.50066  0.61291  0.25641  1.0000
  Fe  Fe111     1.0  0.26959  0.56768  0.46437  1.0000
  H   H621      1.0  0.46718  0.54831  0.25245  1.0000
  H   H622      1.0  0.46968  0.66095  0.27687  1.0000
  H   H623      1.0  0.48136  0.51219  0.19064  1.0000
  C   C635      1.0  0.47105  0.57681  0.22553  1.0000
  C   C636      1.0  0.38428  0.49402  0.41668  1.0000
  C   C637      1.0  0.47718  0.50946  0.02077  1.0000
  C   C638      1.0  0.30785  0.65963  0.37037  1.0000
  C   C639      1.0  0.33992  0.86095  0.37443  1.0000
  C   C640      1.0  0.49985  0.84588  0.47399  1.0000
  S   S224      1.0  0.50117  0.67242  0.17984  1.0000
  H   H624      1.0  0.30100  0.65407  0.35556  1.0000
  H   H625      1.0  0.32796  0.86234  0.36382  1.0000
  C   C641      1.0  0.50805  0.65131  0.34587  1.0000
  H   H626      1.0  0.41249  0.48911  0.40353  1.0000
  C   C642      1.0  0.47041  0.55048  0.23523  1.0000
  N   N52       1.0  0.41978  0.68744  0.39886  1.0000
  C   C643      1.0  0.42466  0.66917  0.41504  1.0000
  C   C644      1.0  0.41247  0.67806  0.38006  1.0000
  C   C645      1.0  0.42291  0.64063  0.41231  1.0000
  C   C646      1.0  0.41041  0.64964  0.37686  1.0000
  C   C647      1.0  0.41580  0.63089  0.39307  1.0000
  C   C648      1.0  0.42155  0.71731  0.40203  1.0000
  H   H627      1.0  0.43039  0.67657  0.42999  1.0000
  H   H628      1.0  0.40830  0.69256  0.36737  1.0000
  H   H629      1.0  0.42748  0.62608  0.42481  1.0000
  H   H630      1.0  0.40474  0.64204  0.36191  1.0000
  H   H631      1.0  0.41457  0.60883  0.39063  1.0000
  H   H632      1.0  0.42575  0.72793  0.38667  1.0000
  H   H633      1.0  0.40803  0.72646  0.40821  1.0000
  H   H634      1.0  0.43270  0.72162  0.41376  1.0000
  N   N53       1.0  0.37053  0.85717  0.40168  1.0000
  C   C649      1.0  0.32363  0.67485  0.40897  1.0000
  C   C650      1.0  0.47707  0.64124  0.27489  1.0000
  N   N54       1.0  0.51021  0.64797  0.36773  1.0000
  S   S225      1.0  0.27304  0.75435  0.41495  1.0000
  H   H635      1.0  0.48208  0.62261  0.20623  1.0000
  H   H636      1.0  0.49955  0.58462  0.33269  1.0000
  C   C651      1.0  0.39262  0.50084  0.37900  1.0000
  N   N55       1.0  0.27340  0.77252  0.23117  1.0000
  H   H637      1.0  0.38829  0.48919  0.43317  1.0000
  C   C652      1.0  0.31142  0.63950  0.38625  1.0000
  C   C653      1.0  0.50350  0.96651  0.04346  1.0000
  H   H638      1.0  0.31165  0.73455  0.40348  1.0000
  H   H639      1.0  0.50404  0.79159  0.12669  1.0000
  C   C654      1.0  0.27638  0.69905  0.42539  1.0000
  C   C655      1.0  0.37253  0.84912  0.38058  1.0000
  H   H640      1.0  0.50374  0.57895  0.37244  1.0000
  H   H641      1.0  0.47796  0.78257  0.15946  1.0000
  H   H642      1.0  0.28074  0.70582  0.44111  1.0000
  S   S226      1.0  0.49631  0.66741  0.24177  1.0000
  C   C656      1.0  0.49574  0.59024  0.26980  1.0000
  H   H643      1.0  0.48969  0.84442  0.48726  1.0000
  H   H644      1.0  0.30909  0.70280  0.36192  1.0000
  H   H645      1.0  0.29347  0.98227  0.39990  1.0000
  C   C657      1.0  0.47919  0.79444  0.17467  1.0000
  C   C658      1.0  0.37376  0.50728  0.37477  1.0000
  H   H646      1.0  0.48695  0.60775  0.18028  1.0000
  S   S227      1.0  0.51120  0.74419  0.15401  1.0000
  H   H647      1.0  0.35197  0.87373  0.42609  1.0000
  H   H648      1.0  0.50303  0.57047  0.26772  1.0000
  C   C659      1.0  0.47211  0.61854  0.28825  1.0000
  H   H649      1.0  0.38273  0.84804  0.43225  1.0000
  C   C660      1.0  0.47868  0.55689  0.19142  1.0000
  H   H650      1.0  0.47314  0.96175  0.38418  1.0000
  H   H651      1.0  0.46943  0.87742  0.45708  1.0000
  H   H652      1.0  0.48857  0.98193  0.11874  1.0000
  H   H653      1.0  0.33595  0.72562  0.40870  1.0000
  C   C661      1.0  0.50095  0.78438  0.20438  1.0000
  C   C662      1.0  0.47690  0.60756  0.19434  1.0000
  C   C663      1.0  0.48988  0.96360  0.02750  1.0000
  C   C664      1.0  0.48438  0.73385  0.21264  1.0000
  C   C665      1.0  0.48287  0.88730  0.46093  1.0000
  H   H654      1.0  0.48178  0.55916  0.17422  1.0000
  H   H655      1.0  0.32184  0.63159  0.41831  1.0000
  C   C666      1.0  0.50268  0.60239  0.34249  1.0000
  H   H656      1.0  0.48881  0.81174  0.17093  1.0000
  S   S228      1.0  0.51340  0.92678  0.12101  1.0000
  H   H657      1.0  0.46678  0.51684  0.05327  1.0000
  H   H658      1.0  0.32902  0.73412  0.38177  1.0000
  H   H659      1.0  0.48791  0.97177  0.09104  1.0000
  Fe  Fe112     1.0  0.27402  0.59265  0.41918  1.0000
  C   C667      1.0  0.31937  0.64707  0.40570  1.0000
  H   H660      1.0  0.50948  0.66903  0.39797  1.0000
  H   H661      1.0  0.47407  0.50656  0.23007  1.0000
  C   C668      1.0  0.50909  0.62222  0.37715  1.0000
  C   C669      1.0  0.27465  0.67060  0.42145  1.0000
  H   H662      1.0  0.28039  0.91865  0.44658  1.0000
  H   H663      1.0  0.50776  0.80388  0.20102  1.0000
  H   H664      1.0  0.46521  0.80331  0.17945  1.0000
  C   C670      1.0  0.27215  0.71878  0.40921  1.0000
  C   C671      1.0  0.50514  0.59914  0.36473  1.0000
  H   H665      1.0  0.48396  0.94350  0.02495  1.0000
  C   C672      1.0  0.27960  0.79033  0.24857  1.0000
  H   H666      1.0  0.35505  0.50060  0.42489  1.0000
  C   C673      1.0  0.50423  0.62860  0.33294  1.0000
  C   C674      1.0  0.27083  0.74485  0.23492  1.0000
  C   C675      1.0  0.26529  0.49208  0.09195  1.0000
  H   H667      1.0  0.51064  0.61948  0.39450  1.0000
  H   H668      1.0  0.50246  0.63127  0.31562  1.0000
  H   H669      1.0  0.26796  0.80478  0.25366  1.0000
  S   S229      1.0  0.28285  0.97775  0.44593  1.0000
  H   H670      1.0  0.28379  0.77816  0.26320  1.0000
  H   H671      1.0  0.50733  0.69111  0.37481  1.0000
  H   H672      1.0  0.50914  0.67164  0.33834  1.0000
  S   S230      1.0  0.51135  0.93688  0.05826  1.0000
  H   H673      1.0  0.33410  0.49275  0.38120  1.0000
  H   H674      1.0  0.51485  0.56237  0.11627  1.0000
  H   H675      1.0  0.51201  0.54472  0.02367  1.0000
  C   C676      1.0  0.49902  0.74211  0.22554  1.0000
  C   C677      1.0  0.51422  0.82564  0.47225  1.0000
  H   H676      1.0  0.26566  0.62535  0.49714  1.0000
  Fe  Fe113     1.0  0.45570  0.54205  0.97331  1.0000
  S   S231      1.0  0.47723  0.55193  0.94737  1.0000
  C   C678      1.0  0.48531  0.74190  0.60382  1.0000
  Fe  Fe114     1.0  0.42292  0.55594  0.94314  1.0000
  S   S232      1.0  0.44178  0.56698  0.91503  1.0000
  S   S233      1.0  0.39117  0.55772  0.94378  1.0000
  Fe  Fe115     1.0  0.45841  0.52887  0.92536  1.0000
  H   H677      1.0  0.33838  0.60973  0.86668  1.0000
  Fe  Fe116     1.0  0.45878  0.58935  0.93925  1.0000
  S   S234      1.0  0.47279  0.63126  0.93564  1.0000
  S   S235      1.0  0.43821  0.51620  0.95178  1.0000
  S   S236      1.0  0.43860  0.58106  0.96681  1.0000
  Fe  Fe117     1.0  0.45293  0.78035  0.87507  1.0000
  S   S237      1.0  0.44237  0.79677  0.84311  1.0000
  S   S238      1.0  0.44188  0.73705  0.88241  1.0000
  Fe  Fe118     1.0  0.46622  0.83864  0.88664  1.0000
  S   S239      1.0  0.45616  0.85845  0.85579  1.0000
  S   S240      1.0  0.47712  0.86514  0.91330  1.0000
  Fe  Fe119     1.0  0.43069  0.83278  0.86203  1.0000
  S   S241      1.0  0.40064  0.84783  0.85827  1.0000
  Fe  Fe120     1.0  0.46907  0.82063  0.84003  1.0000
  S   S242      1.0  0.48711  0.81979  0.80894  1.0000
  S   S243      1.0  0.43985  0.81562  0.89388  1.0000
  S   S244      1.0  0.48072  0.80174  0.87083  1.0000
  H   H678      1.0  0.49742  0.56607  0.67574  1.0000
  H   H679      1.0  0.48773  0.68543  0.92798  1.0000
  H   H680      1.0  0.43401  0.88969  0.89659  1.0000
  C   C679      1.0  0.31697  0.91793  0.89296  1.0000
  H   H681      1.0  0.49932  0.69079  0.51581  1.0000
  Fe  Fe121     1.0  0.31083  0.54928  0.86274  1.0000
  S   S245      1.0  0.29646  0.55457  0.89499  1.0000
  S   S246      1.0  0.34252  0.54425  0.85988  1.0000
  H   H682      1.0  0.46834  0.62333  0.98269  1.0000
  Fe  Fe122     1.0  0.27870  0.58738  0.87865  1.0000
  C   C680      1.0  0.51022  0.49712  0.73015  1.0000
  C   C681      1.0  0.29227  0.71393  0.90381  1.0000
  S   S247      1.0  0.29433  0.58413  0.84671  1.0000
  S   S248      1.0  0.29192  0.51579  0.85157  1.0000
  Fe  Fe123     1.0  0.31779  0.83358  0.94045  1.0000
  S   S249      1.0  0.30583  0.82299  0.90868  1.0000
  S   S250      1.0  0.34783  0.84746  0.94241  1.0000
  H   H683      1.0  0.29813  0.65564  0.87296  1.0000
  Fe  Fe124     1.0  0.29357  0.78589  0.92561  1.0000
  C   C682      1.0  0.48802  0.50581  0.70172  1.0000
  Fe  Fe125     1.0  0.27644  0.52358  0.88289  1.0000
  S   S251      1.0  0.30700  0.79545  0.95731  1.0000
  S   S252      1.0  0.29320  0.86073  0.95088  1.0000
  H   H684      1.0  0.33055  0.90701  0.94480  1.0000
  N   N56       1.0  0.32631  0.96046  0.90892  1.0000
  S   S253      1.0  0.26693  0.49031  0.90632  1.0000
  H   H685      1.0  0.49302  0.73677  0.61838  1.0000
  C   C683      1.0  0.49982  0.71227  0.52055  1.0000
  N   N57       1.0  0.42228  0.93021  0.90074  1.0000
  C   C684      1.0  0.50140  0.59931  0.97913  1.0000
  C   C685      1.0  0.34051  0.61346  0.88375  1.0000
  Fe  Fe126     1.0  0.27385  0.55078  0.83855  1.0000
  S   S254      1.0  0.30169  0.74760  0.90561  1.0000
  H   H686      1.0  0.46740  0.79725  0.57583  1.0000
  C   C686      1.0  0.41411  0.97521  0.92733  1.0000
  H   H687      1.0  0.50629  0.85945  0.87697  1.0000
  S   S255      1.0  0.46754  0.50003  0.89844  1.0000
  H   H688      1.0  0.47558  0.63250  0.00946  1.0000
  C   C687      1.0  0.29271  0.66890  0.88572  1.0000
  C   C688      1.0  0.50929  0.56021  0.01115  1.0000
  H   H689      1.0  0.39789  0.94661  0.94663  1.0000
  C   C689      1.0  0.49489  0.48875  0.71840  1.0000
  H   H690      1.0  0.27356  0.96529  0.82845  1.0000
  C   C690      1.0  0.47083  0.77585  0.58003  1.0000
  C   C691      1.0  0.27452  0.95238  0.92333  1.0000
  Fe  Fe127     1.0  0.28089  0.82179  0.96468  1.0000
  H   H691      1.0  0.31473  0.61758  0.95125  1.0000
  H   H692      1.0  0.46068  0.60311  0.00549  1.0000
  H   H693      1.0  0.49155  0.87679  0.69255  1.0000
  C   C692      1.0  0.36123  0.61865  0.91378  1.0000
  H   H694      1.0  0.42734  0.50371  0.89552  1.0000
  C   C693      1.0  0.26963  0.93117  0.88205  1.0000
  C   C694      1.0  0.47274  0.61490  0.99873  1.0000
  C   C695      1.0  0.31961  0.94654  0.89166  1.0000
  H   H695      1.0  0.33468  0.95786  0.94188  1.0000
  C   C696      1.0  0.38613  0.84798  0.88176  1.0000
  C   C697      1.0  0.36659  0.84722  0.87966  1.0000
  C   C698      1.0  0.35471  0.84698  0.89809  1.0000
  C   C699      1.0  0.36225  0.84792  0.91880  1.0000
  C   C700      1.0  0.38179  0.84935  0.92088  1.0000
  C   C701      1.0  0.39369  0.84920  0.90245  1.0000
  H   H696      1.0  0.36061  0.84653  0.86371  1.0000
  H   H697      1.0  0.33975  0.84623  0.89613  1.0000
  H   H698      1.0  0.38775  0.85019  0.93683  1.0000
  H   H699      1.0  0.40867  0.85040  0.90432  1.0000
  C   C702      1.0  0.49491  0.84818  0.79298  1.0000
  H   H700      1.0  0.27619  0.96059  0.93937  1.0000
  C   C703      1.0  0.49082  0.49538  0.00822  1.0000
  C   C704      1.0  0.41105  0.92685  0.91876  1.0000
  C   C705      1.0  0.49664  0.89751  0.78492  1.0000
  C   C706      1.0  0.48980  0.87559  0.79788  1.0000
  S   S256      1.0  0.51443  0.74856  0.65738  1.0000
  H   H701      1.0  0.47625  0.72701  0.90747  1.0000
  H   H702      1.0  0.48066  0.87990  0.81171  1.0000
  C   C707      1.0  0.37828  0.55248  0.92026  1.0000
  C   C708      1.0  0.38679  0.55205  0.89966  1.0000
  C   C709      1.0  0.37576  0.54886  0.88123  1.0000
  C   C710      1.0  0.35618  0.54654  0.88331  1.0000
  C   C711      1.0  0.34781  0.54677  0.90397  1.0000
  C   C712      1.0  0.35880  0.54964  0.92234  1.0000
  H   H703      1.0  0.40179  0.55466  0.89789  1.0000
  H   H704      1.0  0.38235  0.54887  0.86529  1.0000
  H   H705      1.0  0.33288  0.54480  0.90593  1.0000
  H   H706      1.0  0.35215  0.55000  0.93824  1.0000
  C   C713      1.0  0.47529  0.90131  0.90943  1.0000
  C   C714      1.0  0.47685  0.91296  0.88868  1.0000
  C   C715      1.0  0.47691  0.94182  0.88591  1.0000
  C   C716      1.0  0.47470  0.95931  0.90376  1.0000
  C   C717      1.0  0.47237  0.94777  0.92450  1.0000
  C   C718      1.0  0.47301  0.91877  0.92735  1.0000
  H   H707      1.0  0.47862  0.89977  0.87479  1.0000
  H   H708      1.0  0.47859  0.95069  0.86982  1.0000
  H   H709      1.0  0.47031  0.96113  0.93830  1.0000
  H   H710      1.0  0.47161  0.90981  0.94343  1.0000
  C   C719      1.0  0.46404  0.66046  0.92068  1.0000
  C   C720      1.0  0.44696  0.66001  0.90989  1.0000
  C   C721      1.0  0.44048  0.68364  0.89829  1.0000
  C   C722      1.0  0.45096  0.70799  0.89728  1.0000
  C   C723      1.0  0.46804  0.70847  0.90808  1.0000
  C   C724      1.0  0.47451  0.68483  0.91971  1.0000
  H   H711      1.0  0.43875  0.64146  0.91046  1.0000
  H   H712      1.0  0.42727  0.68301  0.88999  1.0000
  H   H713      1.0  0.51105  0.54823  0.63158  1.0000
  H   H714      1.0  0.37074  0.61216  0.88085  1.0000
  H   H715      1.0  0.32333  0.48490  0.87494  1.0000
  C   C725      1.0  0.34550  0.62114  0.92763  1.0000
  H   H716      1.0  0.45069  0.69698  0.56371  1.0000
  H   H717      1.0  0.50083  0.78897  0.53771  1.0000
  H   H718      1.0  0.29976  0.60960  0.92939  1.0000
  H   H719      1.0  0.30834  0.49302  0.89772  1.0000
  C   C726      1.0  0.47707  0.92155  0.71285  1.0000
  H   H720      1.0  0.48784  0.93270  0.72188  1.0000
  H   H721      1.0  0.39690  0.77941  0.91330  1.0000
  N   N58       1.0  0.49621  0.53054  0.69691  1.0000
  C   C727      1.0  0.32103  0.90369  0.91214  1.0000
  C   C728      1.0  0.50858  0.89229  0.76691  1.0000
  H   H722      1.0  0.26985  0.49148  0.71099  1.0000
  C   C729      1.0  0.48465  0.87197  0.70795  1.0000
  H   H723      1.0  0.31030  0.70308  0.87660  1.0000
  C   C730      1.0  0.32512  0.61599  0.89807  1.0000
  H   H724      1.0  0.30607  0.64503  0.93353  1.0000
  H   H725      1.0  0.47422  0.55669  0.68502  1.0000
  H   H726      1.0  0.31893  0.88159  0.91343  1.0000
  H   H727      1.0  0.40331  0.49897  0.88779  1.0000
  H   H728      1.0  0.46320  0.93214  0.71559  1.0000
  C   C731      1.0  0.42560  0.97834  0.90895  1.0000
  C   C732      1.0  0.47998  0.72101  0.58987  1.0000
  C   C733      1.0  0.49150  0.76076  0.51359  1.0000
  C   C734      1.0  0.46560  0.75441  0.56652  1.0000
  H   H729      1.0  0.48386  0.69963  0.59364  1.0000
  C   C735      1.0  0.47562  0.83792  0.73494  1.0000
  H   H730      1.0  0.31105  0.61477  0.89181  1.0000
  H   H731      1.0  0.26522  0.88021  0.99234  1.0000
  C   C736      1.0  0.32992  0.94672  0.92797  1.0000
  H   H732      1.0  0.41005  0.78196  0.87797  1.0000
  C   C737      1.0  0.50059  0.76756  0.53277  1.0000
  C   C738      1.0  0.29950  0.69593  0.88774  1.0000
  C   C739      1.0  0.27821  0.70448  0.91799  1.0000
  H   H733      1.0  0.31139  0.90692  0.87939  1.0000
  H   H734      1.0  0.33355  0.77171  0.88290  1.0000
  H   H735      1.0  0.31607  0.95758  0.87684  1.0000
  H   H736      1.0  0.47495  0.68789  0.55703  1.0000
  C   C740      1.0  0.40675  0.94930  0.93230  1.0000
  C   C741      1.0  0.42667  0.90624  0.88704  1.0000
  C   C742      1.0  0.48068  0.76947  0.59884  1.0000
  S   S257      1.0  0.26660  0.80955  0.93393  1.0000
  C   C743      1.0  0.46841  0.88655  0.73997  1.0000
  C   C744      1.0  0.27153  0.67735  0.91610  1.0000
  C   C745      1.0  0.27873  0.65938  0.90000  1.0000
  C   C746      1.0  0.39758  0.77328  0.87031  1.0000
  H   H737      1.0  0.47548  0.81664  0.74087  1.0000
  C   C747      1.0  0.41425  0.49248  0.89951  1.0000
  H   H738      1.0  0.36188  0.77050  0.85889  1.0000
  H   H739      1.0  0.46273  0.90303  0.75014  1.0000
  C   C748      1.0  0.35867  0.61483  0.89169  1.0000
  C   C749      1.0  0.27160  0.95982  0.88473  1.0000
  H   H740      1.0  0.46149  0.85442  0.76331  1.0000
  H   H741      1.0  0.48054  0.92321  0.69526  1.0000
  C   C750      1.0  0.46424  0.70512  0.55754  1.0000
  H   H742      1.0  0.47628  0.49899  0.69243  1.0000
  C   C751      1.0  0.48417  0.84430  0.71504  1.0000
  N   N59       1.0  0.47032  0.72743  0.57146  1.0000
  H   H743      1.0  0.36881  0.78152  0.93770  1.0000
  H   H744      1.0  0.45817  0.75957  0.55177  1.0000
  H   H745      1.0  0.49051  0.82793  0.70524  1.0000
  H   H746      1.0  0.39526  0.78542  0.85514  1.0000
  C   C752      1.0  0.34937  0.77639  0.91189  1.0000
  N   N60       1.0  0.47657  0.89260  0.72029  1.0000
  C   C753      1.0  0.27301  0.92369  0.92058  1.0000
  H   H747      1.0  0.27169  0.49242  0.80762  1.0000
  C   C754      1.0  0.46767  0.85913  0.74751  1.0000
  C   C755      1.0  0.32752  0.91808  0.92980  1.0000
  H   H748      1.0  0.46257  0.71252  0.54055  1.0000
  H   H749      1.0  0.49270  0.91867  0.78891  1.0000
  C   C756      1.0  0.27032  0.91304  0.89996  1.0000
  C   C757      1.0  0.42939  0.95560  0.89564  1.0000
  H   H750      1.0  0.48687  0.53631  0.66473  1.0000
  H   H751      1.0  0.40539  0.90669  0.92274  1.0000
  C   C758      1.0  0.51368  0.86660  0.86245  1.0000
  Fe  Fe128     1.0  0.28048  0.84731  0.91995  1.0000
  H   H752      1.0  0.34764  0.62394  0.94479  1.0000
  H   H753      1.0  0.37531  0.61890  0.92022  1.0000
  H   H754      1.0  0.40103  0.75129  0.86642  1.0000
  C   C759      1.0  0.31133  0.62314  0.93425  1.0000
  H   H755      1.0  0.33701  0.77700  0.92245  1.0000
  N   N61       1.0  0.32773  0.61960  0.91971  1.0000
  N   N62       1.0  0.38097  0.77505  0.88469  1.0000
  C   C760      1.0  0.36349  0.77279  0.87618  1.0000
  C   C761      1.0  0.38302  0.77772  0.90654  1.0000
  C   C762      1.0  0.34744  0.77346  0.88963  1.0000
  C   C763      1.0  0.36725  0.77864  0.92045  1.0000
  S   S258      1.0  0.26731  0.87737  0.89609  1.0000
  H   H756      1.0  0.27811  0.94585  0.79193  1.0000
  C   C764      1.0  0.50906  0.74682  0.54591  1.0000
  H   H757      1.0  0.48476  0.78585  0.60953  1.0000
  H   H758      1.0  0.26761  0.92294  0.86609  1.0000
  C   C765      1.0  0.51367  0.86489  0.76200  1.0000
  H   H759      1.0  0.49850  0.61462  0.96655  1.0000
  N   N63       1.0  0.48951  0.59677  0.99668  1.0000
  C   C766      1.0  0.27377  0.97050  0.90544  1.0000
  H   H760      1.0  0.43834  0.95842  0.88140  1.0000
  H   H761      1.0  0.27252  0.71802  0.93044  1.0000
  H   H762      1.0  0.27097  0.97376  0.87092  1.0000
  H   H763      1.0  0.49103  0.49808  0.99080  1.0000
  C   C767      1.0  0.50692  0.84298  0.77504  1.0000
  C   C768      1.0  0.50882  0.95834  0.96698  1.0000
  H   H764      1.0  0.50103  0.94261  0.95889  1.0000
  H   H765      1.0  0.27350  0.91002  0.93451  1.0000
  C   C769      1.0  0.48824  0.54837  0.67982  1.0000
  H   H766      1.0  0.43599  0.91164  0.87306  1.0000
  H   H767      1.0  0.33360  0.49278  0.90043  1.0000
  H   H768      1.0  0.41355  0.89792  0.88048  1.0000
  C   C770      1.0  0.51145  0.53874  0.70813  1.0000
  H   H769      1.0  0.40904  0.49904  0.91581  1.0000
  H   H770      1.0  0.50460  0.91402  0.99200  1.0000
  C   C771      1.0  0.50847  0.71896  0.54004  1.0000
  H   H771      1.0  0.51102  0.82183  0.77119  1.0000
  S   S259      1.0  0.27021  0.62507  0.89904  1.0000
  S   S260      1.0  0.46036  0.53258  0.00913  1.0000
  H   H772      1.0  0.51467  0.90899  0.87282  1.0000
  H   H773      1.0  0.51477  0.82643  0.84744  1.0000
  Fe  Fe129     1.0  0.52635  0.45284  0.13660  1.0000
  H   H774      1.0  0.56347  0.47244  0.16448  1.0000
  C   C772      1.0  0.74878  0.10232  0.02447  1.0000
  Fe  Fe130     1.0  0.52611  0.39287  0.12152  1.0000
  S   S261      1.0  0.54477  0.40261  0.09280  1.0000
  H   H775      1.0  0.65726  0.09832  0.18762  1.0000
  Fe  Fe131     1.0  0.56119  0.42774  0.11575  1.0000
  S   S262      1.0  0.59287  0.42989  0.11406  1.0000
  Fe  Fe132     1.0  0.52661  0.44105  0.08809  1.0000
  S   S263      1.0  0.54406  0.41503  0.14487  1.0000
  Fe  Fe133     1.0  0.53640  0.20578  0.18870  1.0000
  S   S264      1.0  0.54691  0.18697  0.21980  1.0000
  Fe  Fe134     1.0  0.52514  0.14836  0.17326  1.0000
  S   S265      1.0  0.53480  0.12603  0.20333  1.0000
  H   H776      1.0  0.68463  0.01285  0.12802  1.0000
  S   S266      1.0  0.51949  0.48134  0.16460  1.0000
  Fe  Fe135     1.0  0.55978  0.15328  0.19934  1.0000
  S   S267      1.0  0.59003  0.13926  0.20322  1.0000
  S   S268      1.0  0.55102  0.17346  0.16832  1.0000
  C   C773      1.0  0.73876  0.09711  0.04392  1.0000
  H   H777      1.0  0.73724  0.07598  0.04960  1.0000
  C   C774      1.0  0.51524  0.24239  0.24041  1.0000
  Fe  Fe136     1.0  0.67083  0.16411  0.12097  1.0000
  S   S269      1.0  0.68127  0.17938  0.15233  1.0000
  S   S270      1.0  0.64109  0.14938  0.11830  1.0000
  Fe  Fe137     1.0  0.70838  0.17441  0.09723  1.0000
  S   S271      1.0  0.72133  0.19100  0.12744  1.0000
  S   S272      1.0  0.72521  0.17511  0.06533  1.0000
  Fe  Fe138     1.0  0.70734  0.15457  0.14368  1.0000
  S   S273      1.0  0.71930  0.12583  0.16931  1.0000
  Fe  Fe139     1.0  0.69378  0.21450  0.13311  1.0000
  S   S274      1.0  0.68376  0.25830  0.14286  1.0000
  S   S275      1.0  0.69608  0.13689  0.11335  1.0000
  S   S276      1.0  0.68179  0.20024  0.10175  1.0000
  Fe  Fe140     1.0  0.70430  0.45213  0.22484  1.0000
  S   S277      1.0  0.72426  0.44399  0.19674  1.0000
  S   S278      1.0  0.71099  0.45905  0.26033  1.0000
  Fe  Fe141     1.0  0.66995  0.43957  0.19785  1.0000
  S   S279      1.0  0.68718  0.43032  0.16794  1.0000
  S   S280      1.0  0.63840  0.43598  0.20045  1.0000
  Fe  Fe142     1.0  0.70674  0.40672  0.18992  1.0000
  S   S281      1.0  0.72125  0.36473  0.18327  1.0000
  S   S282      1.0  0.54372  0.25153  0.18660  1.0000
  C   C775      1.0  0.72359  0.39069  0.26745  1.0000
  S   S283      1.0  0.68832  0.41320  0.21937  1.0000
  H   H778      1.0  0.73364  0.34422  0.43522  1.0000
  N   N64       1.0  0.73856  0.39912  0.25229  1.0000
  C   C776      1.0  0.61609  0.36817  0.14277  1.0000
  H   H779      1.0  0.74874  0.43038  0.27287  1.0000
  H   H780      1.0  0.74108  0.09580  0.30836  1.0000
  H   H781      1.0  0.53696  0.30046  0.49033  1.0000
  H   H782      1.0  0.73023  0.42238  0.48626  1.0000
  H   H783      1.0  0.55370  0.30838  0.18205  1.0000
  H   H784      1.0  0.52333  0.21769  0.50681  1.0000
  H   H785      1.0  0.66019  0.00348  0.13104  1.0000
  C   C777      1.0  0.74265  0.15166  0.02964  1.0000
  C   C778      1.0  0.73073  0.40539  0.47488  1.0000
  H   H786      1.0  0.51567  0.22074  0.24683  1.0000
  H   H787      1.0  0.57685  0.09434  0.13478  1.0000
  C   C779      1.0  0.71849  0.08999  0.16434  1.0000
  C   C780      1.0  0.71776  0.07113  0.18180  1.0000
  C   C781      1.0  0.71778  0.04242  0.17811  1.0000
  C   C782      1.0  0.71905  0.03246  0.15695  1.0000
  C   C783      1.0  0.71980  0.05132  0.13953  1.0000
  C   C784      1.0  0.71925  0.07996  0.14321  1.0000
  H   H788      1.0  0.71721  0.07877  0.19819  1.0000
  H   H789      1.0  0.71733  0.02798  0.19161  1.0000
  H   H790      1.0  0.72083  0.04371  0.12314  1.0000
  H   H791      1.0  0.71998  0.09421  0.12966  1.0000
  C   C785      1.0  0.69476  0.28747  0.15404  1.0000
  C   C786      1.0  0.71379  0.28723  0.15933  1.0000
  C   C787      1.0  0.72172  0.31100  0.16823  1.0000
  C   C788      1.0  0.71075  0.33525  0.17192  1.0000
  C   C789      1.0  0.69175  0.33543  0.16668  1.0000
  C   C790      1.0  0.68381  0.31173  0.15781  1.0000
  H   H792      1.0  0.72240  0.26878  0.15655  1.0000
  H   H793      1.0  0.73645  0.31058  0.17223  1.0000
  H   H794      1.0  0.68326  0.35387  0.16954  1.0000
  H   H795      1.0  0.66908  0.31216  0.15382  1.0000
  H   H796      1.0  0.74483  0.00472  0.32184  1.0000
  H   H797      1.0  0.73102  0.36989  0.22854  1.0000
  C   C791      1.0  0.73086  0.11905  0.05628  1.0000
  C   C792      1.0  0.73294  0.14651  0.04930  1.0000
  C   C793      1.0  0.74048  0.38617  0.23279  1.0000
  H   H798      1.0  0.59943  0.42834  0.19297  1.0000
  H   H799      1.0  0.72345  0.11475  0.07135  1.0000
  H   H800      1.0  0.74650  0.13077  0.12846  1.0000
  C   C794      1.0  0.53584  0.27798  0.16842  1.0000
  S   S284      1.0  0.51704  0.12420  0.14402  1.0000
  C   C795      1.0  0.52327  0.07055  0.13118  1.0000
  H   H801      1.0  0.59740  0.35940  0.16983  1.0000
  H   H802      1.0  0.72390  0.32689  0.49348  1.0000
  H   H803      1.0  0.54277  0.02608  0.19375  1.0000
  Fe  Fe143     1.0  0.52074  0.16183  0.22095  1.0000
  H   H804      1.0  0.60504  0.36691  0.13100  1.0000
  H   H805      1.0  0.73548  0.03906  0.22633  1.0000
  C   C796      1.0  0.60427  0.14068  0.17959  1.0000
  C   C797      1.0  0.59642  0.13971  0.15906  1.0000
  C   C798      1.0  0.60792  0.14174  0.14040  1.0000
  C   C799      1.0  0.62734  0.14511  0.14212  1.0000
  C   C800      1.0  0.63524  0.14560  0.16266  1.0000
  C   C801      1.0  0.62375  0.14323  0.18134  1.0000
  H   H806      1.0  0.58150  0.13714  0.15751  1.0000
  H   H807      1.0  0.60173  0.14118  0.12455  1.0000
  H   H808      1.0  0.65018  0.14772  0.16423  1.0000
  H   H809      1.0  0.62993  0.14384  0.19718  1.0000
  C   C802      1.0  0.62563  0.36664  0.18004  1.0000
  C   C803      1.0  0.60479  0.43502  0.13829  1.0000
  C   C804      1.0  0.59591  0.43093  0.15840  1.0000
  C   C805      1.0  0.60622  0.43244  0.17747  1.0000
  C   C806      1.0  0.62546  0.43795  0.17651  1.0000
  C   C807      1.0  0.63416  0.44322  0.15644  1.0000
  C   C808      1.0  0.62384  0.44173  0.13736  1.0000
  H   H810      1.0  0.58131  0.42549  0.15930  1.0000
  H   H811      1.0  0.51879  0.36695  0.03972  1.0000
  C   C809      1.0  0.54313  0.30465  0.17016  1.0000
  H   H812      1.0  0.73739  0.43122  0.44709  1.0000
  C   C810      1.0  0.73471  0.41035  0.45298  1.0000
  H   H813      1.0  0.75636  0.16816  0.10315  1.0000
  H   H814      1.0  0.52433  0.33212  0.46157  1.0000
  C   C811      1.0  0.72791  0.48087  0.27144  1.0000
  C   C812      1.0  0.74803  0.07520  0.30588  1.0000
  C   C813      1.0  0.75056  0.12974  0.01730  1.0000
  H   H815      1.0  0.73693  0.31422  0.47060  1.0000
  H   H816      1.0  0.55940  0.00287  0.16469  1.0000
  C   C814      1.0  0.52350  0.31119  0.49266  1.0000
  H   H817      1.0  0.75944  0.18468  0.38063  1.0000
  H   H818      1.0  0.58657  0.23246  0.19114  1.0000
  C   C815      1.0  0.73061  0.98622  0.29515  1.0000
  H   H819      1.0  0.67177  0.10360  0.15094  1.0000
  H   H820      1.0  0.71188  0.32087  0.46861  1.0000
  H   H821      1.0  0.63075  0.44517  0.12184  1.0000
  H   H822      1.0  0.74264  0.06027  0.31820  1.0000
  H   H823      1.0  0.59981  0.20567  0.20575  1.0000
  H   H824      1.0  0.52837  0.07940  0.11605  1.0000
  H   H825      1.0  0.72417  0.37473  0.49911  1.0000
  H   H826      1.0  0.58279  0.05192  0.11293  1.0000
  H   H827      1.0  0.74429  0.17282  0.02405  1.0000
  H   H828      1.0  0.73829  0.39185  0.42153  1.0000
  H   H829      1.0  0.52942  0.24634  0.23326  1.0000
  H   H830      1.0  0.71702  0.05201  0.29201  1.0000
  H   H831      1.0  0.64892  0.44789  0.15557  1.0000
  H   H832      1.0  0.56354  0.04202  0.20401  1.0000
  N   N65       1.0  0.66892  0.03368  0.15308  1.0000
  C   C816      1.0  0.67263  0.05954  0.14499  1.0000
  C   C817      1.0  0.66060  0.03058  0.17310  1.0000
  C   C818      1.0  0.66856  0.08314  0.15731  1.0000
  C   C819      1.0  0.65635  0.05373  0.18587  1.0000
  C   C820      1.0  0.66043  0.08015  0.17791  1.0000
  C   C821      1.0  0.67294  0.00918  0.13984  1.0000
  H   H833      1.0  0.67900  0.06208  0.12901  1.0000
  H   H834      1.0  0.65726  0.01008  0.17932  1.0000
  C   C822      1.0  0.73536  0.38825  0.43863  1.0000
  H   H835      1.0  0.71098  0.03479  0.25530  1.0000
  H   H836      1.0  0.57414  0.00601  0.12812  1.0000
  C   C823      1.0  0.52295  0.32228  0.14149  1.0000
  C   C824      1.0  0.73792  0.04698  0.24238  1.0000
  H   H837      1.0  0.61925  0.20885  0.12006  1.0000
  H   H838      1.0  0.58474  0.19635  0.18472  1.0000
  C   C825      1.0  0.72411  0.04478  0.25860  1.0000
  C   C826      1.0  0.52288  0.04161  0.13390  1.0000
  C   C827      1.0  0.72507  0.32833  0.47553  1.0000
  S   S285      1.0  0.68421  0.47906  0.20561  1.0000
  Fe  Fe144     1.0  0.70295  0.46825  0.17713  1.0000
  H   H839      1.0  0.64994  0.05115  0.20182  1.0000
  C   C828      1.0  0.51585  0.03011  0.15323  1.0000
  C   C829      1.0  0.75439  0.39409  0.21780  1.0000
  H   H840      1.0  0.75558  0.38406  0.20217  1.0000
  H   H841      1.0  0.54251  0.34708  0.15830  1.0000
  C   C830      1.0  0.76246  0.00319  0.29315  1.0000
  C   C831      1.0  0.73256  0.36134  0.44647  1.0000
  C   C832      1.0  0.72742  0.37831  0.48208  1.0000
  S   S286      1.0  0.71995  0.99672  0.15159  1.0000
  N   N66       1.0  0.56008  0.04642  0.17014  1.0000
  C   C833      1.0  0.56339  0.02297  0.15828  1.0000
  C   C834      1.0  0.56505  0.07178  0.16203  1.0000
  C   C835      1.0  0.57160  0.02461  0.13755  1.0000
  C   C836      1.0  0.57317  0.07417  0.14129  1.0000
  C   C837      1.0  0.57647  0.05040  0.12902  1.0000
  C   C838      1.0  0.55208  0.04421  0.19213  1.0000
  H   H842      1.0  0.51636  0.25309  0.15154  1.0000
  H   H843      1.0  0.56262  0.09037  0.17151  1.0000
  C   C839      1.0  0.75034  0.41989  0.25750  1.0000
  C   C840      1.0  0.72768  0.05434  0.27938  1.0000
  C   C841      1.0  0.53682  0.32666  0.15671  1.0000
  H   H844      1.0  0.51565  0.41383  0.01506  1.0000
  S   S287      1.0  0.76346  0.04938  0.36353  1.0000
  H   H845      1.0  0.52156  0.99514  0.05876  1.0000
  H   H846      1.0  0.62230  0.36456  0.19719  1.0000
  C   C842      1.0  0.61168  0.36390  0.16472  1.0000
  S   S288      1.0  0.52113  0.45109  0.05249  1.0000
  H   H847      1.0  0.72565  0.36860  0.27225  1.0000
  H   H848      1.0  0.72311  0.40352  0.28229  1.0000
  H   H849      1.0  0.52759  0.02831  0.12086  1.0000
  C   C843      1.0  0.76002  0.14678  0.09938  1.0000
  S   S289      1.0  0.54470  0.46689  0.10886  1.0000
  C   C844      1.0  0.76367  0.99483  0.27143  1.0000
  C   C845      1.0  0.74594  0.99850  0.30509  1.0000
  C   C846      1.0  0.75508  0.05862  0.24709  1.0000
  H   H850      1.0  0.65044  0.22420  0.13179  1.0000
  N   N67       1.0  0.63389  0.37508  0.13632  1.0000
  C   C847      1.0  0.64778  0.37704  0.15119  1.0000
  N   N68       1.0  0.72860  0.35666  0.46795  1.0000
  C   C848      1.0  0.64382  0.37310  0.17327  1.0000
  C   C849      1.0  0.63818  0.37967  0.11327  1.0000
  H   H851      1.0  0.66190  0.38247  0.14610  1.0000
  H   H852      1.0  0.65460  0.37604  0.18515  1.0000
  H   H853      1.0  0.65000  0.39409  0.11094  1.0000
  H   H854      1.0  0.64197  0.35963  0.10548  1.0000
  H   H855      1.0  0.62589  0.38942  0.10496  1.0000
  N   N69       1.0  0.61001  0.21512  0.17380  1.0000
  C   C850      1.0  0.62720  0.22344  0.18038  1.0000
  C   C851      1.0  0.60695  0.21050  0.15236  1.0000
  C   C852      1.0  0.64196  0.22689  0.16538  1.0000
  C   C853      1.0  0.62145  0.21357  0.13695  1.0000
  C   C854      1.0  0.63903  0.22186  0.14355  1.0000
  C   C855      1.0  0.59455  0.21245  0.18965  1.0000
  H   H856      1.0  0.62962  0.22732  0.19733  1.0000
  H   H857      1.0  0.59334  0.20385  0.14712  1.0000
  H   H858      1.0  0.65565  0.23329  0.17060  1.0000
  C   C856      1.0  0.51714  0.08807  0.14797  1.0000
  H   H859      1.0  0.70970  0.39370  0.25972  1.0000
  C   C857      1.0  0.72926  0.48219  0.29410  1.0000
  H   H860      1.0  0.54326  0.06285  0.19615  1.0000
  H   H861      1.0  0.67766  0.99136  0.15014  1.0000
  C   C858      1.0  0.75824  0.06776  0.26809  1.0000
  C   C859      1.0  0.52210  0.27349  0.15307  1.0000
  N   N70       1.0  0.74465  0.06538  0.28395  1.0000
  C   C860      1.0  0.75432  0.12573  0.11367  1.0000
  H   H862      1.0  0.71963  0.47065  0.30430  1.0000
  H   H863      1.0  0.75441  0.08162  0.11965  1.0000
  C   C861      1.0  0.75871  0.09816  0.10871  1.0000
  H   H864      1.0  0.76332  0.07696  0.30890  1.0000
  C   C862      1.0  0.51562  0.29560  0.13978  1.0000
  C   C863      1.0  0.76419  0.42867  0.24275  1.0000
  C   C864      1.0  0.51642  0.32887  0.47654  1.0000
  H   H865      1.0  0.75884  0.01395  0.01753  1.0000
  H   H866      1.0  0.52870  0.27170  0.62238  1.0000
  Fe  Fe145     1.0  0.56575  0.42777  0.69235  1.0000
  S   S290      1.0  0.55338  0.43348  0.65949  1.0000
  S   S291      1.0  0.59709  0.43030  0.69722  1.0000
  Fe  Fe146     1.0  0.53282  0.46282  0.67562  1.0000
  Fe  Fe147     1.0  0.53431  0.39948  0.67034  1.0000
  C   C865      1.0  0.52286  0.05432  0.64326  1.0000
  S   S292      1.0  0.54637  0.45962  0.70805  1.0000
  S   S293      1.0  0.54805  0.39142  0.70236  1.0000
  Fe  Fe148     1.0  0.57317  0.17946  0.61378  1.0000
  S   S294      1.0  0.55580  0.17031  0.64351  1.0000
  S   S295      1.0  0.60467  0.17258  0.61193  1.0000
  Fe  Fe149     1.0  0.53890  0.19585  0.58642  1.0000
  Fe  Fe150     1.0  0.54006  0.20968  0.63433  1.0000
  S   S296      1.0  0.52213  0.10803  0.62741  1.0000
  Fe  Fe151     1.0  0.53635  0.14932  0.62124  1.0000
  C   C866      1.0  0.52123  0.40794  0.81994  1.0000
  S   S297      1.0  0.55893  0.22030  0.60602  1.0000
  S   S298      1.0  0.55490  0.15551  0.59189  1.0000
  H   H867      1.0  0.68683  0.34290  0.65587  1.0000
  C   C867      1.0  0.67538  0.32867  0.65422  1.0000
  H   H868      1.0  0.62783  0.47504  0.60691  1.0000
  Fe  Fe152     1.0  0.72047  0.18911  0.72061  1.0000
  S   S299      1.0  0.73822  0.17627  0.69163  1.0000
  S   S300      1.0  0.73437  0.19189  0.75364  1.0000
  Fe  Fe153     1.0  0.68418  0.18436  0.69480  1.0000
  S   S301      1.0  0.69954  0.17073  0.66465  1.0000
  S   S302      1.0  0.65255  0.19105  0.69580  1.0000
  Fe  Fe154     1.0  0.71685  0.14338  0.68646  1.0000
  S   S303      1.0  0.72793  0.09948  0.67950  1.0000
  Fe  Fe155     1.0  0.71911  0.20473  0.67258  1.0000
  S   S304      1.0  0.72665  0.23218  0.64395  1.0000
  S   S305      1.0  0.70008  0.15452  0.71645  1.0000
  S   S306      1.0  0.70280  0.22006  0.70169  1.0000
  Fe  Fe156     1.0  0.68355  0.41973  0.61823  1.0000
  S   S307      1.0  0.69805  0.42677  0.64952  1.0000
  S   S308      1.0  0.65204  0.41558  0.61603  1.0000
  Fe  Fe157     1.0  0.72025  0.41681  0.59160  1.0000
  S   S309      1.0  0.73720  0.42370  0.62128  1.0000
  S   S310      1.0  0.73620  0.41551  0.55913  1.0000
  Fe  Fe158     1.0  0.71806  0.39338  0.63750  1.0000
  S   S311      1.0  0.72868  0.36131  0.66147  1.0000
  Fe  Fe159     1.0  0.71562  0.45677  0.63034  1.0000
  C   C868      1.0  0.74477  0.34590  0.92986  1.0000
  S   S312      1.0  0.70247  0.38413  0.60744  1.0000
  S   S313      1.0  0.69979  0.45200  0.59952  1.0000
  C   C869      1.0  0.75729  0.34094  0.51888  1.0000
  C   C870      1.0  0.61791  0.11050  0.64070  1.0000
  H   H869      1.0  0.75880  0.40852  0.94189  1.0000
  C   C871      1.0  0.66655  0.25320  0.66339  1.0000
  H   H870      1.0  0.73970  0.24180  0.87429  1.0000
  C   C872      1.0  0.75012  0.31788  0.93169  1.0000
  S   S314      1.0  0.53363  0.23922  0.66176  1.0000
  C   C873      1.0  0.74370  0.38641  0.54373  1.0000
  C   C874      1.0  0.73750  0.35969  0.54843  1.0000
  C   C875      1.0  0.74422  0.33711  0.53598  1.0000
  H   H871      1.0  0.62975  0.32714  0.63926  1.0000
  H   H872      1.0  0.72759  0.35646  0.56167  1.0000
  C   C876      1.0  0.52909  0.31445  0.63229  1.0000
  C   C877      1.0  0.72777  0.32556  0.65618  1.0000
  C   C878      1.0  0.73077  0.30655  0.67320  1.0000
  C   C879      1.0  0.73017  0.27789  0.66965  1.0000
  C   C880      1.0  0.72695  0.26804  0.64891  1.0000
  C   C881      1.0  0.72402  0.28703  0.63182  1.0000
  C   C882      1.0  0.72420  0.31575  0.63549  1.0000
  H   H873      1.0  0.73358  0.31397  0.68925  1.0000
  H   H874      1.0  0.73258  0.26343  0.68290  1.0000
  H   H875      1.0  0.72140  0.27950  0.61577  1.0000
  H   H876      1.0  0.72173  0.33021  0.62229  1.0000
  C   C883      1.0  0.71736  0.07224  0.66539  1.0000
  C   C884      1.0  0.72718  0.04668  0.66341  1.0000
  C   C885      1.0  0.71958  0.02457  0.65202  1.0000
  C   C886      1.0  0.70202  0.02780  0.64243  1.0000
  C   C887      1.0  0.69225  0.05345  0.64427  1.0000
  C   C888      1.0  0.69985  0.07558  0.65566  1.0000
  H   H877      1.0  0.74074  0.04387  0.67086  1.0000
  H   H878      1.0  0.72726  0.00500  0.65077  1.0000
  H   H879      1.0  0.67868  0.05618  0.63684  1.0000
  H   H880      1.0  0.69220  0.09516  0.65692  1.0000
  H   H881      1.0  0.68129  0.24611  0.65987  1.0000
  H   H882      1.0  0.73414  0.35207  0.91828  1.0000
  S   S315      1.0  0.75947  0.07396  0.01037  1.0000
  C   C889      1.0  0.64338  0.31978  0.64487  1.0000
  S   S316      1.0  0.52631  0.36830  0.64539  1.0000
  H   H883      1.0  0.65601  0.12838  0.68500  1.0000
  H   H884      1.0  0.69134  0.29335  0.66581  1.0000
  C   C890      1.0  0.59937  0.11687  0.64690  1.0000
  C   C891      1.0  0.72184  0.13773  0.61221  1.0000
  H   H885      1.0  0.65588  0.35997  0.64226  1.0000
  C   C892      1.0  0.76076  0.23785  0.79823  1.0000
  C   C893      1.0  0.51873  0.34452  0.85546  1.0000
  H   H886      1.0  0.75594  0.31129  0.60271  1.0000
  C   C894      1.0  0.74330  0.22071  0.76745  1.0000
  C   C895      1.0  0.73819  0.24804  0.76202  1.0000
  H   H887      1.0  0.73470  0.19100  0.87563  1.0000
  S   S317      1.0  0.76365  0.38117  0.88802  1.0000
  H   H888      1.0  0.51908  0.32215  0.85368  1.0000
  C   C896      1.0  0.53152  0.33274  0.64943  1.0000
  C   C897      1.0  0.73390  0.23151  0.86049  1.0000
  C   C898      1.0  0.61783  0.18015  0.63488  1.0000
  C   C899      1.0  0.63735  0.17551  0.63409  1.0000
  C   C900      1.0  0.64813  0.17928  0.65255  1.0000
  C   C901      1.0  0.63952  0.18777  0.67197  1.0000
  C   C902      1.0  0.62003  0.19300  0.67265  1.0000
  C   C903      1.0  0.60920  0.18925  0.65415  1.0000
  H   H889      1.0  0.64409  0.16852  0.61921  1.0000
  H   H890      1.0  0.66303  0.17522  0.65169  1.0000
  H   H891      1.0  0.61323  0.19971  0.68758  1.0000
  H   H892      1.0  0.59417  0.19307  0.65489  1.0000
  C   C904      1.0  0.61247  0.42282  0.67519  1.0000
  C   C905      1.0  0.60569  0.41522  0.65508  1.0000
  C   C906      1.0  0.61808  0.41213  0.63724  1.0000
  C   C907      1.0  0.63736  0.41638  0.63938  1.0000
  C   C908      1.0  0.64428  0.42270  0.65972  1.0000
  C   C909      1.0  0.63185  0.42608  0.67752  1.0000
  H   H893      1.0  0.59087  0.41208  0.65315  1.0000
  H   H894      1.0  0.61263  0.40695  0.62161  1.0000
  H   H895      1.0  0.65909  0.42586  0.66164  1.0000
  H   H896      1.0  0.63721  0.43174  0.69308  1.0000
  C   C910      1.0  0.55075  0.08032  0.64949  1.0000
  C   C911      1.0  0.55882  0.05696  0.66004  1.0000
  H   H897      1.0  0.55835  0.09932  0.64803  1.0000
  H   H898      1.0  0.57275  0.05814  0.66657  1.0000
  H   H899      1.0  0.76264  0.12744  0.67094  1.0000
  S   S318      1.0  0.69155  0.00062  0.62811  1.0000
  H   H900      1.0  0.72275  0.18214  0.61579  1.0000
  C   C912      1.0  0.54896  0.03215  0.66233  1.0000
  N   N71       1.0  0.66362  0.28248  0.65738  1.0000
  H   H901      1.0  0.72935  0.25217  0.74824  1.0000
  C   C913      1.0  0.63208  0.11158  0.65602  1.0000
  H   H902      1.0  0.70874  0.20505  0.79270  1.0000
  H   H903      1.0  0.72411  0.09301  0.61284  1.0000
  H   H904      1.0  0.74970  0.17982  0.64024  1.0000
  H   H905      1.0  0.70968  0.13852  0.60189  1.0000
  H   H906      1.0  0.73939  0.31650  0.53977  1.0000
  H   H907      1.0  0.66342  0.25004  0.68095  1.0000
  H   H908      1.0  0.54050  0.28510  0.68928  1.0000
  Fe  Fe160     1.0  0.52741  0.42364  0.71529  1.0000
  N   N72       1.0  0.73182  0.47220  0.69885  1.0000
  H   H909      1.0  0.52303  0.35226  0.82155  1.0000
  C   C914      1.0  0.67789  0.30059  0.65971  1.0000
  H   H910      1.0  0.74957  0.43696  0.89346  1.0000
  H   H911      1.0  0.63492  0.27757  0.64911  1.0000
  H   H912      1.0  0.65729  0.23963  0.65414  1.0000
  N   N73       1.0  0.71963  0.20490  0.82490  1.0000
  C   C915      1.0  0.72196  0.23296  0.82418  1.0000
  C   C916      1.0  0.72418  0.18989  0.84308  1.0000
  C   C917      1.0  0.72931  0.24663  0.84184  1.0000
  C   C918      1.0  0.73118  0.20298  0.86121  1.0000
  H   H913      1.0  0.53624  0.01469  0.99562  1.0000
  C   C919      1.0  0.71261  0.19046  0.80607  1.0000
  H   H914      1.0  0.72253  0.16760  0.84358  1.0000
  C   C920      1.0  0.74547  0.11160  0.63182  1.0000
  H   H915      1.0  0.75313  0.35938  0.61607  1.0000
  H   H916      1.0  0.73178  0.26874  0.84081  1.0000
  C   C921      1.0  0.74097  0.01402  0.98982  1.0000
  C   C922      1.0  0.53481  0.27500  0.65621  1.0000
  C   C923      1.0  0.71648  0.43242  0.71403  1.0000
  H   H917      1.0  0.64650  0.10705  0.65099  1.0000
  C   C924      1.0  0.53758  0.29328  0.67327  1.0000
  H   H918      1.0  0.52354  0.36661  0.75061  1.0000
  H   H919      1.0  0.54089  0.14696  0.54418  1.0000
  C   C925      1.0  0.64299  0.12011  0.69263  1.0000
  C   C926      1.0  0.51854  0.00575  0.96887  1.0000
  H   H920      1.0  0.71115  0.47432  0.72426  1.0000
  N   N74       1.0  0.62789  0.11919  0.67686  1.0000
  H   H921      1.0  0.58840  0.11712  0.63494  1.0000
  C   C927      1.0  0.53274  0.07912  0.64100  1.0000
  H   H922      1.0  0.76134  0.41090  0.52260  1.0000
  C   C928      1.0  0.74414  0.27009  0.77477  1.0000
  C   C929      1.0  0.53033  0.13051  0.54278  1.0000
  H   H923      1.0  0.73987  0.29113  0.77060  1.0000
  S   S319      1.0  0.76177  0.05600  0.94790  1.0000
  H   H924      1.0  0.51812  0.02700  0.96287  1.0000
  H   H925      1.0  0.72626  0.00967  0.96013  1.0000
  S   S320      1.0  0.76353  0.24691  0.91471  1.0000
  N   N75       1.0  0.75316  0.36536  0.94209  1.0000
  C   C930      1.0  0.73691  0.00064  0.97057  1.0000
  C   C931      1.0  0.53091  0.03094  0.65388  1.0000
  S   S321      1.0  0.53260  0.20573  0.55089  1.0000
  C   C932      1.0  0.51565  0.35631  0.87576  1.0000
  H   H926      1.0  0.69999  0.17850  0.81061  1.0000
  C   C933      1.0  0.75648  0.39028  0.52636  1.0000
  C   C934      1.0  0.65802  0.33825  0.64665  1.0000
  C   C935      1.0  0.64641  0.29179  0.65043  1.0000
  C   C936      1.0  0.53622  0.32211  0.66983  1.0000
  H   H927      1.0  0.75780  0.20126  0.94398  1.0000
  H   H928      1.0  0.64602  0.09906  0.69932  1.0000
  C   C937      1.0  0.52082  0.36174  0.83725  1.0000
  H   H929      1.0  0.63918  0.13434  0.70616  1.0000
  H   H930      1.0  0.75128  0.09167  0.63708  1.0000
  C   C938      1.0  0.60968  0.12495  0.68319  1.0000
  S   S322      1.0  0.56000  0.00341  0.67569  1.0000
  H   H931      1.0  0.53645  0.11089  0.54952  1.0000
  H   H932      1.0  0.58078  0.12921  0.67319  1.0000
  H   H933      1.0  0.72371  0.17609  0.79946  1.0000
  H   H934      1.0  0.62131  0.10577  0.62393  1.0000
  H   H935      1.0  0.60634  0.13099  0.69970  1.0000
  H   H936      1.0  0.75165  0.46434  0.67308  1.0000
  C   C939      1.0  0.76323  0.16393  0.92583  1.0000
  C   C940      1.0  0.73000  0.11224  0.61820  1.0000
  C   C941      1.0  0.53098  0.28566  0.63558  1.0000
  C   C942      1.0  0.59516  0.12393  0.66831  1.0000
  H   H937      1.0  0.73972  0.39931  0.92543  1.0000
  C   C943      1.0  0.75473  0.21579  0.78553  1.0000
  C   C944      1.0  0.61813  0.47869  0.62043  1.0000
  H   H938      1.0  0.71876  0.24487  0.80963  1.0000
  C   C945      1.0  0.76308  0.32766  0.59389  1.0000
  H   H939      1.0  0.52763  0.12726  0.52537  1.0000
  C   C946      1.0  0.73952  0.42682  0.68517  1.0000
  C   C947      1.0  0.75520  0.00324  0.00291  1.0000
  H   H940      1.0  0.64920  0.48307  0.65997  1.0000
  C   C948      1.0  0.71920  0.46104  0.71327  1.0000
  H   H941      1.0  0.74364  0.30248  0.92180  1.0000
  H   H942      1.0  0.73358  0.03314  0.99425  1.0000
  C   C949      1.0  0.74672  0.39444  0.94102  1.0000
  H   H943      1.0  0.52543  0.32257  0.61648  1.0000
  C   C950      1.0  0.58628  0.48043  0.63465  1.0000
  N   N76       1.0  0.51966  0.38996  0.83917  1.0000
  H   H944      1.0  0.75816  0.13408  0.00235  1.0000
  H   H945      1.0  0.53801  0.33600  0.68317  1.0000
  H   H946      1.0  0.75981  0.15029  0.93929  1.0000
  C   C951      1.0  0.74449  0.16072  0.63380  1.0000
  H   H947      1.0  0.72481  0.39301  0.70030  1.0000
  H   H948      1.0  0.70646  0.42358  0.72546  1.0000
  N   N77       1.0  0.75250  0.13563  0.63945  1.0000
  C   C952      1.0  0.72677  0.41525  0.69992  1.0000
  S   S323      1.0  0.51880  0.18807  0.61436  1.0000
  C   C953      1.0  0.72917  0.16216  0.61996  1.0000
  S   S324      1.0  0.76090  0.29362  0.80951  1.0000
  C   C954      1.0  0.75526  0.26515  0.79308  1.0000
  H   H949      1.0  0.53226  0.42346  0.82213  1.0000
  C   C955      1.0  0.74190  0.45550  0.68484  1.0000
  H   H950      1.0  0.65335  0.47432  0.63228  1.0000
  S   S325      1.0  0.75631  0.30596  0.87086  1.0000
  C   C956      1.0  0.52879  0.99882  0.98725  1.0000
  C   C957      1.0  0.51661  0.40170  0.85902  1.0000
  H   H951      1.0  0.52316  0.01202  0.65551  1.0000
  H   H952      1.0  0.74737  0.41360  0.67393  1.0000
  H   H953      1.0  0.52500  0.39599  0.80512  1.0000
  C   C958      1.0  0.76150  0.35479  0.60159  1.0000
  C   C959      1.0  0.76205  0.19283  0.92844  1.0000
  H   H954      1.0  0.59362  0.47122  0.60146  1.0000
  H   H955      1.0  0.73666  0.39899  0.95454  1.0000
  H   H956      1.0  0.76290  0.47898  0.90951  1.0000
  C   C960      1.0  0.76333  0.36767  0.51404  1.0000
  H   H957      1.0  0.75883  0.19473  0.78985  1.0000
  H   H958      1.0  0.76146  0.28219  0.57108  1.0000
  H   H959      1.0  0.57126  0.47865  0.63244  1.0000
  C   C961      1.0  0.59881  0.47641  0.61725  1.0000
  C   C962      1.0  0.76409  0.30982  0.94614  1.0000
  C   C963      1.0  0.76381  0.43615  0.89929  1.0000
  H   H960      1.0  0.51535  0.42405  0.86056  1.0000
  H   H961      1.0  0.51831  0.29315  0.52429  1.0000
  H   H962      1.0  0.51889  0.11402  0.58230  1.0000
  H   H963      1.0  0.51496  0.46743  0.00842  1.0000
  H   H964      1.0  0.51577  0.48386  0.74298  1.0000
  C   C964      1.0  0.51761  0.52651  0.13720  1.0000
  C   C965      1.0  0.74986  0.62663  0.11090  1.0000
  C   C966      1.0  0.63007  0.88603  0.14323  1.0000
  Fe  Fe161     1.0  0.53988  0.90220  0.12890  1.0000
  S   S326      1.0  0.55358  0.91077  0.09641  1.0000
  H   H965      1.0  0.65405  0.95118  0.14986  1.0000
  Fe  Fe162     1.0  0.56504  0.94855  0.11184  1.0000
  C   C967      1.0  0.67399  0.61102  0.18412  1.0000
  S   S327      1.0  0.51651  0.60975  0.14310  1.0000
  S   S328      1.0  0.55264  0.93892  0.14438  1.0000
  H   H966      1.0  0.66388  0.62540  0.14425  1.0000
  S   S329      1.0  0.53486  0.70288  0.20477  1.0000
  Fe  Fe163     1.0  0.52781  0.96414  0.13343  1.0000
  S   S330      1.0  0.53624  0.63455  0.19981  1.0000
  H   H967      1.0  0.58490  0.96516  0.15396  1.0000
  H   H968      1.0  0.55949  0.49797  0.18461  1.0000
  Fe  Fe164     1.0  0.55424  0.67047  0.18984  1.0000
  S   S331      1.0  0.58547  0.67193  0.19490  1.0000
  S   S332      1.0  0.54263  0.67580  0.15662  1.0000
  C   C968      1.0  0.74091  0.65310  0.02020  1.0000
  H   H969      1.0  0.73769  0.85623  0.46223  1.0000
  H   H970      1.0  0.65233  0.73559  0.11820  1.0000
  Fe  Fe165     1.0  0.66962  0.66813  0.11403  1.0000
  S   S333      1.0  0.68198  0.68310  0.14457  1.0000
  S   S334      1.0  0.63961  0.65359  0.11316  1.0000
  Fe  Fe166     1.0  0.70653  0.67608  0.08791  1.0000
  S   S335      1.0  0.72109  0.69245  0.11709  1.0000
  S   S336      1.0  0.72201  0.67606  0.05515  1.0000
  Fe  Fe167     1.0  0.70707  0.65683  0.13454  1.0000
  S   S337      1.0  0.72009  0.62758  0.15935  1.0000
  Fe  Fe168     1.0  0.69429  0.71731  0.12421  1.0000
  S   S338      1.0  0.68554  0.76254  0.13123  1.0000
  S   S339      1.0  0.69389  0.63959  0.10512  1.0000
  S   S340      1.0  0.68070  0.70310  0.09370  1.0000
  Fe  Fe169     1.0  0.70695  0.95294  0.22600  1.0000
  S   S341      1.0  0.72768  0.93972  0.19983  1.0000
  S   S342      1.0  0.71136  0.96543  0.26115  1.0000
  Fe  Fe170     1.0  0.67346  0.94678  0.19585  1.0000
  S   S343      1.0  0.69146  0.93305  0.16767  1.0000
  H   H971      1.0  0.65983  0.54334  0.11926  1.0000
  Fe  Fe171     1.0  0.70701  0.90646  0.19188  1.0000
  S   S344      1.0  0.71713  0.86146  0.18722  1.0000
  H   H972      1.0  0.71944  0.86760  0.44384  1.0000
  H   H973      1.0  0.51518  0.80887  0.48409  1.0000
  S   S345      1.0  0.68748  0.91788  0.21966  1.0000
  C   C969      1.0  0.75020  0.84235  0.50949  1.0000
  H   H974      1.0  0.74469  0.91909  0.43073  1.0000
  H   H975      1.0  0.53478  0.84874  0.42554  1.0000
  C   C970      1.0  0.61212  0.88813  0.17602  1.0000
  S   S346      1.0  0.70864  0.49820  0.14941  1.0000
  C   C971      1.0  0.66484  0.60316  0.14676  1.0000
  H   H976      1.0  0.74551  0.96573  0.44644  1.0000
  C   C972      1.0  0.74300  0.49829  0.30372  1.0000
  H   H977      1.0  0.74391  0.87030  0.43626  1.0000
  C   C973      1.0  0.57728  0.52631  0.11740  1.0000
  C   C974      1.0  0.52241  0.77652  0.15181  1.0000
  C   C975      1.0  0.63673  0.74488  0.14752  1.0000
  N   N78       1.0  0.57039  0.51324  0.15431  1.0000
  C   C976      1.0  0.66099  0.58579  0.12955  1.0000
  C   C977      1.0  0.71737  0.59147  0.15655  1.0000
  C   C978      1.0  0.71879  0.57387  0.17479  1.0000
  C   C979      1.0  0.71618  0.54513  0.17297  1.0000
  C   C980      1.0  0.71262  0.53381  0.15275  1.0000
  C   C981      1.0  0.71169  0.55133  0.13451  1.0000
  C   C982      1.0  0.71384  0.58001  0.13642  1.0000
  H   H978      1.0  0.72174  0.58250  0.19040  1.0000
  H   H979      1.0  0.71707  0.53174  0.18711  1.0000
  H   H980      1.0  0.70903  0.54269  0.11882  1.0000
  H   H981      1.0  0.71306  0.59304  0.12219  1.0000
  C   C983      1.0  0.69474  0.78969  0.14687  1.0000
  C   C984      1.0  0.68558  0.81594  0.14648  1.0000
  C   C985      1.0  0.69222  0.83814  0.15863  1.0000
  C   C986      1.0  0.70809  0.83432  0.17146  1.0000
  C   C987      1.0  0.71718  0.80805  0.17190  1.0000
  C   C988      1.0  0.71059  0.78587  0.15969  1.0000
  H   H982      1.0  0.67338  0.81917  0.13652  1.0000
  H   H983      1.0  0.68523  0.85825  0.15792  1.0000
  H   H984      1.0  0.72948  0.80486  0.18173  1.0000
  H   H985      1.0  0.71780  0.76588  0.16021  1.0000
  H   H986      1.0  0.73895  0.57765  0.04179  1.0000
  C   C989      1.0  0.73943  0.59871  0.03564  1.0000
  C   C990      1.0  0.73038  0.62027  0.04740  1.0000
  C   C991      1.0  0.73130  0.64768  0.03988  1.0000
  S   S347      1.0  0.54101  0.97675  0.10172  1.0000
  H   H987      1.0  0.68384  0.60108  0.19579  1.0000
  H   H988      1.0  0.72298  0.61575  0.06244  1.0000
  C   C992      1.0  0.56618  0.56077  0.14290  1.0000
  C   C993      1.0  0.59986  0.96182  0.15289  1.0000
  Fe  Fe172     1.0  0.52319  0.64225  0.16744  1.0000
  H   H989      1.0  0.74167  0.67421  0.01422  1.0000
  H   H990      1.0  0.61769  0.75138  0.17446  1.0000
  C   C994      1.0  0.57184  0.55367  0.12190  1.0000
  C   C995      1.0  0.52289  0.82341  0.13611  1.0000
  H   H991      1.0  0.76392  0.52331  0.25786  1.0000
  C   C996      1.0  0.76161  0.60216  0.29699  1.0000
  H   H992      1.0  0.64866  0.75386  0.15532  1.0000
  C   C997      1.0  0.60048  0.66502  0.17248  1.0000
  C   C998      1.0  0.59376  0.65410  0.15332  1.0000
  C   C999      1.0  0.60596  0.65021  0.13535  1.0000
  C   C1000     1.0  0.62491  0.65729  0.13639  1.0000
  C   C1001     1.0  0.63161  0.66779  0.15568  1.0000
  C   C1002     1.0  0.61948  0.67154  0.17365  1.0000
  H   H993      1.0  0.57921  0.64855  0.15233  1.0000
  H   H994      1.0  0.60064  0.64198  0.12052  1.0000
  H   H995      1.0  0.64603  0.67345  0.15681  1.0000
  H   H996      1.0  0.62478  0.67997  0.18842  1.0000
  Fe  Fe173     1.0  0.51556  0.66728  0.21175  1.0000
  C   C1003     1.0  0.66703  0.54619  0.15284  1.0000
  H   H997      1.0  0.60310  0.96224  0.18746  1.0000
  H   H998      1.0  0.74936  0.97664  0.24467  1.0000
  C   C1004     1.0  0.62980  0.95641  0.17095  1.0000
  C   C1005     1.0  0.63899  0.95440  0.15077  1.0000
  C   C1006     1.0  0.62852  0.95591  0.13166  1.0000
  C   C1007     1.0  0.74005  0.94853  0.45600  1.0000
  C   C1008     1.0  0.52104  0.56471  0.17065  1.0000
  C   C1009     1.0  0.51541  0.79665  0.13718  1.0000
  H   H999      1.0  0.76019  0.71967  0.41028  1.0000
  H   H1000     1.0  0.67489  0.55551  0.18522  1.0000
  C   C1010     1.0  0.61363  0.88772  0.13115  1.0000
  H   H1001     1.0  0.51732  0.83872  0.12484  1.0000
  N   N79       1.0  0.76106  0.62759  0.09075  1.0000
  N   N80       1.0  0.67001  0.59231  0.16637  1.0000
  H   H1002     1.0  0.75681  0.67129  0.08669  1.0000
  C   C1011     1.0  0.60886  0.95907  0.13269  1.0000
  H   H1003     1.0  0.65763  0.89705  0.17000  1.0000
  C   C1012     1.0  0.76021  0.67747  0.39869  1.0000
  C   C1013     1.0  0.75424  0.51185  0.26806  1.0000
  C   C1014     1.0  0.58591  0.73149  0.15933  1.0000
  H   H1004     1.0  0.73335  0.56899  0.29757  1.0000
  H   H1005     1.0  0.55592  0.81521  0.17473  1.0000
  H   H1006     1.0  0.64456  0.89174  0.19445  1.0000
  C   C1015     1.0  0.62361  0.72290  0.11663  1.0000
  Fe  Fe174     1.0  0.52806  0.93817  0.08942  1.0000
  H   H1007     1.0  0.57197  0.56936  0.10916  1.0000
  H   H1008     1.0  0.58336  0.89073  0.13272  1.0000
  H   H1009     1.0  0.65174  0.86220  0.17824  1.0000
  H   H1010     1.0  0.58742  0.72947  0.17718  1.0000
  H   H1011     1.0  0.75221  0.94563  0.32994  1.0000
  C   C1016     1.0  0.56573  0.54020  0.15906  1.0000
  H   H1012     1.0  0.61139  0.88875  0.19356  1.0000
  C   C1017     1.0  0.74826  0.61916  0.32990  1.0000
  C   C1018     1.0  0.59540  0.88951  0.16443  1.0000
  S   S348      1.0  0.54711  0.86385  0.14956  1.0000
  C   C1019     1.0  0.64658  0.88412  0.17762  1.0000
  S   S349      1.0  0.75971  0.62397  0.38364  1.0000
  C   C1020     1.0  0.52138  0.53607  0.17520  1.0000
  C   C1021     1.0  0.59622  0.88935  0.14187  1.0000
  C   C1022     1.0  0.74050  0.49575  0.25844  1.0000
  N   N81       1.0  0.62916  0.88649  0.16537  1.0000
  C   C1023     1.0  0.66228  0.55711  0.13260  1.0000
  C   C1024     1.0  0.52694  0.82670  0.45481  1.0000
  C   C1025     1.0  0.63885  0.73459  0.12661  1.0000
  C   C1026     1.0  0.60631  0.72183  0.12772  1.0000
  H   H1013     1.0  0.56179  0.58196  0.14654  1.0000
  C   C1027     1.0  0.57662  0.50629  0.13397  1.0000
  H   H1014     1.0  0.57779  0.71335  0.15435  1.0000
  H   H1015     1.0  0.58184  0.89089  0.17279  1.0000
  C   C1028     1.0  0.67077  0.56422  0.16970  1.0000
  S   S350      1.0  0.59581  0.95901  0.10868  1.0000
  H   H1016     1.0  0.54258  0.76806  0.17666  1.0000
  H   H1017     1.0  0.73968  0.49481  0.24099  1.0000
  C   C1029     1.0  0.61923  0.74341  0.15818  1.0000
  C   C1030     1.0  0.52525  0.84801  0.43945  1.0000
  H   H1018     1.0  0.64358  0.88482  0.13480  1.0000
  H   H1019     1.0  0.58176  0.52047  0.10116  1.0000
  C   C1031     1.0  0.53716  0.78327  0.16523  1.0000
  C   C1032     1.0  0.53749  0.83029  0.14968  1.0000
  Fe  Fe175     1.0  0.52193  0.70565  0.17198  1.0000
  H   H1020     1.0  0.66070  0.61725  0.19268  1.0000
  H   H1021     1.0  0.57772  0.75077  0.15548  1.0000
  H   H1022     1.0  0.56119  0.54587  0.17530  1.0000
  C   C1033     1.0  0.72635  0.93032  0.48910  1.0000
  H   H1023     1.0  0.73830  0.61734  0.34337  1.0000
  N   N82       1.0  0.73341  0.90003  0.45926  1.0000
  C   C1034     1.0  0.72631  0.90404  0.47975  1.0000
  C   C1035     1.0  0.73975  0.92199  0.44721  1.0000
  H   H1024     1.0  0.65720  0.59466  0.11394  1.0000
  H   H1025     1.0  0.72101  0.88671  0.48922  1.0000
  C   C1036     1.0  0.73357  0.87221  0.44994  1.0000
  H   H1026     1.0  0.73377  0.97305  0.48427  1.0000
  H   H1027     1.0  0.74298  0.91410  0.37423  1.0000
  H   H1028     1.0  0.61437  0.88826  0.11359  1.0000
  C   C1037     1.0  0.76120  0.64049  0.33002  1.0000
  S   S351      1.0  0.75963  0.54567  0.36611  1.0000
  C   C1038     1.0  0.74950  0.60424  0.01627  1.0000
  S   S352      1.0  0.64193  0.95309  0.19541  1.0000
  C   C1039     1.0  0.56925  0.49167  0.17117  1.0000
  H   H1029     1.0  0.72128  0.93320  0.50566  1.0000
  H   H1030     1.0  0.53788  0.81076  0.45304  1.0000
  C   C1040     1.0  0.54463  0.81004  0.16416  1.0000
  C   C1041     1.0  0.61026  0.96045  0.17190  1.0000
  H   H1031     1.0  0.76215  0.58691  0.28421  1.0000
  H   H1032     1.0  0.59458  0.71243  0.11992  1.0000
  C   C1042     1.0  0.75559  0.51317  0.29072  1.0000
  H   H1033     1.0  0.74599  0.96441  0.38089  1.0000
  H   H1034     1.0  0.62535  0.71415  0.10059  1.0000
  N   N83       1.0  0.74842  0.60056  0.31336  1.0000
  N   N84       1.0  0.60434  0.73185  0.14829  1.0000
  H   H1035     1.0  0.74016  0.56111  0.32480  1.0000
  C   C1043     1.0  0.73163  0.97855  0.27324  1.0000
  Fe  Fe176     1.0  0.71020  0.96720  0.17790  1.0000
  C   C1044     1.0  0.75377  0.92110  0.38481  1.0000
  H   H1036     1.0  0.73472  0.62828  0.10711  1.0000
  H   H1037     1.0  0.58342  0.48697  0.17771  1.0000
  H   H1038     1.0  0.74387  0.49910  0.32116  1.0000
  H   H1039     1.0  0.74505  0.67628  0.39928  1.0000
  C   C1045     1.0  0.51686  0.55508  0.13273  1.0000
  H   H1040     1.0  0.68102  0.62992  0.17786  1.0000
  C   C1046     1.0  0.73342  0.95263  0.47716  1.0000
  H   H1041     1.0  0.66849  0.52391  0.15528  1.0000
  C   C1047     1.0  0.51961  0.51696  0.15847  1.0000
  H   H1042     1.0  0.63561  0.95394  0.11607  1.0000
  H   H1043     1.0  0.75241  0.60710  0.12024  1.0000
  H   H1044     1.0  0.76111  0.65502  0.34331  1.0000
  H   H1045     1.0  0.52994  0.67500  0.38085  1.0000
  C   C1048     1.0  0.74835  0.98257  0.26149  1.0000
  H   H1046     1.0  0.72093  0.58543  0.31973  1.0000
  C   C1049     1.0  0.75552  0.94958  0.38848  1.0000
  C   C1050     1.0  0.75835  0.86820  0.50651  1.0000
  C   C1051     1.0  0.73501  0.57799  0.31389  1.0000
  S   S353      1.0  0.76165  0.86601  0.39218  1.0000
  H   H1047     1.0  0.51609  0.51192  0.12424  1.0000
  H   H1048     1.0  0.51918  0.77373  0.23094  1.0000
  H   H1049     1.0  0.75328  0.64402  0.12166  1.0000
  H   H1050     1.0  0.75406  0.91257  0.31657  1.0000
  S   S354      1.0  0.69098  0.98270  0.20441  1.0000
  C   C1052     1.0  0.51847  0.57422  0.14941  1.0000
  H   H1051     1.0  0.52297  0.52871  0.19170  1.0000
  H   H1052     1.0  0.52230  0.57935  0.18360  1.0000
  C   C1053     1.0  0.76164  0.93179  0.32012  1.0000
  C   C1054     1.0  0.76331  0.65245  0.08025  1.0000
  S   S355      1.0  0.75685  0.81350  0.49336  1.0000
  H   H1053     1.0  0.71774  0.98307  0.30437  1.0000
  S   S356      1.0  0.76158  0.79949  0.43104  1.0000
  H   H1054     1.0  0.58078  0.48504  0.13034  1.0000
  H   H1055     1.0  0.76472  0.94216  0.30430  1.0000
  Fe  Fe177     1.0  0.53424  0.91988  0.71983  1.0000
  Fe  Fe178     1.0  0.57141  0.90684  0.69557  1.0000
  S   S357      1.0  0.56111  0.92489  0.66444  1.0000
  S   S358      1.0  0.60146  0.89105  0.69781  1.0000
  Fe  Fe179     1.0  0.54945  0.96021  0.68429  1.0000
  Fe  Fe180     1.0  0.53458  0.90288  0.67306  1.0000
  H   H1056     1.0  0.73767  0.78964  0.76726  1.0000
  S   S359      1.0  0.56118  0.94296  0.71541  1.0000
  S   S360      1.0  0.54573  0.88191  0.70293  1.0000
  Fe  Fe181     1.0  0.56765  0.71015  0.61279  1.0000
  S   S361      1.0  0.55558  0.69828  0.64498  1.0000
  S   S362      1.0  0.59782  0.72370  0.61064  1.0000
  Fe  Fe182     1.0  0.53187  0.69537  0.58938  1.0000
  Fe  Fe183     1.0  0.52951  0.72019  0.63376  1.0000
  C   C1055     1.0  0.53176  0.53406  0.65451  1.0000
  Fe  Fe184     1.0  0.54539  0.66022  0.62874  1.0000
  S   S363      1.0  0.52060  0.87865  0.64719  1.0000
  S   S364      1.0  0.54222  0.73530  0.60245  1.0000
  S   S365      1.0  0.55878  0.67135  0.59659  1.0000
  H   H1057     1.0  0.52632  0.58342  0.96260  1.0000
  H   H1058     1.0  0.53519  0.91392  0.79894  1.0000
  H   H1059     1.0  0.51719  0.79140  0.68869  1.0000
  Fe  Fe185     1.0  0.71213  0.69244  0.72054  1.0000
  S   S366      1.0  0.72664  0.67446  0.69078  1.0000
  S   S367      1.0  0.72784  0.69080  0.75251  1.0000
  Fe  Fe186     1.0  0.67591  0.70551  0.69560  1.0000
  S   S368      1.0  0.68821  0.68904  0.66479  1.0000
  S   S369      1.0  0.64608  0.72297  0.69606  1.0000
  Fe  Fe187     1.0  0.69933  0.65311  0.68464  1.0000
  S   S370      1.0  0.68891  0.61080  0.67417  1.0000
  Fe  Fe188     1.0  0.71376  0.71195  0.67399  1.0000
  S   S371      1.0  0.72708  0.73919  0.64822  1.0000
  S   S372      1.0  0.68564  0.66881  0.71550  1.0000
  S   S373      1.0  0.70079  0.73079  0.70385  1.0000
  Fe  Fe189     1.0  0.67933  0.90476  0.61030  1.0000
  S   S374      1.0  0.69005  0.92193  0.64082  1.0000
  S   S375      1.0  0.64964  0.88929  0.61021  1.0000
  Fe  Fe190     1.0  0.71634  0.91502  0.58537  1.0000
  S   S376      1.0  0.72950  0.93323  0.61486  1.0000
  S   S377      1.0  0.73382  0.91537  0.55387  1.0000
  Fe  Fe191     1.0  0.71618  0.89720  0.63241  1.0000
  S   S378      1.0  0.72753  0.86972  0.65912  1.0000
  Fe  Fe192     1.0  0.70178  0.95633  0.62035  1.0000
  H   H1060     1.0  0.61776  0.49271  0.67359  1.0000
  S   S379      1.0  0.70480  0.87778  0.60285  1.0000
  S   S380      1.0  0.68947  0.94026  0.58974  1.0000
  H   H1061     1.0  0.65230  0.95854  0.63058  1.0000
  H   H1062     1.0  0.59196  0.95890  0.63422  1.0000
  C   C1056     1.0  0.74263  0.96428  0.94389  1.0000
  H   H1063     1.0  0.64864  0.51011  0.63939  1.0000
  C   C1057     1.0  0.53030  0.58069  0.63830  1.0000
  H   H1064     1.0  0.60566  0.78126  0.63010  1.0000
  S   S381      1.0  0.52129  0.50129  0.65807  1.0000
  C   C1058     1.0  0.73979  0.88682  0.53710  1.0000
  C   C1059     1.0  0.73163  0.86099  0.54006  1.0000
  C   C1060     1.0  0.73686  0.83886  0.52634  1.0000
  C   C1061     1.0  0.51979  0.82983  0.67073  1.0000
  H   H1065     1.0  0.72127  0.85805  0.55289  1.0000
  H   H1066     1.0  0.72735  0.96077  0.94250  1.0000
  C   C1062     1.0  0.72643  0.83363  0.65567  1.0000
  C   C1063     1.0  0.72361  0.81644  0.67384  1.0000
  C   C1064     1.0  0.72322  0.78753  0.67164  1.0000
  C   C1065     1.0  0.72626  0.77552  0.65135  1.0000
  C   C1066     1.0  0.72908  0.79272  0.63315  1.0000
  C   C1067     1.0  0.72891  0.82171  0.63525  1.0000
  H   H1067     1.0  0.72171  0.82556  0.68967  1.0000
  H   H1068     1.0  0.72111  0.77465  0.68579  1.0000
  H   H1069     1.0  0.73149  0.78356  0.61742  1.0000
  H   H1070     1.0  0.73128  0.83482  0.62123  1.0000
  C   C1068     1.0  0.70010  0.57957  0.66498  1.0000
  C   C1069     1.0  0.71964  0.57641  0.66296  1.0000
  C   C1070     1.0  0.72778  0.55107  0.65584  1.0000
  C   C1071     1.0  0.71656  0.52860  0.65063  1.0000
  C   C1072     1.0  0.69701  0.53175  0.65258  1.0000
  C   C1073     1.0  0.68886  0.55710  0.65971  1.0000
  H   H1071     1.0  0.72847  0.59348  0.66689  1.0000
  H   H1072     1.0  0.74292  0.54890  0.65437  1.0000
  C   C1074     1.0  0.54223  0.89489  0.80560  1.0000
  H   H1073     1.0  0.52949  0.91061  0.98552  1.0000
  C   C1075     1.0  0.75322  0.89026  0.52032  1.0000
  C   C1076     1.0  0.75085  0.76313  0.79119  1.0000
  C   C1077     1.0  0.74995  0.63153  0.00843  1.0000
  C   C1078     1.0  0.59992  0.79423  0.64298  1.0000
  H   H1074     1.0  0.62715  0.80094  0.65651  1.0000
  H   H1075     1.0  0.55892  0.77235  0.63837  1.0000
  H   H1076     1.0  0.56687  0.57394  0.67259  1.0000
  H   H1077     1.0  0.72281  0.65765  0.89246  1.0000
  H   H1078     1.0  0.72871  0.65626  0.85275  1.0000
  C   C1079     1.0  0.52018  0.82575  0.63175  1.0000
  C   C1080     1.0  0.65803  0.96486  0.67279  1.0000
  C   C1081     1.0  0.61216  0.80529  0.65785  1.0000
  H   H1079     1.0  0.55696  0.89957  0.80952  1.0000
  C   C1082     1.0  0.73542  0.71919  0.76781  1.0000
  C   C1083     1.0  0.73229  0.74666  0.76112  1.0000
  C   C1084     1.0  0.62358  0.96488  0.67422  1.0000
  C   C1085     1.0  0.60489  0.82197  0.67446  1.0000
  C   C1086     1.0  0.56810  0.78720  0.62957  1.0000
  H   H1080     1.0  0.72427  0.75112  0.74674  1.0000
  C   C1087     1.0  0.54758  0.54143  0.66596  1.0000
  C   C1088     1.0  0.61097  0.72278  0.63455  1.0000
  C   C1089     1.0  0.63059  0.71999  0.63303  1.0000
  C   C1090     1.0  0.64147  0.71980  0.65176  1.0000
  C   C1091     1.0  0.63285  0.72292  0.67216  1.0000
  C   C1092     1.0  0.61325  0.72642  0.67363  1.0000
  C   C1093     1.0  0.60232  0.72611  0.65492  1.0000
  H   H1081     1.0  0.63739  0.71774  0.61730  1.0000
  H   H1082     1.0  0.65650  0.71750  0.65029  1.0000
  H   H1083     1.0  0.60646  0.72919  0.68932  1.0000
  H   H1084     1.0  0.58729  0.72924  0.65631  1.0000
  C   C1094     1.0  0.61466  0.89052  0.67337  1.0000
  C   C1095     1.0  0.60597  0.88846  0.65336  1.0000
  C   C1096     1.0  0.61686  0.88765  0.63414  1.0000
  C   C1097     1.0  0.63648  0.88924  0.63474  1.0000
  C   C1098     1.0  0.64516  0.89071  0.65481  1.0000
  C   C1099     1.0  0.63430  0.89115  0.67404  1.0000
  H   H1085     1.0  0.59089  0.88697  0.65266  1.0000
  H   H1086     1.0  0.61003  0.88613  0.61872  1.0000
  H   H1087     1.0  0.66021  0.89125  0.65563  1.0000
  H   H1088     1.0  0.64113  0.89227  0.68949  1.0000
  H   H1089     1.0  0.62183  0.95509  0.61246  1.0000
  H   H1090     1.0  0.57573  0.77574  0.61644  1.0000
  H   H1091     1.0  0.52292  0.86058  0.74827  1.0000
  H   H1092     1.0  0.52131  0.92289  0.01169  1.0000
  C   C1100     1.0  0.54606  0.58815  0.64982  1.0000
  C   C1101     1.0  0.51869  0.52215  0.72490  1.0000
  S   S382      1.0  0.76270  0.57685  0.00371  1.0000
  H   H1093     1.0  0.51567  0.75232  0.56082  1.0000
  C   C1102     1.0  0.55468  0.56835  0.66359  1.0000
  H   H1094     1.0  0.54248  0.87932  0.79248  1.0000
  C   C1103     1.0  0.72895  0.70092  0.84913  1.0000
  S   S383      1.0  0.51763  0.68122  0.62057  1.0000
  H   H1095     1.0  0.72402  0.75055  0.83077  1.0000
  N   N85       1.0  0.58096  0.79953  0.64472  1.0000
  H   H1096     1.0  0.52359  0.59564  0.62757  1.0000
  C   C1104     1.0  0.73038  0.75154  0.84703  1.0000
  H   H1097     1.0  0.73051  0.81890  0.52880  1.0000
  N   N86       1.0  0.61484  0.65061  0.64357  1.0000
  C   C1105     1.0  0.61058  0.65523  0.66494  1.0000
  C   C1106     1.0  0.63298  0.64482  0.63700  1.0000
  C   C1107     1.0  0.62478  0.65484  0.68030  1.0000
  C   C1108     1.0  0.64748  0.64401  0.65196  1.0000
  C   C1109     1.0  0.64332  0.64913  0.67372  1.0000
  C   C1110     1.0  0.59981  0.65051  0.62773  1.0000
  H   H1098     1.0  0.59615  0.65957  0.67015  1.0000
  H   H1099     1.0  0.63632  0.64086  0.62011  1.0000
  H   H1100     1.0  0.65707  0.97807  0.68738  1.0000
  C   C1111     1.0  0.52113  0.56199  0.99294  1.0000
  C   C1112     1.0  0.61255  0.48856  0.65761  1.0000
  H   H1101     1.0  0.58761  0.66354  0.63317  1.0000
  H   H1102     1.0  0.60459  0.65934  0.61190  1.0000
  H   H1103     1.0  0.59490  0.62908  0.62555  1.0000
  H   H1104     1.0  0.55920  0.80363  0.62184  1.0000
  S   S384      1.0  0.76327  0.75063  0.91002  1.0000
  H   H1105     1.0  0.55419  0.52657  0.67683  1.0000
  C   C1113     1.0  0.52325  0.55377  0.64060  1.0000
  H   H1106     1.0  0.66188  0.63943  0.64677  1.0000
  H   H1107     1.0  0.65449  0.64871  0.68544  1.0000
  H   H1108     1.0  0.53152  0.84295  0.81468  1.0000
  C   C1114     1.0  0.72364  0.67682  0.88310  1.0000
  C   C1115     1.0  0.60614  0.96353  0.66434  1.0000
  C   C1116     1.0  0.75689  0.74603  0.70402  1.0000
  H   H1109     1.0  0.72411  0.74643  0.88973  1.0000
  S   S385      1.0  0.72776  0.49653  0.64341  1.0000
  H   H1110     1.0  0.75516  0.79045  0.69975  1.0000
  H   H1111     1.0  0.53091  0.52850  0.73361  1.0000
  H   H1112     1.0  0.62151  0.65936  0.69714  1.0000
  C   C1117     1.0  0.72707  0.67605  0.86080  1.0000
  H   H1113     1.0  0.55874  0.82032  0.66215  1.0000
  C   C1118     1.0  0.74590  0.71386  0.78658  1.0000
  N   N87       1.0  0.67948  0.78357  0.64212  1.0000
  C   C1119     1.0  0.67445  0.77862  0.66329  1.0000
  C   C1120     1.0  0.68129  0.81016  0.63455  1.0000
  C   C1121     1.0  0.67172  0.80058  0.67767  1.0000
  C   C1122     1.0  0.67872  0.83259  0.64848  1.0000
  C   C1123     1.0  0.67400  0.82774  0.67020  1.0000
  C   C1124     1.0  0.68214  0.76036  0.62720  1.0000
  H   H1114     1.0  0.67274  0.75758  0.66927  1.0000
  H   H1115     1.0  0.68508  0.81419  0.61773  1.0000
  H   H1116     1.0  0.66807  0.79644  0.69453  1.0000
  H   H1117     1.0  0.68068  0.85357  0.64249  1.0000
  H   H1118     1.0  0.67227  0.84501  0.68120  1.0000
  H   H1119     1.0  0.66877  0.75631  0.61898  1.0000
  H   H1120     1.0  0.69332  0.76477  0.61490  1.0000
  H   H1121     1.0  0.68693  0.74124  0.63591  1.0000
  H   H1122     1.0  0.57988  0.84075  0.68867  1.0000
  H   H1123     1.0  0.73990  0.50878  0.71463  1.0000
  H   H1124     1.0  0.66276  0.94360  0.67760  1.0000
  C   C1125     1.0  0.72435  0.72678  0.88135  1.0000
  N   N88       1.0  0.63988  0.96380  0.66208  1.0000
  N   N89       1.0  0.72745  0.72585  0.85942  1.0000
  C   C1126     1.0  0.52872  0.97158  0.99527  1.0000
  C   C1127     1.0  0.57374  0.81598  0.66089  1.0000
  H   H1125     1.0  0.53321  0.54795  0.99127  1.0000
  C   C1128     1.0  0.51853  0.84805  0.84601  1.0000
  C   C1129     1.0  0.76024  0.82985  0.57927  1.0000
  H   H1126     1.0  0.72024  0.70313  0.91092  1.0000
  S   S386      1.0  0.75682  0.81022  0.86509  1.0000
  H   H1127     1.0  0.74567  0.75506  0.84489  1.0000
  H   H1128     1.0  0.67374  0.55932  0.66124  1.0000
  H   H1129     1.0  0.62395  0.96668  0.69169  1.0000
  C   C1130     1.0  0.52799  0.85759  0.82741  1.0000
  H   H1130     1.0  0.52001  0.84243  0.68502  1.0000
  S   S387      1.0  0.55551  0.62180  0.64774  1.0000
  C   C1131     1.0  0.73994  0.76847  0.77278  1.0000
  H   H1131     1.0  0.61418  0.83097  0.68605  1.0000
  H   H1132     1.0  0.73185  0.70016  0.83184  1.0000
  C   C1132     1.0  0.51854  0.92344  0.99400  1.0000
  C   C1133     1.0  0.72217  0.70233  0.89346  1.0000
  C   C1134     1.0  0.75368  0.73566  0.79815  1.0000
  H   H1133     1.0  0.59324  0.96472  0.67401  1.0000
  H   H1134     1.0  0.68821  0.51463  0.64877  1.0000
  C   C1135     1.0  0.58558  0.82746  0.67597  1.0000
  H   H1135     1.0  0.74850  0.69263  0.79178  1.0000
  H   H1136     1.0  0.72384  0.76980  0.85532  1.0000
  C   C1136     1.0  0.60544  0.96031  0.64198  1.0000
  H   H1137     1.0  0.74470  0.50873  0.68592  1.0000
  H   H1138     1.0  0.75968  0.91016  0.51798  1.0000
  H   H1139     1.0  0.51900  0.78417  0.61949  1.0000
  C   C1137     1.0  0.63936  0.96026  0.64016  1.0000
  S   S388      1.0  0.76169  0.79130  0.80374  1.0000
  S   S389      1.0  0.76240  0.55796  0.94115  1.0000
  H   H1140     1.0  0.52067  0.83537  0.61583  1.0000
  C   C1138     1.0  0.62215  0.95844  0.62978  1.0000
  H   H1141     1.0  0.53088  0.92506  0.83928  1.0000
  N   N90       1.0  0.51852  0.95189  0.98536  1.0000
  H   H1142     1.0  0.75017  0.94397  0.94188  1.0000
  N   N91       1.0  0.53216  0.88501  0.82504  1.0000
  H   H1143     1.0  0.58359  0.48856  0.66881  1.0000
  N   N92       1.0  0.74662  0.97701  0.96467  1.0000
  C   C1139     1.0  0.59317  0.48632  0.65501  1.0000
  H   H1144     1.0  0.66891  0.97400  0.66185  1.0000
  C   C1140     1.0  0.51820  0.80096  0.67278  1.0000
  H   H1145     1.0  0.75763  0.63613  0.99359  1.0000
  S   S390      1.0  0.52153  0.93988  0.69005  1.0000
  H   H1146     1.0  0.53638  0.96652  0.00988  1.0000
  H   H1147     1.0  0.76229  0.73119  0.81206  1.0000
  H   H1148     1.0  0.72100  0.51339  0.69555  1.0000
  S   S391      1.0  0.51713  0.92074  0.75159  1.0000
  H   H1149     1.0  0.74934  0.74173  0.68938  1.0000
  C   C1141     1.0  0.76277  0.66762  0.92073  1.0000
  H   H1150     1.0  0.75326  0.86666  0.59758  1.0000
  H   H1151     1.0  0.75821  0.70482  0.93930  1.0000
  C   C1142     1.0  0.76196  0.69648  0.92357  1.0000
  H   H1152     1.0  0.75945  0.65389  0.93418  1.0000
  S   S392      1.0  0.51667  0.69166  0.55732  1.0000
  C   C1143     1.0  0.76018  0.77332  0.70981  1.0000
  C   C1144     1.0  0.76339  0.72424  0.71727  1.0000
  C   C1145     1.0  0.51785  0.78438  0.65433  1.0000
  C   C1146     1.0  0.64497  0.48833  0.64317  1.0000
  H   H1153     1.0  0.75095  0.81668  0.58868  1.0000
  C   C1147     1.0  0.52751  0.90335  0.84111  1.0000
  C   C1148     1.0  0.51727  0.58180  0.97687  1.0000
  H   H1154     1.0  0.76054  0.70309  0.71287  1.0000
  C   C1149     1.0  0.52042  0.84235  0.65021  1.0000
  H   H1155     1.0  0.74736  0.97809  0.93042  1.0000
  H   H1156     1.0  0.51826  0.55799  0.70396  1.0000
  C   C1150     1.0  0.76160  0.85782  0.58434  1.0000
  C   C1151     1.0  0.51923  0.79678  0.63380  1.0000
  C   C1152     1.0  0.51831  0.89441  0.86008  1.0000
  C   C1153     1.0  0.73453  0.50221  0.69880  1.0000
  C   C1154     1.0  0.76047  0.96613  0.97754  1.0000
  N   N93       1.0  0.62476  0.48469  0.64043  1.0000
  Fe  Fe193     1.0  0.96741  0.05001  0.47026  1.0000
  S   S393      1.0  0.98020  0.06344  0.43795  1.0000
  H   H1157     1.0  0.86109  0.10117  0.36317  1.0000
  Fe  Fe194     1.0  0.92872  0.04300  0.45059  1.0000
  S   S394      1.0  0.93932  0.05523  0.41783  1.0000
  S   S395      1.0  0.89770  0.03426  0.45472  1.0000
  Fe  Fe195     1.0  0.96411  0.02764  0.42509  1.0000
  C   C1155     1.0  0.90469  0.26545  0.41616  1.0000
  Fe  Fe196     1.0  0.95375  0.08997  0.43389  1.0000
  S   S396      1.0  0.94382  0.13080  0.41785  1.0000
  S   S397      1.0  0.95274  0.01309  0.45731  1.0000
  S   S398      1.0  0.94200  0.07871  0.46686  1.0000
  C   C1156     1.0  0.85269  0.25762  0.42338  1.0000
  H   H1158     1.0  0.91740  0.42468  0.36566  1.0000
  N   N94       1.0  0.88476  0.26252  0.41124  1.0000
  C   C1157     1.0  0.82728  0.47812  0.40918  1.0000
  H   H1159     1.0  0.87568  0.26469  0.44436  1.0000
  Fe  Fe197     1.0  0.97400  0.32784  0.34822  1.0000
  S   S399      1.0  0.99014  0.32193  0.37904  1.0000
  S   S400      1.0  0.98791  0.32771  0.31445  1.0000
  Fe  Fe198     1.0  0.93641  0.32270  0.37264  1.0000
  S   S401      1.0  0.94972  0.31632  0.40482  1.0000
  S   S402      1.0  0.90494  0.32280  0.36890  1.0000
  Fe  Fe199     1.0  0.96826  0.35090  0.39371  1.0000
  S   S403      1.0  0.97329  0.38233  0.41965  1.0000
  Fe  Fe200     1.0  0.97011  0.28777  0.38751  1.0000
  S   S404      1.0  0.98218  0.24806  0.40285  1.0000
  S   S405      1.0  0.95347  0.35933  0.36240  1.0000
  S   S406      1.0  0.95544  0.29153  0.35577  1.0000
  Fe  Fe201     1.0  0.82055  0.32134  0.44831  1.0000
  S   S407      1.0  0.80940  0.30685  0.41699  1.0000
  S   S408      1.0  0.85048  0.33563  0.45087  1.0000
  Fe  Fe202     1.0  0.78299  0.31217  0.47271  1.0000
  Fe  Fe203     1.0  0.79657  0.27214  0.43632  1.0000
  Fe  Fe204     1.0  0.78386  0.33264  0.42625  1.0000
  H   H1160     1.0  0.94039  0.24682  0.04939  1.0000
  S   S409      1.0  0.80915  0.28561  0.46759  1.0000
  S   S410      1.0  0.79579  0.34931  0.45661  1.0000
  Fe  Fe205     1.0  0.78048  0.02365  0.38705  1.0000
  S   S411      1.0  0.80077  0.00729  0.36195  1.0000
  S   S412      1.0  0.76948  0.29654  0.44258  1.0000
  Fe  Fe206     1.0  0.78340  0.08357  0.37145  1.0000
  S   S413      1.0  0.80374  0.07134  0.34469  1.0000
  Fe  Fe207     1.0  0.78515  0.03521  0.33886  1.0000
  Fe  Fe208     1.0  0.81761  0.04424  0.36989  1.0000
  S   S414      1.0  0.84932  0.04000  0.36950  1.0000
  S   S415      1.0  0.79859  0.05875  0.39711  1.0000
  C   C1158     1.0  0.79792  0.15181  0.40136  1.0000
  C   C1159     1.0  0.80494  0.17400  0.41321  1.0000
  H   H1161     1.0  0.80520  0.13186  0.40142  1.0000
  H   H1162     1.0  0.81764  0.17086  0.42232  1.0000
  H   H1163     1.0  0.90639  0.27841  0.43070  1.0000
  H   H1164     1.0  0.76869  0.40713  0.37036  1.0000
  H   H1165     1.0  0.97123  0.30252  0.08780  1.0000
  C   C1160     1.0  0.83226  0.40645  0.43252  1.0000
  C   C1161     1.0  0.92525  0.40262  0.41721  1.0000
  H   H1166     1.0  0.83682  0.39641  0.44742  1.0000
  C   C1162     1.0  0.82020  0.40339  0.39646  1.0000
  H   H1167     1.0  0.96965  0.46504  0.37215  1.0000
  S   S416      1.0  0.78157  0.02073  0.30415  1.0000
  C   C1163     1.0  0.89006  0.32886  0.39157  1.0000
  C   C1164     1.0  0.89714  0.33448  0.41198  1.0000
  C   C1165     1.0  0.88485  0.33702  0.43001  1.0000
  C   C1166     1.0  0.86545  0.33386  0.42775  1.0000
  C   C1167     1.0  0.85841  0.32906  0.40721  1.0000
  C   C1168     1.0  0.87064  0.32670  0.38921  1.0000
  H   H1168     1.0  0.91206  0.33636  0.41399  1.0000
  H   H1169     1.0  0.89042  0.34091  0.44583  1.0000
  H   H1170     1.0  0.84358  0.32703  0.40504  1.0000
  H   H1171     1.0  0.86504  0.32256  0.37345  1.0000
  C   C1169     1.0  0.82594  0.39048  0.41562  1.0000
  H   H1172     1.0  0.98352  0.20252  0.03069  1.0000
  H   H1173     1.0  0.86024  0.10585  0.43240  1.0000
  C   C1170     1.0  0.99917  0.35552  0.30076  1.0000
  C   C1171     1.0  0.99874  0.38238  0.30897  1.0000
  C   C1172     1.0  0.97966  0.24525  0.02047  1.0000
  H   H1174     1.0  0.91232  0.27592  0.40258  1.0000
  H   H1175     1.0  0.95010  0.29457  0.05733  1.0000
  C   C1173     1.0  0.77353  0.44457  0.38802  1.0000
  C   C1174     1.0  0.89740  0.10390  0.39799  1.0000
  C   C1175     1.0  0.85843  0.10457  0.39782  1.0000
  H   H1176     1.0  0.98118  0.23767  0.35491  1.0000
  H   H1177     1.0  0.83259  0.25081  0.39852  1.0000
  C   C1176     1.0  0.79560  0.20010  0.41349  1.0000
  C   C1177     1.0  0.84725  0.25413  0.40205  1.0000
  C   C1178     1.0  0.88812  0.10281  0.37828  1.0000
  C   C1179     1.0  0.99619  0.27849  0.04138  1.0000
  H   H1178     1.0  0.95248  0.20724  0.07183  1.0000
  C   C1180     1.0  0.77414  0.39793  0.40394  1.0000
  H   H1179     1.0  0.76603  0.05996  0.23468  1.0000
  H   H1180     1.0  0.77339  0.37093  0.50095  1.0000
  C   C1181     1.0  0.77792  0.40928  0.42405  1.0000
  C   C1182     1.0  0.86204  0.03618  0.39359  1.0000
  C   C1183     1.0  0.88162  0.03284  0.39198  1.0000
  C   C1184     1.0  0.89252  0.03163  0.41063  1.0000
  C   C1185     1.0  0.88403  0.03404  0.43113  1.0000
  C   C1186     1.0  0.86436  0.03662  0.43282  1.0000
  C   C1187     1.0  0.85336  0.03771  0.41409  1.0000
  H   H1181     1.0  0.88841  0.03150  0.37618  1.0000
  H   H1182     1.0  0.90748  0.02853  0.40901  1.0000
  H   H1183     1.0  0.85761  0.03814  0.44863  1.0000
  H   H1184     1.0  0.83824  0.04014  0.41550  1.0000
  C   C1188     1.0  0.95482  0.16322  0.41399  1.0000
  C   C1189     1.0  0.97303  0.16792  0.42095  1.0000
  C   C1190     1.0  0.98112  0.19403  0.41747  1.0000
  C   C1191     1.0  0.97113  0.21576  0.40706  1.0000
  C   C1192     1.0  0.95293  0.21108  0.40004  1.0000
  C   C1193     1.0  0.94485  0.18496  0.40351  1.0000
  H   H1185     1.0  0.98086  0.15144  0.42903  1.0000
  H   H1186     1.0  0.99519  0.19741  0.42299  1.0000
  H   H1187     1.0  0.94513  0.22752  0.39191  1.0000
  H   H1188     1.0  0.93079  0.18150  0.39799  1.0000
  S   S417      1.0  0.00689  0.20176  0.06791  1.0000
  C   C1194     1.0  0.97398  0.46543  0.42683  1.0000
  C   C1195     1.0  0.97512  0.43672  0.43067  1.0000
  C   C1196     1.0  0.97364  0.41809  0.41359  1.0000
  C   C1197     1.0  0.97170  0.42834  0.39245  1.0000
  C   C1198     1.0  0.97110  0.45715  0.38851  1.0000
  H   H1189     1.0  0.99892  0.43978  0.51174  1.0000
  H   H1190     1.0  0.97690  0.42891  0.44701  1.0000
  H   H1191     1.0  0.97070  0.41413  0.37916  1.0000
  C   C1199     1.0  0.77714  0.45578  0.40824  1.0000
  C   C1200     1.0  0.86817  0.10541  0.41724  1.0000
  S   S418      1.0  0.80536  0.22723  0.42867  1.0000
  H   H1192     1.0  0.93866  0.44830  0.45422  1.0000
  H   H1193     1.0  0.81586  0.44220  0.37972  1.0000
  C   C1201     1.0  0.82072  0.43229  0.39452  1.0000
  C   C1202     1.0  0.78146  0.15546  0.38952  1.0000
  H   H1194     1.0  0.00869  0.32986  0.27418  1.0000
  N   N95       1.0  0.97696  0.40244  0.24813  1.0000
  C   C1203     1.0  0.98581  0.40949  0.22906  1.0000
  C   C1204     1.0  0.97245  0.37549  0.25239  1.0000
  C   C1205     1.0  0.99062  0.38926  0.21374  1.0000
  C   C1206     1.0  0.97715  0.35470  0.23750  1.0000
  C   C1207     1.0  0.98625  0.36169  0.21804  1.0000
  C   C1208     1.0  0.97160  0.42417  0.26361  1.0000
  H   H1195     1.0  0.77181  0.22367  0.40164  1.0000
  H   H1196     1.0  0.96568  0.36978  0.26765  1.0000
  H   H1197     1.0  0.97381  0.21591  0.10186  1.0000
  H   H1198     1.0  0.97397  0.33326  0.24119  1.0000
  H   H1199     1.0  0.99779  0.39490  0.19867  1.0000
  C   C1209     1.0  0.77416  0.11352  0.07572  1.0000
  C   C1210     1.0  0.95456  0.27737  0.06770  1.0000
  H   H1200     1.0  0.82533  0.36815  0.41749  1.0000
  H   H1201     1.0  0.77182  0.07603  0.27180  1.0000
  H   H1202     1.0  0.94231  0.41153  0.45427  1.0000
  C   C1211     1.0  0.98641  0.26439  0.11452  1.0000
  C   C1212     1.0  0.87954  0.25907  0.39027  1.0000
  C   C1213     1.0  0.86071  0.25496  0.38535  1.0000
  H   H1203     1.0  0.88992  0.26001  0.37717  1.0000
  H   H1204     1.0  0.85657  0.25253  0.36869  1.0000
  N   N96       1.0  0.92826  0.42760  0.42662  1.0000
  H   H1205     1.0  0.76583  0.18036  0.06598  1.0000
  H   H1206     1.0  0.92645  0.38355  0.42663  1.0000
  C   C1214     1.0  0.92706  0.45164  0.41467  1.0000
  H   H1207     1.0  0.93105  0.98742  0.41822  1.0000
  H   H1208     1.0  0.81487  0.39111  0.38343  1.0000
  C   C1215     1.0  0.92320  0.45098  0.39257  1.0000
  H   H1209     1.0  0.77171  0.45815  0.37410  1.0000
  H   H1210     1.0  0.01302  0.26172  0.06752  1.0000
  H   H1211     1.0  0.98999  0.34576  0.20636  1.0000
  C   C1216     1.0  0.77915  0.20378  0.40165  1.0000
  H   H1212     1.0  0.77178  0.07056  0.08537  1.0000
  C   C1217     1.0  0.92022  0.42557  0.38283  1.0000
  S   S419      1.0  0.77206  0.12823  0.37413  1.0000
  H   H1213     1.0  0.77921  0.39608  0.43813  1.0000
  H   H1214     1.0  0.95827  0.43464  0.25871  1.0000
  S   S420      1.0  0.97164  0.99838  0.39765  1.0000
  C   C1218     1.0  0.98394  0.27282  0.02448  1.0000
  N   N97       1.0  0.00943  0.25036  0.35437  1.0000
  H   H1215     1.0  0.89608  0.10123  0.36318  1.0000
  C   C1219     1.0  0.89748  0.10594  0.43753  1.0000
  H   H1216     1.0  0.78986  0.17077  0.07246  1.0000
  H   H1217     1.0  0.99193  0.38649  0.32445  1.0000
  H   H1218     1.0  0.99963  0.29975  0.04456  1.0000
  H   H1219     1.0  0.91892  0.42621  0.45940  1.0000
  N   N98       1.0  0.82666  0.44786  0.41131  1.0000
  C   C1220     1.0  0.87163  0.26179  0.42773  1.0000
  H   H1220     1.0  0.84224  0.25708  0.43643  1.0000
  C   C1221     1.0  0.00377  0.25698  0.05448  1.0000
  C   C1222     1.0  0.97196  0.47574  0.40574  1.0000
  H   H1221     1.0  0.83735  0.44768  0.44331  1.0000
  H   H1222     1.0  0.97235  0.99332  0.50397  1.0000
  H   H1223     1.0  0.00630  0.42494  0.30333  1.0000
  C   C1223     1.0  0.83253  0.43532  0.43007  1.0000
  H   H1224     1.0  0.78162  0.10848  0.06072  1.0000
  H   H1225     1.0  0.88875  0.09854  0.45147  1.0000
  H   H1226     1.0  0.99758  0.21157  0.36406  1.0000
  H   H1227     1.0  0.97496  0.47960  0.44017  1.0000
  C   C1224     1.0  0.99914  0.22948  0.05081  1.0000
  H   H1228     1.0  0.91017  0.09213  0.43695  1.0000
  H   H1229     1.0  0.91140  0.24472  0.41903  1.0000
  H   H1230     1.0  0.96986  0.41553  0.28029  1.0000
  H   H1231     1.0  0.90203  0.12740  0.44038  1.0000
  N   N99       1.0  0.88741  0.10475  0.41713  1.0000
  C   C1225     1.0  0.77928  0.43804  0.42621  1.0000
  H   H1232     1.0  0.84319  0.10399  0.39793  1.0000
  C   C1226     1.0  0.98726  0.22373  0.03356  1.0000
  H   H1233     1.0  0.98279  0.43981  0.26439  1.0000
  S   S421      1.0  0.76824  0.99346  0.41134  1.0000
  H   H1234     1.0  0.91266  0.10362  0.39793  1.0000
  C   C1227     1.0  0.94918  0.25051  0.06316  1.0000
  C   C1228     1.0  0.76859  0.09195  0.08957  1.0000
  H   H1235     1.0  0.98948  0.43084  0.22581  1.0000
  S   S422      1.0  0.77125  0.36187  0.40117  1.0000
  H   H1236     1.0  0.98588  0.28622  0.12007  1.0000
  S   S423      1.0  0.00824  0.19782  0.13093  1.0000
  C   C1229     1.0  0.01076  0.27073  0.33886  1.0000
  C   C1230     1.0  0.96796  0.23340  0.09279  1.0000
  C   C1231     1.0  0.86851  0.10305  0.37825  1.0000
  C   C1232     1.0  0.93216  0.42848  0.44981  1.0000
  H   H1237     1.0  0.92958  0.47147  0.42202  1.0000
  C   C1233     1.0  0.77640  0.16297  0.06651  1.0000
  C   C1234     1.0  0.77217  0.18160  0.38973  1.0000
  C   C1235     1.0  0.96660  0.28169  0.08489  1.0000
  H   H1238     1.0  0.78198  0.44662  0.44191  1.0000
  H   H1239     1.0  0.00088  0.25922  0.10852  1.0000
  H   H1240     1.0  0.77303  0.44580  0.24672  1.0000
  H   H1241     1.0  0.77667  0.42248  0.21102  1.0000
  H   H1242     1.0  0.98328  0.25112  0.12894  1.0000
  C   C1236     1.0  0.92110  0.40122  0.39523  1.0000
  C   C1237     1.0  0.00693  0.40415  0.29695  1.0000
  N   N100      1.0  0.97300  0.25984  0.09730  1.0000
  S   S424      1.0  0.98496  0.05065  0.50094  1.0000
  C   C1238     1.0  0.95590  0.22834  0.07576  1.0000
  C   C1239     1.0  0.00822  0.35060  0.28065  1.0000
  C   C1240     1.0  0.99554  0.22872  0.35205  1.0000
  H   H1243     1.0  0.99650  0.21971  0.33560  1.0000
  C   C1241     1.0  0.77183  0.41570  0.38595  1.0000
  H   H1244     1.0  0.77644  0.99829  0.26208  1.0000
  N   N101      1.0  0.76978  0.14051  0.08069  1.0000
  H   H1245     1.0  0.77846  0.15586  0.04955  1.0000
  H   H1246     1.0  0.00167  0.27090  0.32495  1.0000
  S   S425      1.0  0.76610  0.31160  0.50463  1.0000
  H   H1247     1.0  0.91882  0.38134  0.38781  1.0000
  C   C1242     1.0  0.76619  0.41564  0.22277  1.0000
  H   H1248     1.0  0.92286  0.47005  0.38308  1.0000
  H   H1249     1.0  0.00960  0.40609  0.50698  1.0000
  N   N102      1.0  0.01177  0.25636  0.74332  1.0000
  H   H1250     1.0  0.87383  0.19068  0.93075  1.0000
  Fe  Fe209     1.0  0.91930  0.29761  0.95483  1.0000
  S   S426      1.0  0.93173  0.31235  0.92341  1.0000
  S   S427      1.0  0.88801  0.29007  0.95726  1.0000
  Fe  Fe210     1.0  0.95692  0.30237  0.97854  1.0000
  S   S428      1.0  0.97138  0.31865  0.94827  1.0000
  H   H1251     1.0  0.97005  0.24058  0.00775  1.0000
  Fe  Fe211     1.0  0.94521  0.34529  0.94270  1.0000
  S   S429      1.0  0.93631  0.39041  0.93520  1.0000
  Fe  Fe212     1.0  0.95615  0.28428  0.93210  1.0000
  S   S430      1.0  0.96933  0.25601  0.90671  1.0000
  S   S431      1.0  0.93187  0.33124  0.97421  1.0000
  S   S432      1.0  0.94279  0.26715  0.96250  1.0000
  Fe  Fe213     1.0  0.96099  0.09807  0.89401  1.0000
  S   S433      1.0  0.94776  0.11890  0.86534  1.0000
  S   S434      1.0  0.97249  0.12566  0.91959  1.0000
  Fe  Fe214     1.0  0.94863  0.03965  0.88186  1.0000
  S   S435      1.0  0.93524  0.05734  0.85180  1.0000
  H   H1252     1.0  0.97038  0.01567  0.56239  1.0000
  Fe  Fe215     1.0  0.96073  0.08342  0.84671  1.0000
  S   S436      1.0  0.97106  0.08708  0.81146  1.0000
  Fe  Fe216     1.0  0.92368  0.09112  0.87294  1.0000
  S   S437      1.0  0.89290  0.10298  0.87011  1.0000
  S   S438      1.0  0.97542  0.06324  0.87525  1.0000
  S   S439      1.0  0.93585  0.07291  0.90306  1.0000
  C   C1243     1.0  0.98633  0.03071  0.61214  1.0000
  H   H1253     1.0  0.96635  0.48327  0.94626  1.0000
  C   C1244     1.0  0.98044  0.07215  0.59078  1.0000
  Fe  Fe217     1.0  0.81021  0.29965  0.87019  1.0000
  S   S440      1.0  0.79363  0.31029  0.90031  1.0000
  S   S441      1.0  0.84197  0.29504  0.87023  1.0000
  H   H1254     1.0  0.00353  0.12614  0.74746  1.0000
  Fe  Fe218     1.0  0.77678  0.33903  0.87888  1.0000
  C   C1245     1.0  0.76691  0.35764  0.95628  1.0000
  H   H1255     1.0  0.77446  0.21323  0.87737  1.0000
  S   S442      1.0  0.79467  0.33078  0.84914  1.0000
  S   S443      1.0  0.79254  0.26392  0.86053  1.0000
  Fe  Fe219     1.0  0.81324  0.07887  0.95363  1.0000
  S   S444      1.0  0.80286  0.06109  0.92303  1.0000
  S   S445      1.0  0.84343  0.09165  0.95625  1.0000
  H   H1256     1.0  0.00427  0.27076  0.95507  1.0000
  Fe  Fe220     1.0  0.78827  0.02954  0.94393  1.0000
  Fe  Fe221     1.0  0.77772  0.08922  0.92968  1.0000
  H   H1257     1.0  0.85650  0.03048  0.89529  1.0000
  S   S446      1.0  0.80053  0.04568  0.97452  1.0000
  S   S447      1.0  0.78899  0.10873  0.95936  1.0000
  C   C1246     1.0  0.80038  0.43444  0.91450  1.0000
  C   C1247     1.0  0.79287  0.41054  0.90541  1.0000
  H   H1258     1.0  0.81458  0.43364  0.92044  1.0000
  H   H1259     1.0  0.80121  0.39153  0.90450  1.0000
  S   S448      1.0  0.76874  0.11667  0.90160  1.0000
  H   H1260     1.0  0.00297  0.15938  0.97497  1.0000
  H   H1261     1.0  0.00709  0.25735  0.98207  1.0000
  C   C1248     1.0  0.00717  0.22275  0.93666  1.0000
  S   S449      1.0  0.97335  0.30102  0.01006  1.0000
  C   C1249     1.0  0.99961  0.25441  0.96666  1.0000
  C   C1250     1.0  0.87921  0.10082  0.89415  1.0000
  C   C1251     1.0  0.88752  0.10071  0.91447  1.0000
  C   C1252     1.0  0.87637  0.09830  0.93339  1.0000
  C   C1253     1.0  0.85686  0.09572  0.93215  1.0000
  C   C1254     1.0  0.84849  0.09640  0.91183  1.0000
  C   C1255     1.0  0.85963  0.09908  0.89291  1.0000
  H   H1262     1.0  0.90251  0.10289  0.91569  1.0000
  H   H1263     1.0  0.88294  0.09813  0.94904  1.0000
  H   H1264     1.0  0.83346  0.09492  0.91060  1.0000
  H   H1265     1.0  0.85307  0.09943  0.87725  1.0000
  C   C1256     1.0  0.98529  0.11217  0.79815  1.0000
  C   C1257     1.0  0.92168  0.17851  0.84685  1.0000
  H   H1266     1.0  0.91018  0.12061  0.79750  1.0000
  H   H1267     1.0  0.01092  0.05910  0.69194  1.0000
  C   C1258     1.0  0.00130  0.15619  0.79694  1.0000
  C   C1259     1.0  0.99123  0.13585  0.80861  1.0000
  C   C1260     1.0  0.96929  0.07018  0.55362  1.0000
  H   H1268     1.0  0.88282  0.03750  0.87138  1.0000
  H   H1269     1.0  0.98799  0.13855  0.82565  1.0000
  C   C1261     1.0  0.87524  0.28968  0.93304  1.0000
  C   C1262     1.0  0.85554  0.29155  0.93400  1.0000
  C   C1263     1.0  0.84509  0.29260  0.91489  1.0000
  C   C1264     1.0  0.85430  0.29172  0.89468  1.0000
  C   C1265     1.0  0.87395  0.28901  0.89376  1.0000
  C   C1266     1.0  0.88437  0.28791  0.91284  1.0000
  H   H1270     1.0  0.84835  0.29256  0.94959  1.0000
  H   H1271     1.0  0.82996  0.29436  0.91587  1.0000
  H   H1272     1.0  0.88119  0.28803  0.87820  1.0000
  H   H1273     1.0  0.89945  0.28540  0.91183  1.0000
  C   C1267     1.0  0.96727  0.21971  0.90971  1.0000
  C   C1268     1.0  0.97205  0.20256  0.89215  1.0000
  C   C1269     1.0  0.97254  0.17354  0.89470  1.0000
  C   C1270     1.0  0.96859  0.16148  0.91496  1.0000
  C   C1271     1.0  0.96342  0.17858  0.93238  1.0000
  C   C1272     1.0  0.96260  0.20755  0.92972  1.0000
  H   H1274     1.0  0.97593  0.21177  0.87670  1.0000
  H   H1275     1.0  0.97691  0.16054  0.88128  1.0000
  H   H1276     1.0  0.96050  0.16940  0.94812  1.0000
  H   H1277     1.0  0.95925  0.22036  0.94346  1.0000
  C   C1273     1.0  0.94632  0.41776  0.91963  1.0000
  C   C1274     1.0  0.93628  0.44322  0.91796  1.0000
  C   C1275     1.0  0.94356  0.46561  0.90581  1.0000
  C   C1276     1.0  0.96104  0.46278  0.89521  1.0000
  C   C1277     1.0  0.97112  0.43740  0.89698  1.0000
  C   C1278     1.0  0.96381  0.41498  0.90905  1.0000
  H   H1278     1.0  0.92276  0.44561  0.92612  1.0000
  C   C1279     1.0  0.77459  0.29346  0.56737  1.0000
  H   H1279     1.0  0.98467  0.43500  0.88887  1.0000
  H   H1280     1.0  0.97171  0.39558  0.91019  1.0000
  C   C1280     1.0  0.98611  0.05955  0.61020  1.0000
  C   C1281     1.0  0.78965  0.45930  0.91614  1.0000
  H   H1281     1.0  0.85070  0.15390  0.93695  1.0000
  C   C1282     1.0  0.85984  0.19297  0.92416  1.0000
  C   C1283     1.0  0.84668  0.17223  0.92759  1.0000
  H   H1282     1.0  0.90346  0.35164  0.94386  1.0000
  H   H1283     1.0  0.97318  0.42595  0.58076  1.0000
  H   H1284     1.0  0.01232  0.19311  0.91114  1.0000
  N   N103      1.0  0.82900  0.17511  0.91939  1.0000
  H   H1285     1.0  0.76842  0.28813  0.94757  1.0000
  C   C1284     1.0  0.87073  0.02751  0.94730  1.0000
  N   N104      1.0  0.00517  0.41556  0.54021  1.0000
  C   C1285     1.0  0.00852  0.17314  0.94223  1.0000
  Fe  Fe222     1.0  0.77520  0.29581  0.84227  1.0000
  C   C1286     1.0  0.77058  0.37599  0.59031  1.0000
  C   C1287     1.0  0.85481  0.21670  0.91226  1.0000
  H   H1286     1.0  0.86485  0.23300  0.90959  1.0000
  H   H1287     1.0  0.86510  0.02859  0.96374  1.0000
  N   N105      1.0  0.97466  0.05647  0.57398  1.0000
  H   H1288     1.0  0.91215  0.02349  0.91919  1.0000
  C   C1288     1.0  0.89011  0.02552  0.94345  1.0000
  H   H1289     1.0  0.99471  0.39209  0.59922  1.0000
  C   C1289     1.0  0.00019  0.12900  0.76445  1.0000
  H   H1290     1.0  0.97353  0.23307  0.71820  1.0000
  C   C1290     1.0  0.01355  0.38851  0.57165  1.0000
  C   C1291     1.0  0.00587  0.15289  0.77481  1.0000
  H   H1291     1.0  0.98206  0.07721  0.54467  1.0000
  H   H1292     1.0  0.96191  0.05598  0.54276  1.0000
  H   H1293     1.0  0.91365  0.18903  0.85955  1.0000
  C   C1292     1.0  0.99160  0.02174  0.51746  1.0000
  C   C1293     1.0  0.98284  0.99622  0.51611  1.0000
  N   N106      1.0  0.88506  0.02746  0.90512  1.0000
  H   H1294     1.0  0.77655  0.29320  0.54943  1.0000
  H   H1295     1.0  0.76938  0.23371  0.81219  1.0000
  H   H1296     1.0  0.98076  0.09455  0.58921  1.0000
  C   C1294     1.0  0.98553  0.24576  0.72123  1.0000
  C   C1295     1.0  0.89706  0.02522  0.92211  1.0000
  H   H1297     1.0  0.92962  0.10055  0.80867  1.0000
  C   C1296     1.0  0.76802  0.13418  0.65472  1.0000
  C   C1297     1.0  0.97464  0.02818  0.57583  1.0000
  C   C1298     1.0  0.98065  0.01486  0.59482  1.0000
  C   C1299     1.0  0.89271  0.02742  0.88293  1.0000
  H   H1298     1.0  0.99050  0.07207  0.62359  1.0000
  H   H1299     1.0  0.78816  0.38629  0.56275  1.0000
  H   H1300     1.0  0.89617  0.00585  0.87785  1.0000
  H   H1301     1.0  0.95974  0.08831  0.55669  1.0000
  H   H1302     1.0  0.90837  0.10477  0.82419  1.0000
  C   C1300     1.0  0.76814  0.15279  0.90566  1.0000
  N   N107      1.0  0.88318  0.36135  0.92002  1.0000
  C   C1301     1.0  0.86437  0.35940  0.91638  1.0000
  C   C1302     1.0  0.89577  0.36254  0.90302  1.0000
  C   C1303     1.0  0.88969  0.36053  0.88171  1.0000
  C   C1304     1.0  0.87056  0.35789  0.87787  1.0000
  C   C1305     1.0  0.88991  0.36322  0.94219  1.0000
  H   H1303     1.0  0.91065  0.36471  0.90592  1.0000
  H   H1304     1.0  0.89978  0.36070  0.86832  1.0000
  H   H1305     1.0  0.89216  0.38520  0.94633  1.0000
  H   H1306     1.0  0.88002  0.35371  0.95411  1.0000
  H   H1307     1.0  0.99101  0.02069  0.62701  1.0000
  H   H1308     1.0  0.96347  0.18075  0.81935  1.0000
  H   H1309     1.0  0.90579  0.03939  0.88193  1.0000
  C   C1306     1.0  0.91458  0.15509  0.83705  1.0000
  H   H1310     1.0  0.83276  0.23778  0.89454  1.0000
  C   C1307     1.0  0.85858  0.02873  0.92987  1.0000
  C   C1308     1.0  0.00196  0.20411  0.97197  1.0000
  C   C1309     1.0  0.98540  0.41739  0.57220  1.0000
  C   C1310     1.0  0.93943  0.18773  0.84061  1.0000
  H   H1311     1.0  0.98534  0.09066  0.76778  1.0000
  H   H1312     1.0  0.94531  0.20545  0.84848  1.0000
  C   C1311     1.0  0.86603  0.02876  0.90874  1.0000
  C   C1312     1.0  0.00517  0.02511  0.53343  1.0000
  H   H1313     1.0  0.98012  0.44070  0.54303  1.0000
  C   C1313     1.0  0.76606  0.21079  0.91102  1.0000
  Fe  Fe223     1.0  0.77496  0.27651  0.88943  1.0000
  C   C1314     1.0  0.82396  0.19828  0.90767  1.0000
  C   C1315     1.0  0.77225  0.17074  0.88824  1.0000
  H   H1314     1.0  0.78362  0.32370  0.96961  1.0000
  H   H1315     1.0  0.95026  0.13946  0.80258  1.0000
  H   H1316     1.0  0.90088  0.14786  0.84219  1.0000
  H   H1317     1.0  0.77467  0.15458  0.65650  1.0000
  N   N108      1.0  0.92508  0.14087  0.82184  1.0000
  C   C1316     1.0  0.83678  0.21940  0.90388  1.0000
  H   H1318     1.0  0.76902  0.39729  0.59562  1.0000
  H   H1319     1.0  0.86563  0.35542  0.86150  1.0000
  H   H1320     1.0  0.77905  0.11903  0.64921  1.0000
  H   H1321     1.0  0.80265  0.16232  0.93199  1.0000
  H   H1322     1.0  0.82087  0.13610  0.93325  1.0000
  C   C1317     1.0  0.00975  0.00342  0.54808  1.0000
  H   H1323     1.0  0.77603  0.16223  0.87257  1.0000
  C   C1318     1.0  0.81517  0.15354  0.92324  1.0000
  C   C1319     1.0  0.77449  0.41125  0.89778  1.0000
  H   H1324     1.0  0.77599  0.98452  0.89889  1.0000
  H   H1325     1.0  0.81066  0.14490  0.90763  1.0000
  C   C1320     1.0  0.85777  0.35773  0.89526  1.0000
  H   H1326     1.0  0.85440  0.35836  0.92984  1.0000
  Fe  Fe224     1.0  0.77496  0.07391  0.97745  1.0000
  C   C1321     1.0  0.99066  0.26653  0.70651  1.0000
  H   H1327     1.0  0.80993  0.20056  0.90124  1.0000
  H   H1328     1.0  0.79069  0.33797  0.54987  1.0000
  H   H1329     1.0  0.01211  0.04470  0.53455  1.0000
  H   H1330     1.0  0.84292  0.35511  0.89240  1.0000
  C   C1322     1.0  0.78267  0.34247  0.56460  1.0000
  C   C1323     1.0  0.91789  0.11554  0.81251  1.0000
  C   C1324     1.0  0.00941  0.42424  0.51784  1.0000
  C   C1325     1.0  0.00451  0.17713  0.96418  1.0000
  H   H1331     1.0  0.98263  0.27026  0.69196  1.0000
  C   C1326     1.0  0.99750  0.39853  0.58257  1.0000
  C   C1327     1.0  0.98942  0.42564  0.55084  1.0000
  C   C1328     1.0  0.94214  0.15043  0.81497  1.0000
  C   C1329     1.0  0.94965  0.17385  0.82435  1.0000
  C   C1330     1.0  0.99635  0.24086  0.73963  1.0000
  C   C1331     1.0  0.98987  0.10889  0.77604  1.0000
  H   H1332     1.0  0.84351  0.03066  0.93274  1.0000
  H   H1333     1.0  0.99251  0.22425  0.75073  1.0000
  H   H1334     1.0  0.01080  0.29797  0.69882  1.0000
  H   H1335     1.0  0.89972  0.02450  0.95686  1.0000
  H   H1336     1.0  0.99863  0.20704  0.98901  1.0000
  N   N109      1.0  0.00333  0.22648  0.95824  1.0000
  H   H1337     1.0  0.98431  0.25764  0.96979  1.0000
  H   H1338     1.0  0.00741  0.24035  0.92554  1.0000
  C   C1332     1.0  0.78138  0.36981  0.57184  1.0000
  N   N110      1.0  0.77325  0.32194  0.57535  1.0000
  C   C1333     1.0  0.00997  0.19606  0.92837  1.0000
  H   H1339     1.0  0.78665  0.28220  0.57488  1.0000
  C   C1334     1.0  0.77131  0.46004  0.90842  1.0000
  S   S450      1.0  0.93812  0.99582  0.88900  1.0000
  H   H1340     1.0  0.00976  0.15229  0.93580  1.0000
  C   C1335     1.0  0.77264  0.32979  0.95846  1.0000
  C   C1336     1.0  0.77142  0.19965  0.89096  1.0000
  H   H1341     1.0  0.77353  0.37308  0.96596  1.0000
  H   H1342     1.0  0.98114  0.99238  0.59591  1.0000
  C   C1337     1.0  0.00644  0.28211  0.71035  1.0000
  H   H1343     1.0  0.00572  0.17450  0.80516  1.0000
  H   H1344     1.0  0.01464  0.10968  0.68712  1.0000
  Fe  Fe225     1.0  0.95479  0.54403  0.47806  1.0000
  S   S451      1.0  0.97493  0.56095  0.45290  1.0000
  H   H1345     1.0  0.82007  0.95561  0.34347  1.0000
  Fe  Fe226     1.0  0.92098  0.55314  0.44843  1.0000
  S   S452      1.0  0.93827  0.57097  0.42112  1.0000
  S   S453      1.0  0.88981  0.54557  0.44854  1.0000
  Fe  Fe227     1.0  0.95866  0.53621  0.42927  1.0000
  C   C1338     1.0  0.78834  0.70395  0.40427  1.0000
  Fe  Fe228     1.0  0.95283  0.59451  0.44664  1.0000
  S   S454      1.0  0.96058  0.64015  0.44440  1.0000
  S   S455      1.0  0.94029  0.51670  0.45472  1.0000
  S   S456      1.0  0.93382  0.57941  0.47361  1.0000
  H   H1346     1.0  0.79828  0.87775  0.36571  1.0000
  H   H1347     1.0  0.93249  0.96332  0.44046  1.0000
  S   S457      1.0  0.77906  0.49167  0.41208  1.0000
  C   C1339     1.0  0.79070  0.65620  0.39109  1.0000
  C   C1340     1.0  0.80920  0.94024  0.34351  1.0000
  Fe  Fe229     1.0  0.96146  0.82424  0.33508  1.0000
  S   S458      1.0  0.97502  0.80598  0.36491  1.0000
  S   S459      1.0  0.97987  0.82627  0.30434  1.0000
  Fe  Fe230     1.0  0.92312  0.82993  0.35889  1.0000
  S   S460      1.0  0.93424  0.81261  0.38995  1.0000
  S   S461      1.0  0.89231  0.84181  0.35641  1.0000
  Fe  Fe231     1.0  0.95865  0.84006  0.38224  1.0000
  S   S462      1.0  0.97000  0.86747  0.40819  1.0000
  Fe  Fe232     1.0  0.94907  0.78027  0.36957  1.0000
  S   S463      1.0  0.94389  0.73356  0.37272  1.0000
  S   S464      1.0  0.94653  0.85939  0.35228  1.0000
  S   S465      1.0  0.93659  0.79652  0.33850  1.0000
  Fe  Fe233     1.0  0.81201  0.82529  0.43898  1.0000
  S   S466      1.0  0.80163  0.81218  0.40693  1.0000
  S   S467      1.0  0.84228  0.83716  0.44259  1.0000
  Fe  Fe234     1.0  0.77434  0.81421  0.46194  1.0000
  Fe  Fe235     1.0  0.78910  0.77610  0.42490  1.0000
  H   H1348     1.0  0.82370  0.91220  0.36536  1.0000
  C   C1341     1.0  0.97965  0.76995  0.02373  1.0000
  S   S468      1.0  0.80083  0.78829  0.45692  1.0000
  S   S469      1.0  0.78679  0.85244  0.44727  1.0000
  N   N111      1.0  0.77901  0.92579  0.33184  1.0000
  S   S470      1.0  0.80119  0.51547  0.35557  1.0000
  N   N112      1.0  0.86148  0.61840  0.41944  1.0000
  C   C1342     1.0  0.00672  0.73837  0.02039  1.0000
  S   S471      1.0  0.79360  0.58139  0.34368  1.0000
  C   C1343     1.0  0.98583  0.66533  0.37405  1.0000
  Fe  Fe236     1.0  0.81347  0.55614  0.36417  1.0000
  S   S472      1.0  0.84458  0.56385  0.36236  1.0000
  S   S473      1.0  0.79632  0.56188  0.39458  1.0000
  C   C1344     1.0  0.99323  0.63285  0.40376  1.0000
  Fe  Fe237     1.0  0.77545  0.58430  0.37366  1.0000
  H   H1349     1.0  0.78500  0.65840  0.31359  1.0000
  H   H1350     1.0  0.01364  0.88930  0.31483  1.0000
  S   S474      1.0  0.80003  0.73445  0.41165  1.0000
  C   C1345     1.0  0.86297  0.77293  0.42442  1.0000
  H   H1351     1.0  0.90827  0.76233  0.38615  1.0000
  C   C1346     1.0  0.97756  0.68708  0.05461  1.0000
  C   C1347     1.0  0.76875  0.70212  0.40496  1.0000
  C   C1348     1.0  0.87374  0.62881  0.40423  1.0000
  S   S475      1.0  0.96997  0.51171  0.40080  1.0000
  C   C1349     1.0  0.90668  0.95592  0.39563  1.0000
  H   H1352     1.0  0.96819  0.88512  0.30406  1.0000
  C   C1350     1.0  0.87859  0.84202  0.38054  1.0000
  C   C1351     1.0  0.88686  0.84159  0.40089  1.0000
  C   C1352     1.0  0.87559  0.84093  0.41983  1.0000
  C   C1353     1.0  0.85596  0.84058  0.41857  1.0000
  C   C1354     1.0  0.84769  0.84203  0.39822  1.0000
  C   C1355     1.0  0.85895  0.84268  0.37928  1.0000
  H   H1353     1.0  0.90190  0.84198  0.40217  1.0000
  H   H1354     1.0  0.88211  0.84028  0.43551  1.0000
  H   H1355     1.0  0.83263  0.84297  0.39700  1.0000
  H   H1356     1.0  0.85242  0.84351  0.36362  1.0000
  H   H1357     1.0  0.77427  0.67342  0.05183  1.0000
  H   H1358     1.0  0.89280  0.94082  0.36746  1.0000
  C   C1356     1.0  0.00276  0.85230  0.27466  1.0000
  C   C1357     1.0  0.98793  0.85576  0.28985  1.0000
  C   C1358     1.0  0.97971  0.88216  0.29255  1.0000
  H   H1359     1.0  0.78752  0.63003  0.03552  1.0000
  H   H1360     1.0  0.98529  0.79611  0.18897  1.0000
  H   H1361     1.0  0.99097  0.83038  0.02539  1.0000
  Fe  Fe238     1.0  0.77566  0.83668  0.41613  1.0000
  H   H1362     1.0  0.99974  0.60279  0.42884  1.0000
  C   C1359     1.0  0.92322  0.97128  0.42740  1.0000
  C   C1360     1.0  0.89548  0.76528  0.37626  1.0000
  H   H1363     1.0  0.97225  0.78147  0.05648  1.0000
  C   C1361     1.0  0.98110  0.61535  0.37127  1.0000
  C   C1362     1.0  0.76541  0.90165  0.39548  1.0000
  H   H1364     1.0  0.76973  0.88697  0.34459  1.0000
  C   C1363     1.0  0.01160  0.90542  0.32680  1.0000
  S   S476      1.0  0.77302  0.53404  0.30188  1.0000
  H   H1365     1.0  0.99712  0.65016  0.41363  1.0000
  H   H1366     1.0  0.92504  0.88073  0.40410  1.0000
  H   H1367     1.0  0.83105  0.76227  0.38550  1.0000
  H   H1368     1.0  0.00187  0.67541  0.03539  1.0000
  C   C1364     1.0  0.85740  0.55619  0.38579  1.0000
  C   C1365     1.0  0.87662  0.56173  0.38599  1.0000
  C   C1366     1.0  0.88687  0.55769  0.40500  1.0000
  C   C1367     1.0  0.87790  0.54824  0.42392  1.0000
  C   C1368     1.0  0.85875  0.54218  0.42361  1.0000
  C   C1369     1.0  0.84854  0.54600  0.40455  1.0000
  H   H1369     1.0  0.88353  0.56955  0.37148  1.0000
  H   H1370     1.0  0.90158  0.56243  0.40508  1.0000
  H   H1371     1.0  0.85174  0.53493  0.43824  1.0000
  H   H1372     1.0  0.83376  0.54158  0.40452  1.0000
  C   C1370     1.0  0.95455  0.66620  0.42500  1.0000
  C   C1371     1.0  0.96079  0.69330  0.42794  1.0000
  C   C1372     1.0  0.95723  0.71442  0.41244  1.0000
  C   C1373     1.0  0.94743  0.70859  0.39373  1.0000
  C   C1374     1.0  0.94094  0.68155  0.39092  1.0000
  C   C1375     1.0  0.94453  0.66042  0.40641  1.0000
  H   H1373     1.0  0.96858  0.69798  0.44225  1.0000
  H   H1374     1.0  0.96236  0.73505  0.41481  1.0000
  H   H1375     1.0  0.93343  0.67681  0.37643  1.0000
  H   H1376     1.0  0.93989  0.63960  0.40378  1.0000
  C   C1376     1.0  0.96936  0.96237  0.40158  1.0000
  C   C1377     1.0  0.97344  0.94944  0.42139  1.0000
  C   C1378     1.0  0.97346  0.92033  0.42326  1.0000
  C   C1379     1.0  0.96899  0.90400  0.40553  1.0000
  C   C1380     1.0  0.96426  0.91708  0.38598  1.0000
  C   C1381     1.0  0.96461  0.94609  0.38397  1.0000
  H   H1377     1.0  0.97734  0.96180  0.43501  1.0000
  H   H1378     1.0  0.97719  0.91043  0.43846  1.0000
  H   H1379     1.0  0.96095  0.90496  0.37214  1.0000
  H   H1380     1.0  0.96148  0.95596  0.36858  1.0000
  H   H1381     1.0  0.89683  0.78471  0.36662  1.0000
  H   H1382     1.0  0.81437  0.68210  0.39661  1.0000
  H   H1383     1.0  0.89273  0.77522  0.41876  1.0000
  H   H1384     1.0  0.79925  0.63866  0.38573  1.0000
  C   C1382     1.0  0.98935  0.58361  0.40024  1.0000
  C   C1383     1.0  0.01043  0.95403  0.33555  1.0000
  N   N113      1.0  0.87829  0.76666  0.38974  1.0000
  N   N114      1.0  0.97829  0.85955  0.21093  1.0000
  C   C1384     1.0  0.97438  0.85194  0.23191  1.0000
  C   C1385     1.0  0.98164  0.83983  0.19551  1.0000
  C   C1386     1.0  0.97464  0.82395  0.23814  1.0000
  C   C1387     1.0  0.98208  0.81165  0.20117  1.0000
  C   C1388     1.0  0.97870  0.80373  0.22267  1.0000
  C   C1389     1.0  0.97834  0.88904  0.20497  1.0000
  H   H1385     1.0  0.97134  0.86758  0.24405  1.0000
  S   S477      1.0  0.01241  0.94016  0.18752  1.0000
  H   H1386     1.0  0.95527  0.69552  0.07787  1.0000
  C   C1390     1.0  0.99168  0.64942  0.08482  1.0000
  H   H1387     1.0  0.97196  0.81807  0.25496  1.0000
  C   C1391     1.0  0.78092  0.90184  0.34380  1.0000
  H   H1388     1.0  0.93310  0.91726  0.42959  1.0000
  C   C1392     1.0  0.84557  0.76924  0.41504  1.0000
  C   C1393     1.0  0.96799  0.68340  0.07432  1.0000
  Fe  Fe239     1.0  0.78234  0.52283  0.38464  1.0000
  C   C1394     1.0  0.00895  0.73788  0.04298  1.0000
  H   H1389     1.0  0.83530  0.59806  0.42352  1.0000
  C   C1395     1.0  0.87930  0.77169  0.41143  1.0000
  H   H1390     1.0  0.83357  0.63482  0.41762  1.0000
  C   C1396     1.0  0.97498  0.66429  0.08948  1.0000
  H   H1391     1.0  0.98427  0.84582  0.17875  1.0000
  H   H1392     1.0  0.90160  0.97708  0.39312  1.0000
  C   C1397     1.0  0.76882  0.95875  0.40296  1.0000
  H   H1393     1.0  0.96373  0.89759  0.20453  1.0000
  H   H1394     1.0  0.97924  0.78197  0.22734  1.0000
  C   C1398     1.0  0.77322  0.65381  0.06050  1.0000
  H   H1395     1.0  0.97989  0.92517  0.28236  1.0000
  C   C1399     1.0  0.76809  0.60359  0.08179  1.0000
  C   C1400     1.0  0.79708  0.89649  0.35585  1.0000
  H   H1396     1.0  0.90468  0.89240  0.37279  1.0000
  H   H1397     1.0  0.99869  0.66885  0.36404  1.0000
  H   H1398     1.0  0.78295  0.58508  0.05444  1.0000
  H   H1399     1.0  0.84009  0.61027  0.39670  1.0000
  C   C1401     1.0  0.92417  0.92258  0.41606  1.0000
  C   C1402     1.0  0.98633  0.90480  0.28016  1.0000
  H   H1400     1.0  0.86367  0.77765  0.44151  1.0000
  C   C1403     1.0  0.00113  0.90129  0.26491  1.0000
  H   H1401     1.0  0.83278  0.77036  0.42489  1.0000
  C   C1404     1.0  0.99637  0.75338  0.05594  1.0000
  H   H1402     1.0  0.79113  0.96432  0.32264  1.0000
  C   C1405     1.0  0.79281  0.94501  0.33172  1.0000
  H   H1403     1.0  0.97581  0.61879  0.35509  1.0000
  H   H1404     1.0  0.89527  0.74752  0.36501  1.0000
  H   H1405     1.0  0.97798  0.57079  0.37010  1.0000
  C   C1406     1.0  0.84165  0.61534  0.41409  1.0000
  N   N115      1.0  0.00743  0.89869  0.34791  1.0000
  C   C1407     1.0  0.99475  0.60603  0.41249  1.0000
  Fe  Fe240     1.0  0.77953  0.54100  0.33745  1.0000
  C   C1408     1.0  0.79923  0.68086  0.39727  1.0000
  C   C1409     1.0  0.86123  0.76376  0.38032  1.0000
  C   C1410     1.0  0.86746  0.61204  0.43987  1.0000
  C   C1411     1.0  0.88621  0.61564  0.44541  1.0000
  C   C1412     1.0  0.89259  0.63274  0.40926  1.0000
  C   C1413     1.0  0.89883  0.62606  0.43000  1.0000
  H   H1406     1.0  0.85788  0.60336  0.45187  1.0000
  H   H1407     1.0  0.89102  0.60959  0.46141  1.0000
  H   H1408     1.0  0.90233  0.64072  0.39712  1.0000
  H   H1409     1.0  0.91345  0.62871  0.43412  1.0000
  H   H1410     1.0  0.86039  0.76075  0.36301  1.0000
  H   H1411     1.0  0.99787  0.75315  0.07334  1.0000
  H   H1412     1.0  0.79110  0.94635  0.42438  1.0000
  C   C1414     1.0  0.90827  0.90832  0.38410  1.0000
  H   H1413     1.0  0.98485  0.68131  0.38688  1.0000
  C   C1415     1.0  0.84463  0.76476  0.39285  1.0000
  H   H1414     1.0  0.98517  0.89251  0.18883  1.0000
  C   C1416     1.0  0.98183  0.76936  0.04633  1.0000
  H   H1415     1.0  0.86902  0.63371  0.38801  1.0000
  N   N116      1.0  0.91788  0.94931  0.41276  1.0000
  C   C1417     1.0  0.77804  0.60419  0.06202  1.0000
  C   C1418     1.0  0.78060  0.62949  0.05135  1.0000
  C   C1419     1.0  0.77933  0.91092  0.40910  1.0000
  H   H1416     1.0  0.99045  0.56265  0.40679  1.0000
  C   C1420     1.0  0.81126  0.91589  0.35574  1.0000
  C   C1421     1.0  0.78084  0.93937  0.41309  1.0000
  C   C1422     1.0  0.91958  0.90174  0.40172  1.0000
  H   H1417     1.0  0.99661  0.51231  0.49561  1.0000
  C   C1423     1.0  0.90167  0.93553  0.38107  1.0000
  H   H1418     1.0  0.78878  0.89625  0.41685  1.0000
  H   H1419     1.0  0.00923  0.83196  0.27244  1.0000
  C   C1424     1.0  0.98236  0.58823  0.37955  1.0000
  H   H1420     1.0  0.78553  0.62384  0.28393  1.0000
  H   H1421     1.0  0.91049  0.98098  0.43516  1.0000
  H   H1422     1.0  0.99715  0.63488  0.09682  1.0000
  N   N117      1.0  0.98642  0.63724  0.38341  1.0000
  H   H1423     1.0  0.97326  0.66866  0.36384  1.0000
  C   C1425     1.0  0.99420  0.67184  0.05049  1.0000
  H   H1424     1.0  0.98638  0.90084  0.21692  1.0000
  C   C1426     1.0  0.77111  0.65437  0.39179  1.0000
  H   H1425     1.0  0.00495  0.96299  0.36929  1.0000
  N   N118      1.0  0.00128  0.65380  0.06572  1.0000
  C   C1427     1.0  0.00540  0.86953  0.35428  1.0000
  H   H1426     1.0  0.96775  0.66132  0.10493  1.0000
  C   C1428     1.0  0.00930  0.87488  0.26221  1.0000
  H   H1427     1.0  0.00323  0.91358  0.38009  1.0000
  C   C1429     1.0  0.00698  0.94693  0.35721  1.0000
  C   C1430     1.0  0.00581  0.91894  0.36319  1.0000
  S   S478      1.0  0.00927  0.93050  0.25009  1.0000
  H   H1428     1.0  0.99881  0.85770  0.34119  1.0000
  H   H1429     1.0  0.01109  0.82636  0.12341  1.0000
  H   H1430     1.0  0.99612  0.86745  0.36890  1.0000
  H   H1431     1.0  0.76871  0.87116  0.49369  1.0000
  H   H1432     1.0  0.01116  0.97567  0.33065  1.0000
  H   H1433     1.0  0.97245  0.70220  0.04280  1.0000
  H   H1434     1.0  0.82053  0.48814  0.42358  1.0000
  C   C1431     1.0  0.01298  0.93317  0.32024  1.0000
  S   S479      1.0  0.01424  0.87226  0.15194  1.0000
  C   C1432     1.0  0.77490  0.62302  0.29674  1.0000
  C   C1433     1.0  0.77464  0.64233  0.31336  1.0000
  H   H1435     1.0  0.76561  0.58373  0.08960  1.0000
  S   S480      1.0  0.96166  0.79152  0.01252  1.0000
  H   H1436     1.0  0.84205  0.48480  0.40744  1.0000
  H   H1437     1.0  0.81935  0.48598  0.39494  1.0000
  H   H1438     1.0  0.80325  0.67552  0.93784  1.0000
  H   H1439     1.0  0.83142  0.53054  0.93434  1.0000
  Fe  Fe241     1.0  0.92067  0.81098  0.94796  1.0000
  S   S481      1.0  0.93851  0.82049  0.91867  1.0000
  S   S482      1.0  0.88891  0.81372  0.94808  1.0000
  Fe  Fe242     1.0  0.95468  0.79874  0.97688  1.0000
  S   S483      1.0  0.97502  0.80698  0.94936  1.0000
  C   C1434     1.0  0.97965  0.51373  0.52480  1.0000
  Fe  Fe243     1.0  0.95637  0.84418  0.94122  1.0000
  S   S484      1.0  0.97041  0.88592  0.93596  1.0000
  Fe  Fe244     1.0  0.95525  0.78263  0.92935  1.0000
  S   S485      1.0  0.96330  0.75259  0.90266  1.0000
  S   S486      1.0  0.93721  0.83738  0.96998  1.0000
  S   S487      1.0  0.93619  0.77173  0.95742  1.0000
  Fe  Fe245     1.0  0.95861  0.59517  0.88661  1.0000
  S   S488      1.0  0.94460  0.61034  0.85628  1.0000
  S   S489      1.0  0.96340  0.62181  0.91572  1.0000
  Fe  Fe246     1.0  0.95935  0.53402  0.87306  1.0000
  S   S490      1.0  0.94496  0.54489  0.84193  1.0000
  C   C1435     1.0  0.99597  0.50728  0.51272  1.0000
  Fe  Fe247     1.0  0.96461  0.58080  0.83882  1.0000
  S   S491      1.0  0.98118  0.58445  0.80675  1.0000
  Fe  Fe248     1.0  0.92649  0.57342  0.86214  1.0000
  S   S492      1.0  0.89492  0.57662  0.85905  1.0000
  S   S493      1.0  0.98008  0.56836  0.86904  1.0000
  S   S494      1.0  0.93935  0.55975  0.89341  1.0000
  H   H1440     1.0  0.76932  0.79747  0.55763  1.0000
  C   C1436     1.0  0.01086  0.48736  0.54503  1.0000
  H   H1441     1.0  0.98981  0.65396  0.71090  1.0000
  Fe  Fe249     1.0  0.81079  0.79857  0.86422  1.0000
  S   S495      1.0  0.79489  0.81258  0.89395  1.0000
  S   S496      1.0  0.84241  0.79173  0.86373  1.0000
  H   H1442     1.0  0.85356  0.53211  0.94695  1.0000
  Fe  Fe250     1.0  0.77911  0.84141  0.87158  1.0000
  Fe  Fe251     1.0  0.77456  0.78010  0.88450  1.0000
  H   H1443     1.0  0.00884  0.83211  0.68346  1.0000
  S   S497      1.0  0.79620  0.82905  0.84203  1.0000
  S   S498      1.0  0.79150  0.76417  0.85611  1.0000
  Fe  Fe252     1.0  0.81380  0.58304  0.94391  1.0000
  S   S499      1.0  0.80171  0.56616  0.91398  1.0000
  S   S500      1.0  0.84443  0.59489  0.94391  1.0000
  H   H1444     1.0  0.85657  0.88591  0.94145  1.0000
  H   H1445     1.0  0.80644  0.63971  0.89817  1.0000
  N   N119      1.0  0.81808  0.67767  0.90754  1.0000
  C   C1437     1.0  0.98487  0.55338  0.92548  1.0000
  S   S501      1.0  0.80262  0.54913  0.96527  1.0000
  S   S502      1.0  0.78938  0.61201  0.95159  1.0000
  H   H1446     1.0  0.98311  0.68296  0.78394  1.0000
  H   H1447     1.0  0.96510  0.85542  0.00582  1.0000
  S   S503      1.0  0.95940  0.52920  0.51286  1.0000
  S   S504      1.0  0.79244  0.98225  0.94225  1.0000
  C   C1438     1.0  0.87350  0.52035  0.91216  1.0000
  N   N120      1.0  0.85445  0.51766  0.91428  1.0000
  C   C1439     1.0  0.85235  0.51021  0.87604  1.0000
  C   C1440     1.0  0.84391  0.51217  0.89664  1.0000
  H   H1448     1.0  0.98798  0.83881  0.63571  1.0000
  H   H1449     1.0  0.77280  0.71715  0.87215  1.0000
  C   C1441     1.0  0.88115  0.58401  0.88246  1.0000
  C   C1442     1.0  0.88932  0.58937  0.90235  1.0000
  C   C1443     1.0  0.87791  0.59310  0.92102  1.0000
  C   C1444     1.0  0.85830  0.59137  0.91997  1.0000
  C   C1445     1.0  0.85018  0.58670  0.89996  1.0000
  C   C1446     1.0  0.86153  0.58313  0.88130  1.0000
  H   H1450     1.0  0.90440  0.59050  0.90341  1.0000
  H   H1451     1.0  0.88433  0.59702  0.93638  1.0000
  H   H1452     1.0  0.83516  0.58595  0.89870  1.0000
  H   H1453     1.0  0.85510  0.57914  0.86596  1.0000
  C   C1447     1.0  0.99014  0.61347  0.79219  1.0000
  C   C1448     1.0  0.77348  0.87458  0.57200  1.0000
  N   N121      1.0  0.84386  0.87159  0.89033  1.0000
  C   C1449     1.0  0.99902  0.83195  0.01033  1.0000
  C   C1450     1.0  0.88241  0.51822  0.89184  1.0000
  C   C1451     1.0  0.98307  0.64045  0.79539  1.0000
  C   C1452     1.0  0.00876  0.84798  0.58689  1.0000
  H   H1454     1.0  0.82570  0.89100  0.86752  1.0000
  H   H1455     1.0  0.97281  0.64443  0.80820  1.0000
  C   C1453     1.0  0.87638  0.80525  0.92485  1.0000
  C   C1454     1.0  0.85670  0.80701  0.92576  1.0000
  C   C1455     1.0  0.84618  0.80236  0.90725  1.0000
  C   C1456     1.0  0.85524  0.79585  0.88762  1.0000
  C   C1457     1.0  0.87495  0.79344  0.88679  1.0000
  C   C1458     1.0  0.88552  0.79819  0.90535  1.0000
  H   H1456     1.0  0.84957  0.81248  0.94081  1.0000
  H   H1457     1.0  0.83111  0.80419  0.90823  1.0000
  H   H1458     1.0  0.88208  0.78849  0.87164  1.0000
  H   H1459     1.0  0.90070  0.79706  0.90443  1.0000
  C   C1459     1.0  0.96385  0.71633  0.90689  1.0000
  C   C1460     1.0  0.96719  0.69897  0.88909  1.0000
  C   C1461     1.0  0.96687  0.66999  0.89157  1.0000
  C   C1462     1.0  0.96352  0.65814  0.91200  1.0000
  C   C1463     1.0  0.96038  0.67547  0.92988  1.0000
  C   C1464     1.0  0.96039  0.70450  0.92732  1.0000
  H   H1460     1.0  0.97001  0.70800  0.87326  1.0000
  H   H1461     1.0  0.96955  0.65685  0.87774  1.0000
  H   H1462     1.0  0.95791  0.66642  0.94576  1.0000
  H   H1463     1.0  0.95794  0.71768  0.94117  1.0000
  C   C1465     1.0  0.96113  0.91632  0.92291  1.0000
  C   C1466     1.0  0.97216  0.94011  0.92145  1.0000
  C   C1467     1.0  0.96541  0.96464  0.91120  1.0000
  C   C1468     1.0  0.94751  0.96564  0.90224  1.0000
  C   C1469     1.0  0.93645  0.94189  0.90381  1.0000
  C   C1470     1.0  0.94318  0.91738  0.91406  1.0000
  H   H1464     1.0  0.98607  0.93956  0.92820  1.0000
  S   S505      1.0  0.97130  0.49054  0.88037  1.0000
  H   H1465     1.0  0.92261  0.94238  0.89690  1.0000
  H   H1466     1.0  0.93455  0.89929  0.91501  1.0000
  H   H1467     1.0  0.79089  0.88589  0.91745  1.0000
  C   C1471     1.0  0.78783  0.95662  0.92270  1.0000
  H   H1468     1.0  0.79985  0.72649  0.94137  1.0000
  H   H1469     1.0  0.99067  0.75455  0.99339  1.0000
  C   C1472     1.0  0.77937  0.96313  0.90299  1.0000
  S   S506      1.0  0.79991  0.48852  0.92809  1.0000
  C   C1473     1.0  0.78381  0.86312  0.55463  1.0000
  C   C1474     1.0  0.00345  0.85196  0.97536  1.0000
  H   H1470     1.0  0.99431  0.48500  0.92203  1.0000
  H   H1471     1.0  0.82883  0.50968  0.89842  1.0000
  C   C1475     1.0  0.78787  0.90733  0.91321  1.0000
  H   H1472     1.0  0.89740  0.52147  0.89000  1.0000
  C   C1476     1.0  0.98886  0.66224  0.78152  1.0000
  Fe  Fe253     1.0  0.77650  0.59280  0.92272  1.0000
  H   H1473     1.0  0.96465  0.56074  0.76306  1.0000
  C   C1477     1.0  0.79327  0.82417  0.53141  1.0000
  C   C1478     1.0  0.98758  0.50426  0.92731  1.0000
  C   C1479     1.0  0.82723  0.87118  0.87674  1.0000
  N   N122      1.0  0.91834  0.71617  0.89817  1.0000
  C   C1480     1.0  0.91625  0.68821  0.90074  1.0000
  C   C1481     1.0  0.92342  0.72713  0.87844  1.0000
  C   C1482     1.0  0.91945  0.67037  0.88330  1.0000
  C   C1483     1.0  0.92682  0.70990  0.86068  1.0000
  C   C1484     1.0  0.92478  0.68135  0.86316  1.0000
  C   C1485     1.0  0.91445  0.73456  0.91650  1.0000
  H   H1474     1.0  0.91246  0.67948  0.91644  1.0000
  H   H1475     1.0  0.92549  0.74925  0.87654  1.0000
  H   H1476     1.0  0.91818  0.64813  0.88552  1.0000
  H   H1477     1.0  0.93141  0.71860  0.84524  1.0000
  H   H1478     1.0  0.92764  0.66773  0.84959  1.0000
  H   H1479     1.0  0.89918  0.73976  0.91775  1.0000
  H   H1480     1.0  0.91916  0.72470  0.93188  1.0000
  H   H1481     1.0  0.92225  0.75413  0.91461  1.0000
  H   H1482     1.0  0.78676  0.80533  0.52495  1.0000
  C   C1486     1.0  0.77925  0.91383  0.89356  1.0000
  N   N123      1.0  0.98002  0.61386  0.71926  1.0000
  H   H1483     1.0  0.84387  0.50660  0.86201  1.0000
  C   C1487     1.0  0.96297  0.60326  0.75216  1.0000
  H   H1484     1.0  0.00892  0.58794  0.77265  1.0000
  S   S507      1.0  0.00589  0.94952  0.62775  1.0000
  H   H1485     1.0  0.97483  0.63851  0.69122  1.0000
  C   C1488     1.0  0.80921  0.68886  0.92536  1.0000
  H   H1486     1.0  0.88793  0.87272  0.92590  1.0000
  N   N124      1.0  0.99329  0.84992  0.99433  1.0000
  H   H1487     1.0  0.98369  0.54524  0.73091  1.0000
  C   C1489     1.0  0.84216  0.87973  0.91143  1.0000
  C   C1490     1.0  0.00180  0.65737  0.76436  1.0000
  H   H1488     1.0  0.93570  0.48503  0.90469  1.0000
  C   C1491     1.0  0.82486  0.69449  0.89133  1.0000
  C   C1492     1.0  0.82327  0.72337  0.89299  1.0000
  C   C1493     1.0  0.80732  0.71764  0.92750  1.0000
  C   C1494     1.0  0.81440  0.73494  0.91120  1.0000
  H   H1489     1.0  0.83151  0.68564  0.87697  1.0000
  H   H1490     1.0  0.82871  0.73674  0.88018  1.0000
  C   C1495     1.0  0.86115  0.86479  0.88154  1.0000
  H   H1491     1.0  0.81273  0.75726  0.91253  1.0000
  C   C1496     1.0  0.00326  0.87555  0.58265  1.0000
  Fe  Fe254     1.0  0.78940  0.53296  0.93526  1.0000
  H   H1492     1.0  0.82143  0.63717  0.92139  1.0000
  H   H1493     1.0  0.89090  0.85935  0.88728  1.0000
  C   C1497     1.0  0.96235  0.52776  0.94690  1.0000
  C   C1498     1.0  0.98741  0.97454  0.53077  1.0000
  H   H1494     1.0  0.77645  0.97100  0.00654  1.0000
  C   C1499     1.0  0.87562  0.87313  0.91576  1.0000
  H   H1495     1.0  0.95497  0.61019  0.76632  1.0000
  C   C1500     1.0  0.96900  0.62236  0.73645  1.0000
  C   C1501     1.0  0.78037  0.70624  0.74874  1.0000
  H   H1496     1.0  0.96544  0.64418  0.73853  1.0000
  C   C1502     1.0  0.97649  0.86758  0.99796  1.0000
  H   H1497     1.0  0.99321  0.57956  0.70299  1.0000
  C   C1503     1.0  0.98484  0.58642  0.71686  1.0000
  C   C1504     1.0  0.01000  0.52939  0.90447  1.0000
  H   H1498     1.0  0.76865  0.94797  0.97252  1.0000
  C   C1505     1.0  0.98614  0.63427  0.70302  1.0000
  H   H1499     1.0  0.98964  0.57317  0.91921  1.0000
  S   S508      1.0  0.00740  0.68508  0.74627  1.0000
  H   H1500     1.0  0.86247  0.85807  0.86486  1.0000
  H   H1501     1.0  0.98039  0.95501  0.52968  1.0000
  H   H1502     1.0  0.99914  0.86653  0.96278  1.0000
  C   C1506     1.0  0.99210  0.84880  0.62057  1.0000
  H   H1503     1.0  0.99890  0.62686  0.69395  1.0000
  C   C1507     1.0  0.97911  0.50715  0.54707  1.0000
  Fe  Fe255     1.0  0.77663  0.57624  0.96994  1.0000
  H   H1504     1.0  0.00757  0.80004  0.62694  1.0000
  C   C1508     1.0  0.97932  0.56684  0.73248  1.0000
  H   H1505     1.0  0.77418  0.89654  0.57543  1.0000
  C   C1509     1.0  0.96844  0.57542  0.75033  1.0000
  C   C1510     1.0  0.81946  0.64747  0.90536  1.0000
  C   C1511     1.0  0.85797  0.88034  0.92452  1.0000
  H   H1506     1.0  0.97086  0.87597  0.98247  1.0000
  H   H1507     1.0  0.98767  0.91114  0.59468  1.0000
  C   C1512     1.0  0.76690  0.65667  0.90029  1.0000
  H   H1508     1.0  0.77226  0.79963  0.73355  1.0000
  C   C1513     1.0  0.87727  0.86550  0.89409  1.0000
  H   H1509     1.0  0.76838  0.94712  0.87345  1.0000
  C   C1514     1.0  0.00921  0.63051  0.76149  1.0000
  H   H1510     1.0  0.94984  0.52721  0.95718  1.0000
  C   C1515     1.0  0.84528  0.51974  0.93565  1.0000
  H   H1511     1.0  0.78294  0.71260  0.76563  1.0000
  H   H1512     1.0  0.82850  0.88548  0.91833  1.0000
  H   H1513     1.0  0.81416  0.86831  0.88656  1.0000
  H   H1514     1.0  0.79276  0.87642  0.54488  1.0000
  H   H1515     1.0  0.82832  0.85371  0.86518  1.0000
  H   H1516     1.0  0.96177  0.57237  0.94348  1.0000
  H   H1517     1.0  0.79401  0.83919  0.51763  1.0000
  H   H1518     1.0  0.97411  0.98268  0.91013  1.0000
  N   N125      1.0  0.99392  0.52913  0.91968  1.0000
  H   H1519     1.0  0.79854  0.92331  0.94294  1.0000
  S   S509      1.0  0.77294  0.88800  0.87491  1.0000
  H   H1520     1.0  0.96657  0.51220  0.55655  1.0000
  C   C1516     1.0  0.79211  0.92861  0.92767  1.0000
  H   H1521     1.0  0.83173  0.64107  0.89503  1.0000
  C   C1517     1.0  0.87171  0.51346  0.87366  1.0000
  C   C1518     1.0  0.97167  0.50316  0.94093  1.0000
  H   H1522     1.0  0.99396  0.48900  0.57427  1.0000
  C   C1519     1.0  0.96903  0.55306  0.93924  1.0000
  H   H1523     1.0  0.00589  0.52042  0.88879  1.0000
  C   C1520     1.0  0.76992  0.77848  0.72866  1.0000
  C   C1521     1.0  0.77642  0.75619  0.74139  1.0000
  H   H1524     1.0  0.78377  0.76046  0.75617  1.0000
  C   C1522     1.0  0.77069  0.81911  0.56171  1.0000
  C   C1523     1.0  0.99196  0.88974  0.59775  1.0000
  H   H1525     1.0  0.84298  0.49873  0.94260  1.0000
  C   C1524     1.0  0.99464  0.49411  0.55717  1.0000
  N   N126      1.0  0.78214  0.83580  0.54952  1.0000
  H   H1526     1.0  0.79372  0.69811  0.74139  1.0000
  H   H1527     1.0  0.87842  0.51298  0.85771  1.0000
  C   C1525     1.0  0.00339  0.60874  0.77532  1.0000
  H   H1528     1.0  0.88183  0.52494  0.92610  1.0000
  N   N127      1.0  0.00325  0.83503  0.60573  1.0000
  H   H1529     1.0  0.97812  0.88751  0.62906  1.0000
  H   H1530     1.0  0.97987  0.88523  0.00841  1.0000
  H   H1531     1.0  0.01177  0.57774  0.62256  1.0000
  C   C1526     1.0  0.99214  0.75425  0.01079  1.0000
  H   H1532     1.0  0.00779  0.88606  0.56784  1.0000
  Fe  Fe256     1.0  0.77498  0.79594  0.83692  1.0000
  C   C1527     1.0  0.00073  0.97808  0.54696  1.0000
  N   N128      1.0  0.77299  0.72949  0.73569  1.0000
  C   C1528     1.0  0.98640  0.87639  0.61688  1.0000
  S   S510      1.0  0.01325  0.69408  0.68391  1.0000
  S   S511      1.0  0.00491  0.95075  0.56595  1.0000
  C   C1529     1.0  0.01149  0.49422  0.52282  1.0000
  H   H1533     1.0  0.77384  0.66633  0.86699  1.0000
  H   H1534     1.0  0.80772  0.81869  0.53668  1.0000
  C   C1530     1.0  0.77506  0.94184  0.88859  1.0000
  H   H1535     1.0  0.77006  0.68929  0.74974  1.0000
  C   C1531     1.0  0.00866  0.80585  0.60948  1.0000
  C   C1532     1.0  0.77030  0.70354  0.88581  1.0000
  H   H1536     1.0  0.99942  0.79223  0.60029  1.0000
  C   C1533     1.0  0.77078  0.67470  0.88288  1.0000
  C   C1534     1.0  0.76566  0.71455  0.90612  1.0000
  S   S512      1.0  0.76592  0.62080  0.89570  1.0000
  C   C1535     1.0  0.01483  0.81455  0.00721  1.0000
  C   C1536     1.0  0.76503  0.97915  0.99678  1.0000
