data_image0
_chemical_formula_structural       HFeS2FeSFeSH2FeS2HCSFeSFeSCSFeCSFeHSFeSHSFeHSFeHSFeSCS2H2CHC2HC7H4CHCH2CH4CHC6H2SC2HC2HC6NHCNCHC2HC2HSHC6HCH3SFeC4SH2SC2H3CH4C2NCHCHC2FeHCHCH3C2HNCHC2NH3C2SCH2C2H4CHC2NCHSH2SC3H4CH2NSC2HCH9CH2CHFeS2FeNFeS3CSFeSHFeS2FeCFeSCSHSC6H4C3HC6H4CHSC6H5CHCH2C3HCH3SHCSC2FeH2CH2CFeNHCH2FeHC2SHSCNCH2C3NC6H9CH2S2HCHSH4C2HC2FeCSFeH2FeSCHSC2FeCHFeCHCHFeSCS2C4H4C2H2CHCHCH4CSH2NHCHCSH2C2H2C2NC2H2C3HCSCHCHSHCH3CHS2NCHSCHCH2SC3H2C3H2CSHSHC2H6NSHCNHC4H2NC3H2NH2C3HC2HC5FeSHFeCSFeHSCSFeSCS4C2FeSFeHNCFeCSFeS2FeSCS2HCSCHSHSFeSC8H4CHC4HCHSHCHC6H5SC2H2FeH3C6H4C6H4CH2CHCH2SCHCH2FeH2CHC2NH3C2H5CHC2H2CHNC3HNHCHC2HC5FeHNSHSH2NSCHFeHCFeCHC5FeSCHSH5SHCHCNHFeS2FeSFeSHSFeS2NSHFeSFeSCSFe2SFeCSFeSCSFeCSFeHSFeSCS2HSCH3CHC6H4SHCHC2SH3C2HC3HCH3CH4C3HC3HCH2NCHCH5C7H5SC4HCHC2H2CNH3CHC3HC2HC3H4CHFeCH3C3NC2H2SCHC3H3SHCSHCHCHC5HNCH3C3H2FeC2FeS2FeCFeS3HSFeSHFeS2FeHFeSNSHSC6H8C8HC10H6SH4CH2CH2C2NC5HSH2CHCHC2H2CH5NHCH2NC3H6SCH2C2FeHSC2HCSH2FeC2HCH3C4H2SC2SFeCSFeSCFeSHCS3FeHCFeCSCHFeSHS2C2SCHC5SCH2CH3CH2C3H4C2HSHC2H2SCHC2H3C5H4FeHC2H3SNHNC2HC2HCHCNH2CH3CH3NCH5FeHNHC2HCNCHC2HC2HCHC4NCH2CHNH2SC3HC2H2C5SCNCHSCH2SHCH3FeHSFeHSHSFeSCS3HCSFeSFeSNHFeCSFeS2FeSHS2CFeSC2SFeSFeSHSC6H4C5H3C2HC8H5FeCHC3H3C6H4C6H6C6HNSH2FeCH3CH3SCNCHC3H2C4NCH2CSH2CHCH2CH4SCSHCFeCH3CHCSHCHFeNSHSCHNCH10CH2CH2CH6FeSCHFeS2FeSFeSH2FeSHCS2FeSFeS3FeCSFeHSFeSHSFeHSFeHSFeSNS2CHCHCH3C6H4CH2FeC3H3FeNHC2H4CSCH2C2HCHSC6HCSC3H5C6H4C3H2C2HNC6HCHC2HCHCH2NC2HC2H2CH4SCHC2NHC2H3C2H2CSH2SNCFeH4SH2C2HC2SC2HCHCHNH2C2FeSCFeS2FeCFeS3FeSFeSHFeS2FeCFeSCSHSC6H5CHC7H3C10H4NH3CHNC2H2FeHC3H4SCHCNH2NC2HSH2C3HNC6H8CHCHCHCS2CHCSHNHSHC2H3C2HCH3C3HCHCH3CH2CHFeCSFeS2FeSH2S3FeS2FeHSCSCHS3C3NFeCHFeCHC5HC2HSHC2HC2H3CHCH5CHCH7C3H2CH2C2H2C3HCHC2SCHC3HCH2CNH2C2HCHCHNHCH2NH2CHC3HCHCSNFeH5CFeHCHC2SCSCSHCHC4H2CH4CHFeCH2FeHSFeCH3FeSHSHSHNSFeSFeS2HFeH2FeS2FeS4C2SFeNSFeSFeS3C6H4CNHCSC2HCH2CHC6H4CH2SC2H4C6H4C6H4CFeHCH2SHCHCH6C2HC2NH4S2CHSCHC2HS2CNC6HC2H3C4H2CSC2SH3CH2SNCH2CH4C2HNSH2C3H2FeHCFeC2FeH2FeS2FeSFeS3FeS2CSCFeSFeSHSFeCSFeCSFeSCSC2HFeCSFeSHS2H2CNH4C6H5CHNC2SC2HCHSCHC2H2C3NHNCHC6H2C3H2C4H3C6H5C2HCHCHSFeH2C2HNC2H5SHSH3CH3C2H2CH2CSC3H3CH2NC4H3SFeH4C6HC4H4CSC6HCFeH2FeS2FeCFeS3HSFeSCFeS2FeCFeSHSCSC6H4CH2C3HC4H4CHC6H6SCHC3H2NSNC6H6FeHC2HCHC2HCH3SHSCHCHSH2C3HCHNC2HCHNFeC2H4NHCHCHSH3C2SH10CHC2HFeCSFeCSFeSHS4FeNHFeHSFeSFeSHS2C2HSC4SCNCH2CHC5H2CH3C3H3CHCHCHC2HNHCHCH3SH4C2H2C2H5FeH2CHCHCH2C4H2C3H2C3SCH2CNHC3SCHSCHCHC2HFeH2C2HC2NH7C2HCHCH2C4H2C3SFeNSFeCSFeSHCS2H3S2FeSFeS2HFeS2FeS2FeSCS2C2SH2SFeSFeSHFeC6H4C4HFe2HC2HCHC6H4CSHCH3C2HC6H4C6H4CH2FeC2SCH2SCHCHC2H2CNCHCNC6H8SCNH2CHCSH2CHFeHNC4HCHCH2C2HCSC5H5CHFeHNCS2CH4CHCSH3
_chemical_formula_sum              "H1152 Fe192 S384 C1152 N96"
_cell_length_a       57.478
_cell_length_b       57.5851
_cell_length_c       55.7029
_cell_angle_alpha    89.8553
_cell_angle_beta     89.9768
_cell_angle_gamma    120.036

_space_group_name_H-M_alt    "P 1"
_space_group_IT_number       1

loop_
  _space_group_symop_operation_xyz
  'x, y, z'

loop_
  _atom_site_type_symbol
  _atom_site_label
  _atom_site_symmetry_multiplicity
  _atom_site_fract_x
  _atom_site_fract_y
  _atom_site_fract_z
  _atom_site_occupancy
  H   H1        1.0  0.36023  0.45206  0.02454  1.0000
  Fe  Fe1       1.0  0.37044  0.38393  0.23774  1.0000
  S   S1        1.0  0.36986  0.35917  0.20651  1.0000
  S   S2        1.0  0.35784  0.41490  0.23780  1.0000
  Fe  Fe2       1.0  0.35546  0.32566  0.23347  1.0000
  S   S3        1.0  0.32320  0.28173  0.22909  1.0000
  Fe  Fe3       1.0  0.41235  0.37153  0.21763  1.0000
  S   S4        1.0  0.44173  0.38685  0.18565  1.0000
  H   H2        1.0  0.32293  0.28438  0.17647  1.0000
  H   H3        1.0  0.22432  0.00251  0.22054  1.0000
  Fe  Fe4       1.0  0.37615  0.03338  0.09721  1.0000
  S   S5        1.0  0.37945  0.06281  0.12553  1.0000
  S   S6        1.0  0.38578  0.04535  0.05818  1.0000
  H   H4        1.0  0.14742  0.41656  0.06082  1.0000
  C   C1        1.0  0.37481  0.33455  0.14551  1.0000
  S   S7        1.0  0.34606  0.44672  0.13240  1.0000
  Fe  Fe5       1.0  0.33746  0.03051  0.13604  1.0000
  S   S8        1.0  0.30410  0.04104  0.14032  1.0000
  Fe  Fe6       1.0  0.39556  0.04230  0.14969  1.0000
  S   S9        1.0  0.42707  0.05672  0.18010  1.0000
  C   C2        1.0  0.06114  0.00228  0.03008  1.0000
  S   S10       1.0  0.39515  0.01538  0.12025  1.0000
  Fe  Fe7       1.0  0.16363  0.19270  0.23420  1.0000
  C   C3        1.0  0.28587  0.01751  0.07957  1.0000
  S   S11       1.0  0.19620  0.23434  0.22161  1.0000
  Fe  Fe8       1.0  0.10427  0.14578  0.22900  1.0000
  H   H5        1.0  0.37906  0.34977  0.13199  1.0000
  S   S12       1.0  0.06353  0.11668  0.21107  1.0000
  Fe  Fe9       1.0  0.14919  0.13569  0.24530  1.0000
  S   S13       1.0  0.15948  0.10288  0.24493  1.0000
  H   H6        1.0  0.10565  0.09089  0.15115  1.0000
  S   S14       1.0  0.14362  0.15464  0.21222  1.0000
  Fe  Fe10      1.0  0.14607  0.46705  0.12875  1.0000
  H   H7        1.0  0.18058  0.00020  0.18408  1.0000
  S   S15       1.0  0.18034  0.45756  0.12859  1.0000
  Fe  Fe11      1.0  0.08817  0.45317  0.14494  1.0000
  H   H8        1.0  0.27513  0.48376  0.11630  1.0000
  S   S16       1.0  0.05736  0.43610  0.17588  1.0000
  Fe  Fe12      1.0  0.10595  0.46490  0.09191  1.0000
  S   S17       1.0  0.09416  0.45591  0.05283  1.0000
  C   C4        1.0  0.42566  0.01043  0.02391  1.0000
  S   S18       1.0  0.14443  0.05779  0.13966  1.0000
  S   S19       1.0  0.10412  0.43450  0.11858  1.0000
  H   H9        1.0  0.28479  0.43137  0.16138  1.0000
  H   H10       1.0  0.12237  0.42672  0.06370  1.0000
  C   C5        1.0  0.99835  0.10937  0.15758  1.0000
  H   H11       1.0  0.32142  0.07361  0.06185  1.0000
  C   C6        1.0  0.39581  0.33241  0.15595  1.0000
  C   C7        1.0  0.08339  0.04318  0.17065  1.0000
  H   H12       1.0  0.14880  0.43761  0.08524  1.0000
  C   C8        1.0  0.23280  0.47236  0.18253  1.0000
  C   C9        1.0  0.15777  0.09084  0.21580  1.0000
  C   C10       1.0  0.14819  0.06350  0.21223  1.0000
  C   C11       1.0  0.14415  0.05318  0.18890  1.0000
  C   C12       1.0  0.15043  0.07026  0.16908  1.0000
  C   C13       1.0  0.16101  0.09776  0.17269  1.0000
  C   C14       1.0  0.16460  0.10803  0.19602  1.0000
  H   H13       1.0  0.14285  0.05016  0.22753  1.0000
  H   H14       1.0  0.13551  0.03195  0.18643  1.0000
  H   H15       1.0  0.16616  0.11114  0.15743  1.0000
  H   H16       1.0  0.17296  0.12931  0.19870  1.0000
  C   C15       1.0  0.21882  0.06630  0.17051  1.0000
  H   H17       1.0  0.41547  0.47061  0.15381  1.0000
  C   C16       1.0  0.26002  0.49151  0.18419  1.0000
  H   H18       1.0  0.28006  0.02670  0.09343  1.0000
  H   H19       1.0  0.20399  0.43208  0.17191  1.0000
  C   C17       1.0  0.25116  0.02719  0.13430  1.0000
  H   H20       1.0  0.33342  0.03371  0.03769  1.0000
  H   H21       1.0  0.22575  0.45264  0.11431  1.0000
  H   H22       1.0  0.06449  0.01393  0.04630  1.0000
  H   H23       1.0  0.25915  0.04810  0.12970  1.0000
  C   C18       1.0  0.46299  0.07596  0.18260  1.0000
  H   H24       1.0  0.36068  0.28150  0.19440  1.0000
  C   C19       1.0  0.42562  0.49483  0.21949  1.0000
  C   C20       1.0  0.03986  0.11457  0.18908  1.0000
  C   C21       1.0  0.04242  0.13699  0.17681  1.0000
  C   C22       1.0  0.26146  0.49072  0.12122  1.0000
  C   C23       1.0  0.24496  0.44060  0.16746  1.0000
  C   C24       1.0  0.23342  0.47313  0.12006  1.0000
  H   H25       1.0  0.29070  0.30691  0.21877  1.0000
  H   H26       1.0  0.41984  0.45591  0.22821  1.0000
  S   S20       1.0  0.41340  0.39850  0.24720  1.0000
  C   C25       1.0  0.37175  0.01914  0.03701  1.0000
  C   C26       1.0  0.13315  0.03223  0.02426  1.0000
  H   H27       1.0  0.24391  0.00263  0.19491  1.0000
  C   C27       1.0  0.34336  0.29788  0.17041  1.0000
  C   C28       1.0  0.43490  0.03788  0.02237  1.0000
  H   H28       1.0  0.09469  0.08531  0.21656  1.0000
  C   C29       1.0  0.28796  0.26923  0.22774  1.0000
  C   C30       1.0  0.27733  0.28577  0.22220  1.0000
  C   C31       1.0  0.24924  0.27483  0.22058  1.0000
  C   C32       1.0  0.23141  0.24734  0.22478  1.0000
  C   C33       1.0  0.24209  0.23094  0.23076  1.0000
  C   C34       1.0  0.27018  0.24178  0.23201  1.0000
  N   N1        1.0  0.39072  0.31389  0.17361  1.0000
  H   H29       1.0  0.42673  0.01643  0.21760  1.0000
  C   C35       1.0  0.41865  0.47740  0.17230  1.0000
  N   N2        1.0  0.09015  0.06648  0.18259  1.0000
  C   C36       1.0  0.26892  0.01787  0.14007  1.0000
  H   H30       1.0  0.44130  0.05015  0.03845  1.0000
  C   C37       1.0  0.00448  0.41192  0.15841  1.0000
  C   C38       1.0  0.02145  0.41946  0.17842  1.0000
  H   H31       1.0  0.21710  0.08267  0.16268  1.0000
  C   C39       1.0  0.07627  0.01954  0.18337  1.0000
  C   C40       1.0  0.24524  0.04879  0.18829  1.0000
  H   H32       1.0  0.07224  0.49333  0.16426  1.0000
  S   S21       1.0  0.39783  0.33548  0.24212  1.0000
  H   H33       1.0  0.32514  0.06465  0.09225  1.0000
  C   C41       1.0  0.35155  0.42244  0.20903  1.0000
  C   C42       1.0  0.35628  0.44826  0.20425  1.0000
  C   C43       1.0  0.35470  0.45581  0.18072  1.0000
  C   C44       1.0  0.34743  0.43734  0.16203  1.0000
  C   C45       1.0  0.34156  0.41112  0.16698  1.0000
  C   C46       1.0  0.34376  0.40370  0.19048  1.0000
  H   H34       1.0  0.36228  0.46276  0.21861  1.0000
  C   C47       1.0  0.08265  0.04364  0.22041  1.0000
  H   H35       1.0  0.33561  0.39665  0.15260  1.0000
  H   H36       1.0  0.33918  0.38347  0.19427  1.0000
  H   H37       1.0  0.40112  0.42588  0.16829  1.0000
  S   S22       1.0  0.14900  0.00008  0.10885  1.0000
  Fe  Fe13      1.0  0.35993  0.49032  0.12688  1.0000
  C   C48       1.0  0.00963  0.41351  0.20146  1.0000
  C   C49       1.0  0.32676  0.06089  0.07288  1.0000
  C   C50       1.0  0.47994  0.08728  0.16271  1.0000
  C   C51       1.0  0.08945  0.06684  0.20713  1.0000
  S   S23       1.0  0.12364  0.18579  0.24840  1.0000
  H   H38       1.0  0.33194  0.31882  0.14521  1.0000
  H   H39       1.0  0.40213  0.41967  0.19949  1.0000
  S   S24       1.0  0.08667  0.48066  0.11709  1.0000
  C   C52       1.0  0.47728  0.40078  0.18287  1.0000
  C   C53       1.0  0.15386  0.45655  0.02721  1.0000
  H   H40       1.0  0.24121  0.28769  0.21588  1.0000
  H   H41       1.0  0.01308  0.41616  0.14057  1.0000
  H   H42       1.0  0.20971  0.01728  0.13022  1.0000
  C   C54       1.0  0.02190  0.13433  0.16105  1.0000
  H   H43       1.0  0.47131  0.08457  0.14498  1.0000
  H   H44       1.0  0.17700  0.03750  0.16575  1.0000
  H   H45       1.0  0.07908  0.09311  0.16689  1.0000
  H   H46       1.0  0.43299  0.43505  0.18243  1.0000
  C   C55       1.0  0.11332  0.48094  0.03140  1.0000
  C   C56       1.0  0.24361  0.07034  0.17847  1.0000
  N   N3        1.0  0.22279  0.02394  0.19015  1.0000
  C   C57       1.0  0.09715  0.09099  0.16906  1.0000
  H   H47       1.0  0.13594  0.43950  0.01996  1.0000
  C   C58       1.0  0.36486  0.29643  0.18058  1.0000
  H   H48       1.0  0.01591  0.13725  0.22868  1.0000
  C   C59       1.0  0.48947  0.41019  0.16024  1.0000
  C   C60       1.0  0.14403  0.43327  0.06587  1.0000
  Fe  Fe14      1.0  0.12860  0.01361  0.13502  1.0000
  H   H49       1.0  0.08304  0.04434  0.23988  1.0000
  C   C61       1.0  0.49351  0.40231  0.20221  1.0000
  H   H50       1.0  0.08423  0.04295  0.15120  1.0000
  C   C62       1.0  0.22308  0.00974  0.13455  1.0000
  H   H51       1.0  0.40787  0.30294  0.20251  1.0000
  H   H52       1.0  0.22868  0.20974  0.23390  1.0000
  H   H53       1.0  0.47722  0.40914  0.14510  1.0000
  C   C63       1.0  0.21527  0.48155  0.12706  1.0000
  C   C64       1.0  0.41334  0.43410  0.18482  1.0000
  H   H54       1.0  0.41630  0.34603  0.15018  1.0000
  N   N4        1.0  0.16055  0.45683  0.05082  1.0000
  C   C65       1.0  0.42112  0.46924  0.21379  1.0000
  H   H55       1.0  0.02402  0.15188  0.15190  1.0000
  C   C66       1.0  0.19612  0.04093  0.17250  1.0000
  C   C67       1.0  0.29218  0.45329  0.16112  1.0000
  N   N5        1.0  0.27163  0.45947  0.16928  1.0000
  H   H56       1.0  0.43110  0.33222  0.18627  1.0000
  H   H57       1.0  0.26467  0.05191  0.19396  1.0000
  H   H58       1.0  0.46208  0.07147  0.22110  1.0000
  C   C68       1.0  0.41304  0.31197  0.18424  1.0000
  C   C69       1.0  0.31566  0.02142  0.04836  1.0000
  S   S25       1.0  0.35357  0.01273  0.16276  1.0000
  C   C70       1.0  0.47485  0.07992  0.20551  1.0000
  H   H59       1.0  0.11277  0.10894  0.17866  1.0000
  H   H60       1.0  0.34821  0.06700  0.06970  1.0000
  C   C71       1.0  0.16940  0.47862  0.01232  1.0000
  C   C72       1.0  0.27929  0.48474  0.17730  1.0000
  H   H61       1.0  0.14137  0.05310  0.02901  1.0000
  H   H62       1.0  0.35967  0.47607  0.17714  1.0000
  H   H63       1.0  0.27813  0.22873  0.23621  1.0000
  H   H64       1.0  0.23883  0.42084  0.16037  1.0000
  C   C73       1.0  0.22515  0.44672  0.17413  1.0000
  H   H65       1.0  0.06002  0.15645  0.17970  1.0000
  C   C74       1.0  0.36809  0.47264  0.01885  1.0000
  C   C75       1.0  0.07605  0.01985  0.20840  1.0000
  N   N6        1.0  0.41750  0.46077  0.19045  1.0000
  C   C76       1.0  0.01687  0.08943  0.18477  1.0000
  H   H66       1.0  0.02242  0.41911  0.21712  1.0000
  S   S26       1.0  0.13024  0.48315  0.15740  1.0000
  H   H67       1.0  0.01461  0.07188  0.19403  1.0000
  H   H68       1.0  0.41828  0.29959  0.17266  1.0000
  S   S27       1.0  0.33380  0.00273  0.10634  1.0000
  C   C77       1.0  0.34843  0.31721  0.15290  1.0000
  C   C78       1.0  0.19834  0.01994  0.18279  1.0000
  C   C79       1.0  0.37046  0.02531  0.01285  1.0000
  H   H69       1.0  0.08053  0.48599  0.20634  1.0000
  H   H70       1.0  0.31003  0.46279  0.17302  1.0000
  H   H71       1.0  0.29861  0.46085  0.14252  1.0000
  H   H72       1.0  0.26147  0.08994  0.17681  1.0000
  C   C80       1.0  0.12408  0.01257  0.04247  1.0000
  H   H73       1.0  0.01063  0.16395  0.19873  1.0000
  H   H74       1.0  0.12513  0.01831  0.06110  1.0000
  N   N7        1.0  0.30913  0.03252  0.06696  1.0000
  S   S28       1.0  0.14813  0.49589  0.10081  1.0000
  C   C81       1.0  0.22492  0.00171  0.20066  1.0000
  C   C82       1.0  0.18286  0.47855  0.06011  1.0000
  H   H75       1.0  0.00201  0.09224  0.24480  1.0000
  C   C83       1.0  0.37403  0.49265  0.03611  1.0000
  H   H76       1.0  0.37083  0.48744  0.05498  1.0000
  H   H77       1.0  0.18836  0.47871  0.07879  1.0000
  H   H78       1.0  0.42502  0.00132  0.04116  1.0000
  H   H79       1.0  0.21761  0.47766  0.18679  1.0000
  H   H80       1.0  0.39238  0.00320  0.20847  1.0000
  H   H81       1.0  0.48458  0.39517  0.21973  1.0000
  H   H82       1.0  0.07108  0.00173  0.21839  1.0000
  H   H83       1.0  0.07146  0.00120  0.17390  1.0000
  H   H84       1.0  0.32566  0.49148  0.01078  1.0000
  C   C84       1.0  0.40705  0.99768  0.21564  1.0000
  H   H85       1.0  0.07072  0.49673  0.05996  1.0000
  H   H86       1.0  0.15477  0.20298  0.42381  1.0000
  C   C85       1.0  0.34887  0.44499  0.42620  1.0000
  H   H87       1.0  0.07228  0.46893  0.47926  1.0000
  Fe  Fe15      1.0  0.35462  0.38548  0.42589  1.0000
  S   S29       1.0  0.32598  0.38240  0.45492  1.0000
  S   S30       1.0  0.35001  0.39546  0.38756  1.0000
  Fe  Fe16      1.0  0.36288  0.40719  0.47759  1.0000
  N   N8        1.0  0.34338  0.45406  0.44695  1.0000
  Fe  Fe17      1.0  0.32732  0.34562  0.46696  1.0000
  S   S31       1.0  0.28754  0.30890  0.47859  1.0000
  S   S32       1.0  0.39104  0.41306  0.44739  1.0000
  S   S33       1.0  0.35371  0.34743  0.43636  1.0000
  C   C86       1.0  0.08133  0.48175  0.49466  1.0000
  S   S34       1.0  0.40812  0.36204  0.30922  1.0000
  Fe  Fe18      1.0  0.15327  0.09621  0.48681  1.0000
  S   S35       1.0  0.11850  0.10047  0.47419  1.0000
  H   H88       1.0  0.31220  0.27468  0.27832  1.0000
  Fe  Fe19      1.0  0.19496  0.15184  0.46402  1.0000
  S   S36       1.0  0.16253  0.15871  0.44986  1.0000
  S   S37       1.0  0.23737  0.18419  0.45341  1.0000
  Fe  Fe20      1.0  0.14332  0.14340  0.48578  1.0000
  C   C87       1.0  0.34533  0.30894  0.32811  1.0000
  Fe  Fe21      1.0  0.14160  0.11538  0.43946  1.0000
  S   S38       1.0  0.12364  0.09933  0.40294  1.0000
  C   C88       1.0  0.17301  0.22523  0.46709  1.0000
  S   S39       1.0  0.17530  0.10883  0.45127  1.0000
  H   H89       1.0  0.26213  0.29393  0.29502  1.0000
  S   S40       1.0  0.12911  0.17570  0.31801  1.0000
  C   C89       1.0  0.12477  0.12072  0.37967  1.0000
  C   C90       1.0  0.11895  0.11089  0.35610  1.0000
  C   C91       1.0  0.12046  0.12762  0.33699  1.0000
  C   C92       1.0  0.12714  0.15412  0.34145  1.0000
  C   C93       1.0  0.13259  0.16386  0.36510  1.0000
  C   C94       1.0  0.13176  0.14732  0.38412  1.0000
  H   H90       1.0  0.11343  0.09029  0.35255  1.0000
  H   H91       1.0  0.11613  0.11991  0.31886  1.0000
  H   H92       1.0  0.13780  0.18437  0.36858  1.0000
  H   H93       1.0  0.13627  0.15500  0.40219  1.0000
  C   C95       1.0  0.43582  0.36710  0.48837  1.0000
  C   C96       1.0  0.08043  0.13776  0.49052  1.0000
  C   C97       1.0  0.41696  0.48707  0.49511  1.0000
  H   H94       1.0  0.08913  0.13084  0.47710  1.0000
  C   C98       1.0  0.27404  0.27440  0.47099  1.0000
  C   C99       1.0  0.28761  0.26551  0.45608  1.0000
  C   C100      1.0  0.27616  0.23791  0.45084  1.0000
  C   C101      1.0  0.25102  0.21884  0.46036  1.0000
  C   C102      1.0  0.23738  0.22774  0.47513  1.0000
  C   C103      1.0  0.24881  0.25531  0.48038  1.0000
  H   H95       1.0  0.17405  0.21527  0.48389  1.0000
  H   H96       1.0  0.30704  0.27987  0.44877  1.0000
  H   H97       1.0  0.21829  0.21331  0.48293  1.0000
  H   H98       1.0  0.42032  0.47613  0.48108  1.0000
  C   C104      1.0  0.99860  0.44235  0.50268  1.0000
  H   H99       1.0  0.35240  0.28520  0.30249  1.0000
  S   S41       1.0  0.36188  0.37017  0.49221  1.0000
  C   C105      1.0  0.36765  0.38777  0.36597  1.0000
  C   C106      1.0  0.36457  0.39134  0.34148  1.0000
  C   C107      1.0  0.37748  0.38419  0.32394  1.0000
  C   C108      1.0  0.39360  0.37344  0.33080  1.0000
  C   C109      1.0  0.39712  0.37043  0.35530  1.0000
  C   C110      1.0  0.38417  0.37750  0.37283  1.0000
  H   H100      1.0  0.35196  0.39941  0.33601  1.0000
  H   H101      1.0  0.37487  0.38694  0.30514  1.0000
  H   H102      1.0  0.40965  0.36225  0.36078  1.0000
  H   H103      1.0  0.38692  0.37489  0.39165  1.0000
  H   H104      1.0  0.33380  0.33242  0.34984  1.0000
  C   C111      1.0  0.13913  0.20157  0.43565  1.0000
  H   H105      1.0  0.16495  0.09928  0.36710  1.0000
  C   C112      1.0  0.11249  0.18819  0.42760  1.0000
  H   H106      1.0  0.08287  0.19508  0.47780  1.0000
  H   H107      1.0  0.41328  0.43085  0.49722  1.0000
  C   C113      1.0  0.31669  0.28716  0.29411  1.0000
  C   C114      1.0  0.46262  0.37453  0.49278  1.0000
  C   C115      1.0  0.37404  0.45954  0.41515  1.0000
  H   H108      1.0  0.38919  0.01899  0.49552  1.0000
  C   C116      1.0  0.30686  0.31394  0.31988  1.0000
  H   H109      1.0  0.26873  0.27252  0.27655  1.0000
  H   H110      1.0  0.23825  0.26189  0.49210  1.0000
  H   H111      1.0  0.30252  0.42169  0.44748  1.0000
  S   S42       1.0  0.42749  0.37586  0.46095  1.0000
  H   H112      1.0  0.28535  0.30800  0.27014  1.0000
  C   C117      1.0  0.05302  0.12954  0.48962  1.0000
  S   S43       1.0  0.00754  0.12822  0.50545  1.0000
  C   C118      1.0  0.09660  0.15557  0.50833  1.0000
  C   C119      1.0  0.36251  0.47746  0.45718  1.0000
  Fe  Fe22      1.0  0.39567  0.36194  0.27083  1.0000
  H   H113      1.0  0.18038  0.24674  0.47090  1.0000
  H   H114      1.0  0.36312  0.31392  0.33864  1.0000
  C   C120      1.0  0.10235  0.01419  0.49711  1.0000
  H   H115      1.0  0.33393  0.42624  0.41815  1.0000
  H   H116      1.0  0.29484  0.32303  0.32438  1.0000
  C   C121      1.0  0.09213  0.18593  0.44279  1.0000
  Fe  Fe23      1.0  0.13164  0.16517  0.27915  1.0000
  N   N9        1.0  0.14524  0.21211  0.45832  1.0000
  H   H117      1.0  0.13021  0.21813  0.49131  1.0000
  C   C122      1.0  0.04170  0.13854  0.50691  1.0000
  H   H118      1.0  0.07132  0.17515  0.43700  1.0000
  H   H119      1.0  0.17908  0.10509  0.39631  1.0000
  Fe  Fe24      1.0  0.38793  0.37469  0.46043  1.0000
  H   H120      1.0  0.28700  0.23130  0.43950  1.0000
  C   C123      1.0  0.27814  0.29282  0.28479  1.0000
  C   C124      1.0  0.31725  0.43842  0.45889  1.0000
  S   S44       1.0  0.17208  0.17399  0.26584  1.0000
  H   H121      1.0  0.04054  0.11604  0.47563  1.0000
  S   S45       1.0  0.17684  0.13878  0.50075  1.0000
  C   C125      1.0  0.39816  0.00959  0.50591  1.0000
  N   N10       1.0  0.30076  0.29763  0.30026  1.0000
  C   C126      1.0  0.09862  0.19726  0.46563  1.0000
  H   H122      1.0  0.37839  0.45198  0.39890  1.0000
  H   H123      1.0  0.47762  0.38463  0.47893  1.0000
  C   C127      1.0  0.32894  0.31945  0.33431  1.0000
  C   C128      1.0  0.33931  0.29281  0.30781  1.0000
  C   C129      1.0  0.12544  0.21034  0.47315  1.0000
  N   N11       1.0  0.19167  0.14046  0.37529  1.0000
  C   C130      1.0  0.18695  0.14992  0.35436  1.0000
  C   C131      1.0  0.20484  0.15760  0.39385  1.0000
  C   C132      1.0  0.19455  0.17699  0.35195  1.0000
  C   C133      1.0  0.21289  0.18484  0.39201  1.0000
  C   C134      1.0  0.20751  0.19451  0.37097  1.0000
  C   C135      1.0  0.18371  0.11205  0.37736  1.0000
  H   H124      1.0  0.17663  0.13639  0.33957  1.0000
  H   H125      1.0  0.20919  0.15030  0.41028  1.0000
  H   H126      1.0  0.18983  0.18413  0.33559  1.0000
  H   H127      1.0  0.22327  0.19826  0.40688  1.0000
  H   H128      1.0  0.21337  0.21551  0.36938  1.0000
  H   H129      1.0  0.20002  0.10882  0.37060  1.0000
  H   H130      1.0  0.45915  0.44284  0.48358  1.0000
  H   H131      1.0  0.39564  0.34768  0.50273  1.0000
  H   H132      1.0  0.10263  0.02498  0.48109  1.0000
  C   C136      1.0  0.38780  0.49265  0.44648  1.0000
  H   H133      1.0  0.10762  0.17933  0.40981  1.0000
  H   H134      1.0  0.18697  0.22407  0.45396  1.0000
  S   S46       1.0  0.35276  0.34968  0.26373  1.0000
  S   S47       1.0  0.36731  0.44050  0.50323  1.0000
  H   H135      1.0  0.00229  0.30947  0.49446  1.0000
  C   C137      1.0  0.45215  0.43429  0.50129  1.0000
  H   H136      1.0  0.44467  0.21300  0.50176  1.0000
  S   S48       1.0  0.10942  0.12504  0.26137  1.0000
  H   H137      1.0  0.01869  0.44923  0.49575  1.0000
  H   H138      1.0  0.30868  0.45142  0.46325  1.0000
  H   H139      1.0  0.35848  0.48416  0.47408  1.0000
  H   H140      1.0  0.31975  0.42964  0.47584  1.0000
  C   C138      1.0  0.41646  0.35407  0.50626  1.0000
  C   C139      1.0  0.39360  0.48350  0.42540  1.0000
  H   H141      1.0  0.41329  0.49478  0.41713  1.0000
  C   C140      1.0  0.39328  0.47431  0.50873  1.0000
  C   C141      1.0  0.42627  0.42719  0.50876  1.0000
  Fe  Fe25      1.0  0.02533  0.34553  0.56887  1.0000
  C   C142      1.0  0.48262  0.23920  0.57543  1.0000
  S   S49       1.0  0.03196  0.30992  0.56250  1.0000
  Fe  Fe26      1.0  0.03908  0.40340  0.55176  1.0000
  H   H142      1.0  0.05877  0.20765  0.68839  1.0000
  H   H143      1.0  0.35819  0.00513  0.54137  1.0000
  Fe  Fe27      1.0  0.02730  0.38642  0.60462  1.0000
  S   S50       1.0  0.03838  0.40070  0.64285  1.0000
  C   C143      1.0  0.45105  0.35755  0.53345  1.0000
  H   H144      1.0  0.13557  0.02285  0.54964  1.0000
  S   S51       1.0  0.05791  0.38774  0.57835  1.0000
  C   C144      1.0  0.02432  0.19039  0.66478  1.0000
  C   C145      1.0  0.05795  0.35337  0.64128  1.0000
  Fe  Fe28      1.0  0.45106  0.08995  0.55737  1.0000
  C   C146      1.0  0.01727  0.13065  0.70027  1.0000
  H   H145      1.0  0.04861  0.07260  0.54308  1.0000
  Fe  Fe29      1.0  0.47166  0.14958  0.57260  1.0000
  C   C147      1.0  0.42248  0.39551  0.56843  1.0000
  H   H146      1.0  0.46127  0.16853  0.71450  1.0000
  C   C148      1.0  0.00101  0.22869  0.56506  1.0000
  H   H147      1.0  0.09135  0.05750  0.51149  1.0000
  Fe  Fe30      1.0  0.46371  0.10719  0.61013  1.0000
  S   S52       1.0  0.45056  0.09462  0.64847  1.0000
  C   C149      1.0  0.46872  0.42970  0.51650  1.0000
  S   S53       1.0  0.43600  0.10973  0.58316  1.0000
  S   S54       1.0  0.46683  0.35010  0.72022  1.0000
  C   C150      1.0  0.40216  0.01335  0.59932  1.0000
  C   C151      1.0  0.08148  0.05446  0.52929  1.0000
  C   C152      1.0  0.42796  0.01177  0.53745  1.0000
  C   C153      1.0  0.38560  0.00870  0.57936  1.0000
  H   H148      1.0  0.48725  0.10599  0.72976  1.0000
  H   H149      1.0  0.04917  0.16333  0.53809  1.0000
  H   H150      1.0  0.43098  0.28243  0.54347  1.0000
  H   H151      1.0  0.03217  0.13815  0.71438  1.0000
  C   C154      1.0  0.41693  0.41469  0.53104  1.0000
  C   C155      1.0  0.47111  0.10041  0.69390  1.0000
  H   H152      1.0  0.37154  0.05830  0.58639  1.0000
  H   H153      1.0  0.42535  0.25758  0.72268  1.0000
  C   C156      1.0  0.40727  0.03429  0.61493  1.0000
  H   H154      1.0  0.45076  0.09330  0.70002  1.0000
  C   C157      1.0  0.03705  0.19790  0.68716  1.0000
  H   H155      1.0  0.44208  0.02268  0.55163  1.0000
  C   C158      1.0  0.08899  0.48710  0.53737  1.0000
  H   H156      1.0  0.36611  0.03923  0.54298  1.0000
  H   H157      1.0  0.13092  0.09371  0.53875  1.0000
  H   H158      1.0  0.43387  0.38572  0.57479  1.0000
  H   H159      1.0  0.04649  0.14334  0.67163  1.0000
  C   C159      1.0  0.07687  0.47011  0.51774  1.0000
  S   S55       1.0  0.01728  0.12854  0.62734  1.0000
  H   H160      1.0  0.03110  0.19764  0.72548  1.0000
  H   H161      1.0  0.10981  0.14914  0.56879  1.0000
  N   N12       1.0  0.01964  0.32590  0.66624  1.0000
  H   H162      1.0  0.44128  0.27106  0.75122  1.0000
  C   C160      1.0  0.10390  0.12965  0.56116  1.0000
  H   H163      1.0  0.00293  0.38475  0.72504  1.0000
  C   C161      1.0  0.12083  0.01288  0.53565  1.0000
  S   S56       1.0  0.00419  0.15777  0.57131  1.0000
  H   H164      1.0  0.09798  0.17906  0.53894  1.0000
  H   H165      1.0  0.03736  0.26377  0.55290  1.0000
  C   C162      1.0  0.47670  0.10267  0.66922  1.0000
  C   C163      1.0  0.45517  0.22079  0.51910  1.0000
  H   H166      1.0  0.40122  0.37924  0.56651  1.0000
  H   H167      1.0  0.47156  0.41308  0.55017  1.0000
  C   C164      1.0  0.12160  0.02748  0.51501  1.0000
  C   C165      1.0  0.48945  0.21986  0.56850  1.0000
  N   N13       1.0  0.46720  0.28508  0.72045  1.0000
  C   C166      1.0  0.08539  0.16501  0.52532  1.0000
  C   C167      1.0  0.00620  0.12385  0.65751  1.0000
  H   H168      1.0  0.06063  0.33529  0.60829  1.0000
  H   H169      1.0  0.14461  0.13787  0.55674  1.0000
  C   C168      1.0  0.47278  0.29837  0.69896  1.0000
  C   C169      1.0  0.06968  0.08661  0.54641  1.0000
  C   C170      1.0  0.01831  0.39231  0.68872  1.0000
  H   H170      1.0  0.49487  0.28140  0.57692  1.0000
  C   C171      1.0  0.01785  0.25651  0.56113  1.0000
  S   S57       1.0  0.05611  0.43439  0.52076  1.0000
  C   C172      1.0  0.35813  0.02034  0.55359  1.0000
  H   H171      1.0  0.03891  0.40537  0.69419  1.0000
  C   C173      1.0  0.04289  0.34960  0.66216  1.0000
  H   H172      1.0  0.46628  0.35434  0.66898  1.0000
  S   S58       1.0  0.42284  0.05728  0.53096  1.0000
  H   H173      1.0  0.46310  0.23273  0.58330  1.0000
  C   C174      1.0  0.38940  0.48913  0.52678  1.0000
  H   H174      1.0  0.42036  0.03846  0.63035  1.0000
  H   H175      1.0  0.05947  0.04180  0.52661  1.0000
  H   H176      1.0  0.08590  0.47864  0.55524  1.0000
  C   C175      1.0  0.41652  0.02427  0.52427  1.0000
  H   H177      1.0  0.43544  0.29173  0.73095  1.0000
  S   S59       1.0  0.48435  0.13013  0.54425  1.0000
  S   S60       1.0  0.47606  0.08462  0.58534  1.0000
  N   N14       1.0  0.37498  0.02487  0.57480  1.0000
  C   C176      1.0  0.02533  0.13352  0.67605  1.0000
  H   H178      1.0  0.45822  0.30267  0.69071  1.0000
  S   S61       1.0  0.00951  0.36104  0.53992  1.0000
  C   C177      1.0  0.11558  0.09844  0.54396  1.0000
  H   H179      1.0  0.48101  0.26884  0.74773  1.0000
  C   C178      1.0  0.05783  0.15611  0.52488  1.0000
  H   H180      1.0  0.06152  0.11625  0.56184  1.0000
  H   H181      1.0  0.49419  0.19252  0.74728  1.0000
  S   S62       1.0  0.46452  0.18527  0.57002  1.0000
  C   C179      1.0  0.04939  0.33253  0.62476  1.0000
  C   C180      1.0  0.42406  0.34914  0.52876  1.0000
  C   C181      1.0  0.47029  0.37007  0.51539  1.0000
  H   H182      1.0  0.39658  0.40889  0.53647  1.0000
  H   H183      1.0  0.33711  0.01351  0.55908  1.0000
  C   C182      1.0  0.02155  0.19219  0.70796  1.0000
  C   C183      1.0  0.01214  0.38710  0.66424  1.0000
  C   C184      1.0  0.12345  0.12332  0.55445  1.0000
  H   H184      1.0  0.41117  0.00098  0.60249  1.0000
  H   H185      1.0  0.07566  0.37267  0.63765  1.0000
  C   C185      1.0  0.07682  0.11123  0.55714  1.0000
  S   S63       1.0  0.01060  0.40449  0.57891  1.0000
  H   H186      1.0  0.00932  0.43917  0.53902  1.0000
  S   S64       1.0  0.46064  0.35423  0.56250  1.0000
  H   H187      1.0  0.00763  0.21485  0.55981  1.0000
  C   C186      1.0  0.44101  0.27581  0.73187  1.0000
  C   C187      1.0  0.48695  0.36227  0.67446  1.0000
  H   H188      1.0  0.42379  0.41001  0.58220  1.0000
  H   H189      1.0  0.04948  0.36620  0.67459  1.0000
  H   H190      1.0  0.40907  0.33924  0.54265  1.0000
  H   H191      1.0  0.47476  0.32082  0.53110  1.0000
  H   H192      1.0  0.37122  0.47959  0.53746  1.0000
  H   H193      1.0  0.08827  0.04327  0.54092  1.0000
  N   N15       1.0  0.08900  0.08045  0.54011  1.0000
  S   S65       1.0  0.14660  0.06226  0.51288  1.0000
  H   H194      1.0  0.03644  0.19436  0.64870  1.0000
  C   C188      1.0  0.45881  0.41730  0.53875  1.0000
  N   N16       1.0  0.43294  0.40929  0.54543  1.0000
  H   H195      1.0  0.39981  0.06664  0.62247  1.0000
  C   C189      1.0  0.00969  0.27496  0.56768  1.0000
  C   C190      1.0  0.39575  0.05017  0.61049  1.0000
  C   C191      1.0  0.37974  0.04531  0.59011  1.0000
  C   C192      1.0  0.44619  0.27885  0.53561  1.0000
  H   H196      1.0  0.42223  0.23593  0.53797  1.0000
  H   H197      1.0  0.47397  0.21972  0.51914  1.0000
  N   N17       1.0  0.46083  0.24834  0.52283  1.0000
  C   C193      1.0  0.44144  0.25270  0.53248  1.0000
  C   C194      1.0  0.47085  0.30050  0.52863  1.0000
  C   C195      1.0  0.48559  0.27974  0.73088  1.0000
  H   H198      1.0  0.44254  0.20739  0.53392  1.0000
  H   H199      1.0  0.01368  0.33939  0.70040  1.0000
  N   N18       1.0  0.99690  0.17750  0.66321  1.0000
  H   H200      1.0  0.49120  0.37717  0.51897  1.0000
  H   H201      1.0  0.48875  0.43474  0.51072  1.0000
  C   C196      1.0  0.48500  0.26950  0.51575  1.0000
  C   C197      1.0  0.49180  0.10770  0.71079  1.0000
  C   C198      1.0  0.49042  0.29586  0.51866  1.0000
  H   H202      1.0  0.47655  0.15658  0.67704  1.0000
  C   C199      1.0  0.48217  0.17400  0.71238  1.0000
  C   C200      1.0  0.02592  0.30829  0.62926  1.0000
  H   H203      1.0  0.01914  0.29206  0.61645  1.0000
  C   C201      1.0  0.49316  0.36323  0.69894  1.0000
  C   C202      1.0  0.99795  0.38063  0.70622  1.0000
  C   C203      1.0  0.49071  0.16730  0.69138  1.0000
  C   C204      1.0  0.01101  0.30539  0.65006  1.0000
  C   C205      1.0  0.00319  0.32254  0.68753  1.0000
  Fe  Fe31      1.0  0.47677  0.34728  0.75896  1.0000
  S   S66       1.0  0.13103  0.16704  0.50916  1.0000
  H   H204      1.0  0.99817  0.30371  0.69721  1.0000
  Fe  Fe32      1.0  0.37310  0.45392  0.88196  1.0000
  C   C206      1.0  0.30722  0.45921  0.98510  1.0000
  S   S67       1.0  0.39317  0.44163  0.85251  1.0000
  Fe  Fe33      1.0  0.32462  0.46250  0.89549  1.0000
  H   H205      1.0  0.48802  0.19086  0.80499  1.0000
  S   S68       1.0  0.28139  0.45259  0.88843  1.0000
  C   C207      1.0  0.03709  0.46198  0.86072  1.0000
  S   S69       1.0  0.39719  0.05198  0.90457  1.0000
  Fe  Fe34      1.0  0.36274  0.46405  0.93398  1.0000
  S   S70       1.0  0.36269  0.45321  0.97301  1.0000
  C   C208      1.0  0.26866  0.47493  0.89226  1.0000
  S   S71       1.0  0.33710  0.43249  0.90680  1.0000
  S   S72       1.0  0.35759  0.48062  0.86804  1.0000
  S   S73       1.0  0.03518  0.17682  0.82621  1.0000
  S   S74       1.0  0.44563  0.08559  0.80052  1.0000
  C   C209      1.0  0.02454  0.32581  0.83519  1.0000
  C   C210      1.0  0.21435  0.06729  0.95406  1.0000
  Fe  Fe35      1.0  0.04937  0.15223  0.80597  1.0000
  S   S75       1.0  0.08361  0.14893  0.82406  1.0000
  Fe  Fe36      1.0  0.03025  0.19197  0.79038  1.0000
  H   H206      1.0  0.40272  0.04502  0.95735  1.0000
  N   N19       1.0  0.45596  0.03882  0.84079  1.0000
  C   C211      1.0  0.06167  0.35091  0.80811  1.0000
  Fe  Fe37      1.0  0.16717  0.02767  0.89811  1.0000
  C   C212      1.0  0.19191  0.02818  0.98079  1.0000
  S   S76       1.0  0.20991  0.03715  0.88954  1.0000
  Fe  Fe38      1.0  0.12231  0.04176  0.88653  1.0000
  S   S77       1.0  0.09824  0.01846  0.91869  1.0000
  S   S78       1.0  0.10098  0.05247  0.85715  1.0000
  Fe  Fe39      1.0  0.13711  0.03597  0.93881  1.0000
  S   S79       1.0  0.14087  0.04967  0.97734  1.0000
  C   C213      1.0  0.13865  0.14359  0.80189  1.0000
  S   S80       1.0  0.09830  0.44615  0.90029  1.0000
  S   S81       1.0  0.16109  0.06246  0.90775  1.0000
  H   H207      1.0  0.26936  0.40775  0.96287  1.0000
  C   C214      1.0  0.13947  0.10285  0.81024  1.0000
  S   S82       1.0  0.44378  0.31732  0.78304  1.0000
  C   C215      1.0  0.22159  0.02895  0.95076  1.0000
  H   H208      1.0  0.48221  0.06897  0.86571  1.0000
  S   S83       1.0  0.04335  0.41476  0.79852  1.0000
  H   H209      1.0  0.47454  0.42430  0.86481  1.0000
  S   S84       1.0  0.46544  0.26253  0.79794  1.0000
  Fe  Fe40      1.0  0.46093  0.35023  0.81095  1.0000
  S   S85       1.0  0.43885  0.36038  0.84010  1.0000
  C   C216      1.0  0.00532  0.28154  0.78467  1.0000
  C   C217      1.0  0.49561  0.21167  0.80021  1.0000
  C   C218      1.0  0.08383  0.43613  0.87181  1.0000
  C   C219      1.0  0.09820  0.44928  0.85112  1.0000
  C   C220      1.0  0.08580  0.44203  0.82859  1.0000
  C   C221      1.0  0.05891  0.42176  0.82672  1.0000
  C   C222      1.0  0.04465  0.40830  0.84738  1.0000
  C   C223      1.0  0.05719  0.41530  0.86987  1.0000
  H   H210      1.0  0.11890  0.46491  0.85240  1.0000
  H   H211      1.0  0.09695  0.45243  0.81265  1.0000
  H   H212      1.0  0.02383  0.39301  0.84623  1.0000
  H   H213      1.0  0.04600  0.40512  0.88588  1.0000
  C   C224      1.0  0.13098  0.02490  0.99999  1.0000
  H   H214      1.0  0.42036  0.00520  0.79180  1.0000
  C   C225      1.0  0.16760  0.10081  0.84255  1.0000
  C   C226      1.0  0.01701  0.24605  0.78749  1.0000
  C   C227      1.0  0.06514  0.99980  0.98715  1.0000
  C   C228      1.0  0.41315  0.00160  0.85244  1.0000
  H   H215      1.0  0.05968  0.29408  0.82764  1.0000
  C   C229      1.0  0.41538  0.00640  0.98160  1.0000
  H   H216      1.0  0.00971  0.30096  0.77796  1.0000
  S   S86       1.0  0.48825  0.33542  0.82477  1.0000
  H   H217      1.0  0.45750  0.20975  0.80590  1.0000
  C   C230      1.0  0.37205  0.47909  0.99430  1.0000
  H   H218      1.0  0.11407  0.10628  0.78351  1.0000
  C   C231      1.0  0.08402  0.12044  0.83633  1.0000
  C   C232      1.0  0.10198  0.12419  0.85513  1.0000
  C   C233      1.0  0.10613  0.10315  0.86292  1.0000
  C   C234      1.0  0.09280  0.07815  0.85158  1.0000
  C   C235      1.0  0.07420  0.07414  0.83331  1.0000
  C   C236      1.0  0.06961  0.09500  0.82590  1.0000
  H   H219      1.0  0.11333  0.14378  0.86330  1.0000
  H   H220      1.0  0.12047  0.10667  0.87700  1.0000
  H   H221      1.0  0.06384  0.05497  0.82428  1.0000
  H   H222      1.0  0.05602  0.09181  0.81121  1.0000
  H   H223      1.0  0.46403  0.04415  0.80319  1.0000
  S   S87       1.0  0.14540  0.00288  0.93031  1.0000
  C   C237      1.0  0.25092  0.02539  0.89064  1.0000
  C   C238      1.0  0.01647  0.28374  0.85368  1.0000
  H   H224      1.0  0.18152  0.15202  0.84723  1.0000
  H   H225      1.0  0.30483  0.42158  0.95667  1.0000
  Fe  Fe41      1.0  0.00082  0.38057  0.79639  1.0000
  H   H226      1.0  0.26395  0.04656  0.88709  1.0000
  H   H227      1.0  0.07309  0.36817  0.79650  1.0000
  H   H228      1.0  0.22883  0.44576  0.88051  1.0000
  C   C239      1.0  0.40573  0.41882  0.84962  1.0000
  C   C240      1.0  0.41739  0.41775  0.82766  1.0000
  C   C241      1.0  0.42746  0.40001  0.82431  1.0000
  C   C242      1.0  0.42600  0.38294  0.84293  1.0000
  C   C243      1.0  0.41457  0.38418  0.86496  1.0000
  C   C244      1.0  0.40454  0.40195  0.86832  1.0000
  H   H229      1.0  0.41840  0.43056  0.81299  1.0000
  H   H230      1.0  0.43605  0.39936  0.80722  1.0000
  H   H231      1.0  0.41331  0.37116  0.87955  1.0000
  H   H232      1.0  0.39566  0.40239  0.88532  1.0000
  C   C245      1.0  0.40953  0.06307  0.87552  1.0000
  C   C246      1.0  0.39440  0.04932  0.85544  1.0000
  C   C247      1.0  0.40530  0.05708  0.83237  1.0000
  C   C248      1.0  0.43140  0.07861  0.82931  1.0000
  C   C249      1.0  0.44621  0.09302  0.84934  1.0000
  C   C250      1.0  0.43529  0.08524  0.87245  1.0000
  H   H233      1.0  0.37428  0.03277  0.85757  1.0000
  H   H234      1.0  0.39364  0.04608  0.81690  1.0000
  H   H235      1.0  0.46609  0.11002  0.84710  1.0000
  H   H236      1.0  0.44693  0.09620  0.88793  1.0000
  C   C251      1.0  0.43415  0.04908  0.00026  1.0000
  H   H237      1.0  0.13024  0.15421  0.79242  1.0000
  H   H238      1.0  0.43871  0.06613  0.95539  1.0000
  C   C252      1.0  0.12954  0.11665  0.79692  1.0000
  H   H239      1.0  0.18274  0.03798  0.99024  1.0000
  C   C253      1.0  0.28228  0.46444  0.95375  1.0000
  H   H240      1.0  0.09161  0.45607  0.00126  1.0000
  H   H241      1.0  0.15955  0.09837  0.86110  1.0000
  S   S88       1.0  0.00824  0.11658  0.80140  1.0000
  C   C254      1.0  0.24161  0.46609  0.88674  1.0000
  H   H242      1.0  0.19724  0.07046  0.95840  1.0000
  C   C255      1.0  0.42530  0.00996  0.81060  1.0000
  H   H243      1.0  0.01695  0.09253  0.84827  1.0000
  H   H244      1.0  0.21027  0.47646  0.88399  1.0000
  Fe  Fe42      1.0  0.49008  0.11378  0.79856  1.0000
  H   H245      1.0  0.48663  0.07922  0.83513  1.0000
  H   H246      1.0  0.26983  0.45673  0.93789  1.0000
  C   C256      1.0  0.12263  0.49527  0.98951  1.0000
  H   H247      1.0  0.23575  0.03930  0.93632  1.0000
  C   C257      1.0  0.06918  0.33146  0.81088  1.0000
  C   C258      1.0  0.48787  0.24969  0.79544  1.0000
  N   N20       1.0  0.20887  0.04068  0.96187  1.0000
  H   H248      1.0  0.13139  0.08162  0.80697  1.0000
  H   H249      1.0  0.01770  0.26595  0.84777  1.0000
  H   H250      1.0  0.44228  0.02962  0.87707  1.0000
  C   C259      1.0  0.22296  0.01491  0.89226  1.0000
  C   C260      1.0  0.16723  0.14208  0.83285  1.0000
  H   H251      1.0  0.23276  0.08306  0.96295  1.0000
  H   H252      1.0  0.16363  0.47863  0.99374  1.0000
  H   H253      1.0  0.03923  0.28246  0.76691  1.0000
  H   H254      1.0  0.16420  0.17717  0.82433  1.0000
  H   H255      1.0  0.31410  0.49355  0.84595  1.0000
  C   C261      1.0  0.18591  0.00247  0.98801  1.0000
  H   H256      1.0  0.35994  0.01016  0.97681  1.0000
  C   C262      1.0  0.15764  0.15645  0.81993  1.0000
  C   C263      1.0  0.05401  0.30937  0.82590  1.0000
  H   H257      1.0  0.16064  0.08035  0.83540  1.0000
  H   H258      1.0  0.18991  0.11159  0.84314  1.0000
  C   C264      1.0  0.48204  0.06199  0.84710  1.0000
  H   H259      1.0  0.05157  0.47681  0.80173  1.0000
  N   N21       1.0  0.03185  0.30668  0.83763  1.0000
  C   C265      1.0  0.43793  0.02392  0.85838  1.0000
  C   C266      1.0  0.31329  0.48400  0.99480  1.0000
  C   C267      1.0  0.00062  0.10352  0.87809  1.0000
  H   H260      1.0  0.44030  0.07021  0.99945  1.0000
  N   N22       1.0  0.42463  0.03338  0.98022  1.0000
  H   H261      1.0  0.28379  0.01713  0.89221  1.0000
  C   C268      1.0  0.12059  0.99790  0.99410  1.0000
  H   H262      1.0  0.21716  0.06945  0.93423  1.0000
  C   C269      1.0  0.28725  0.42453  0.95413  1.0000
  C   C270      1.0  0.10764  0.47555  0.00687  1.0000
  H   H263      1.0  0.08647  0.33330  0.80132  1.0000
  C   C271      1.0  0.49466  0.43582  0.85736  1.0000
  C   C272      1.0  0.45002  0.03195  0.81717  1.0000
  C   C273      1.0  0.26227  0.00875  0.89360  1.0000
  C   C274      1.0  0.42211  0.04512  0.95768  1.0000
  C   C275      1.0  0.06839  0.01500  0.00775  1.0000
  Fe  Fe43      1.0  0.47453  0.30592  0.79443  1.0000
  H   H264      1.0  0.02125  0.44767  0.87239  1.0000
  N   N23       1.0  0.29266  0.45017  0.96439  1.0000
  S   S89       1.0  0.34806  0.49219  0.92407  1.0000
  H   H265      1.0  0.01473  0.12485  0.87623  1.0000
  S   S90       1.0  0.03956  0.23430  0.78052  1.0000
  H   H266      1.0  0.28370  0.42391  0.93443  1.0000
  H   H267      1.0  0.37757  0.04589  0.00757  1.0000
  N   N24       1.0  0.15814  0.11563  0.82790  1.0000
  S   S91       1.0  0.04823  0.17068  0.77004  1.0000
  C   C276      1.0  0.23097  0.48343  0.88882  1.0000
  H   H268      1.0  0.03311  0.36293  0.81800  1.0000
  Fe  Fe44      1.0  0.36261  0.00969  0.90567  1.0000
  H   H269      1.0  0.31471  0.44746  0.99397  1.0000
  C   C277      1.0  0.36032  0.00506  0.99540  1.0000
  Fe  Fe45      1.0  0.13279  0.48847  0.90185  1.0000
  C   C278      1.0  0.03921  0.34806  0.82028  1.0000
  H   H270      1.0  0.01457  0.44540  0.82814  1.0000
  C   C279      1.0  0.28787  0.48930  0.96295  1.0000
  C   C280      1.0  0.02207  0.27103  0.77849  1.0000
  C   C281      1.0  0.06167  0.48114  0.87036  1.0000
  C   C282      1.0  0.03331  0.46074  0.83591  1.0000
  C   C283      1.0  0.00167  0.08537  0.86222  1.0000
  Fe  Fe46      1.0  0.00555  0.13652  0.76744  1.0000
  S   S92       1.0  0.13056  0.00917  0.87434  1.0000
  C   C284      1.0  0.47833  0.22249  0.80078  1.0000
  H   H271      1.0  0.07196  0.01008  0.97005  1.0000
  S   S93       1.0  0.39924  0.48346  0.91022  1.0000
  H   H272      1.0  0.06512  0.48185  0.88957  1.0000
  H   H273      1.0  0.07755  0.03664  0.00648  1.0000
  H   H274      1.0  0.11804  0.49099  0.97063  1.0000
  H   H275      1.0  0.00687  0.32360  0.84437  1.0000
  H   H276      1.0  0.48496  0.41195  0.82536  1.0000
  S   S94       1.0  0.49202  0.38076  0.78593  1.0000
  H   H277      1.0  0.02419  0.28907  0.87229  1.0000
  C   C285      1.0  0.21618  0.00330  0.95753  1.0000
  H   H278      1.0  0.42262  0.03368  0.94184  1.0000
  C   C286      1.0  0.05441  0.47852  0.82103  1.0000
  N   N25       1.0  0.07860  0.49700  0.83064  1.0000
  H   H279      1.0  0.29432  0.79055  0.16668  1.0000
  Fe  Fe47      1.0  0.37213  0.88062  0.23705  1.0000
  S   S95       1.0  0.37597  0.85892  0.20541  1.0000
  S   S96       1.0  0.35730  0.91003  0.23639  1.0000
  Fe  Fe48      1.0  0.35728  0.82266  0.22953  1.0000
  S   S97       1.0  0.32318  0.78203  0.21659  1.0000
  Fe  Fe49      1.0  0.41666  0.86973  0.22055  1.0000
  S   S98       1.0  0.45065  0.89110  0.19241  1.0000
  H   H280      1.0  0.13741  0.57473  0.07591  1.0000
  S   S99       1.0  0.41331  0.89350  0.25113  1.0000
  Fe  Fe50      1.0  0.38025  0.53279  0.08875  1.0000
  S   S100      1.0  0.38186  0.56361  0.11454  1.0000
  S   S101      1.0  0.39201  0.54496  0.05006  1.0000
  N   N26       1.0  0.10772  0.54879  0.02239  1.0000
  S   S102      1.0  0.35964  0.51765  0.15538  1.0000
  H   H281      1.0  0.01133  0.90424  0.14385  1.0000
  Fe  Fe51      1.0  0.34106  0.53080  0.12683  1.0000
  S   S103      1.0  0.30664  0.53873  0.13484  1.0000
  Fe  Fe52      1.0  0.40051  0.54747  0.14060  1.0000
  S   S104      1.0  0.43462  0.57407  0.16674  1.0000
  C   C287      1.0  0.41538  0.96041  0.20828  1.0000
  S   S105      1.0  0.40169  0.51903  0.11374  1.0000
  Fe  Fe53      1.0  0.16200  0.69188  0.23173  1.0000
  Fe  Fe54      1.0  0.12898  0.50936  0.12814  1.0000
  S   S106      1.0  0.19734  0.73514  0.23117  1.0000
  Fe  Fe55      1.0  0.10471  0.64682  0.21515  1.0000
  C   C288      1.0  0.09007  0.52568  0.21770  1.0000
  S   S107      1.0  0.07385  0.63194  0.18424  1.0000
  Fe  Fe56      1.0  0.14632  0.63296  0.23291  1.0000
  S   S108      1.0  0.16138  0.60374  0.23164  1.0000
  C   C289      1.0  0.23839  0.78970  0.18776  1.0000
  S   S109      1.0  0.14733  0.65992  0.20333  1.0000
  Fe  Fe57      1.0  0.14345  0.96999  0.13707  1.0000
  C   C290      1.0  0.02097  0.60772  0.20188  1.0000
  S   S110      1.0  0.17725  0.96128  0.14612  1.0000
  Fe  Fe58      1.0  0.08456  0.95718  0.14914  1.0000
  H   H282      1.0  0.10449  0.59640  0.19116  1.0000
  S   S111      1.0  0.05158  0.94178  0.17837  1.0000
  Fe  Fe59      1.0  0.10706  0.97019  0.09759  1.0000
  S   S112      1.0  0.10346  0.61804  0.24328  1.0000
  C   C291      1.0  0.25352  0.52563  0.13579  1.0000
  S   S113      1.0  0.14003  0.55263  0.12864  1.0000
  S   S114      1.0  0.10205  0.93851  0.12448  1.0000
  H   H283      1.0  0.21662  0.77728  0.18789  1.0000
  S   S115      1.0  0.33934  0.94342  0.13347  1.0000
  C   C292      1.0  0.21235  0.98291  0.14145  1.0000
  H   H284      1.0  0.36289  0.98743  0.06236  1.0000
  H   H285      1.0  0.31144  0.85651  0.22369  1.0000
  H   H286      1.0  0.21183  0.51493  0.13987  1.0000
  C   C293      1.0  0.11271  0.98546  0.03645  1.0000
  H   H287      1.0  0.16471  0.54549  0.02675  1.0000
  C   C294      1.0  0.15914  0.59101  0.20267  1.0000
  C   C295      1.0  0.15606  0.56552  0.19969  1.0000
  C   C296      1.0  0.15092  0.55383  0.17685  1.0000
  C   C297      1.0  0.14921  0.56774  0.15694  1.0000
  C   C298      1.0  0.15365  0.59375  0.15978  1.0000
  C   C299      1.0  0.15861  0.60535  0.18262  1.0000
  H   H288      1.0  0.15670  0.55441  0.21513  1.0000
  H   H289      1.0  0.14797  0.53398  0.17479  1.0000
  H   H290      1.0  0.15279  0.60480  0.14439  1.0000
  H   H291      1.0  0.16204  0.62539  0.18459  1.0000
  S   S116      1.0  0.33857  0.50133  0.09937  1.0000
  H   H292      1.0  0.26479  0.95687  0.05351  1.0000
  C   C300      1.0  0.23014  0.97344  0.14661  1.0000
  H   H293      1.0  0.09768  0.58500  0.16093  1.0000
  C   C301      1.0  0.41857  0.61143  0.06212  1.0000
  C   C302      1.0  0.27692  0.97823  0.05695  1.0000
  S   S117      1.0  0.11954  0.68173  0.24108  1.0000
  H   H294      1.0  0.22210  0.95269  0.15185  1.0000
  H   H295      1.0  0.39743  0.59703  0.06728  1.0000
  H   H296      1.0  0.42345  0.51608  0.16309  1.0000
  C   C303      1.0  0.46736  0.57937  0.17372  1.0000
  C   C304      1.0  0.25107  0.81325  0.20134  1.0000
  H   H297      1.0  0.07798  0.53731  0.15179  1.0000
  C   C305      1.0  0.03791  0.61445  0.18185  1.0000
  C   C306      1.0  0.08802  0.52399  0.02991  1.0000
  C   C307      1.0  0.43994  0.62102  0.10164  1.0000
  H   H298      1.0  0.42207  0.92749  0.20000  1.0000
  C   C308      1.0  0.28195  0.79711  0.17584  1.0000
  H   H299      1.0  0.03882  0.61234  0.14325  1.0000
  H   H300      1.0  0.47333  0.60696  0.20235  1.0000
  H   H301      1.0  0.30036  0.50014  0.17760  1.0000
  C   C309      1.0  0.38428  0.51932  0.02891  1.0000
  H   H302      1.0  0.42889  0.63105  0.10644  1.0000
  H   H303      1.0  0.09401  0.52279  0.23617  1.0000
  H   H304      1.0  0.48096  0.86872  0.13535  1.0000
  H   H305      1.0  0.09866  0.56608  0.22337  1.0000
  C   C310      1.0  0.42306  0.50308  0.17739  1.0000
  C   C311      1.0  0.28843  0.76747  0.22388  1.0000
  C   C312      1.0  0.27867  0.78091  0.23788  1.0000
  H   H306      1.0  0.13836  0.51089  0.05711  1.0000
  C   C313      1.0  0.23216  0.74553  0.23030  1.0000
  C   C314      1.0  0.24193  0.73147  0.21722  1.0000
  C   C315      1.0  0.26988  0.74243  0.21400  1.0000
  H   H307      1.0  0.24439  0.76280  0.16523  1.0000
  C   C316      1.0  0.25398  0.78154  0.17507  1.0000
  H   H308      1.0  0.22793  0.71276  0.20866  1.0000
  H   H309      1.0  0.27717  0.73186  0.20309  1.0000
  N   N27       1.0  0.43693  0.60978  0.07942  1.0000
  C   C317      1.0  0.10338  0.53526  0.07078  1.0000
  H   H310      1.0  0.01405  0.92761  0.21733  1.0000
  C   C318      1.0  0.01628  0.91833  0.18022  1.0000
  H   H311      1.0  0.20332  0.51872  0.01057  1.0000
  H   H312      1.0  0.04626  0.96474  0.04897  1.0000
  H   H313      1.0  0.26117  0.54587  0.14227  1.0000
  H   H314      1.0  0.41672  0.93064  0.15612  1.0000
  H   H315      1.0  0.49023  0.92563  0.15787  1.0000
  C   C319      1.0  0.29991  0.99404  0.04325  1.0000
  C   C320      1.0  0.34941  0.91726  0.20798  1.0000
  C   C321      1.0  0.34422  0.93840  0.20550  1.0000
  C   C322      1.0  0.34013  0.94596  0.18267  1.0000
  C   C323      1.0  0.34105  0.93229  0.16232  1.0000
  C   C324      1.0  0.34470  0.91018  0.16493  1.0000
  C   C325      1.0  0.34900  0.90277  0.18773  1.0000
  H   H316      1.0  0.34389  0.94930  0.22117  1.0000
  H   H317      1.0  0.33612  0.96224  0.18089  1.0000
  H   H318      1.0  0.34510  0.89936  0.14923  1.0000
  H   H319      1.0  0.35224  0.88606  0.18947  1.0000
  H   H320      1.0  0.23878  0.81912  0.21153  1.0000
  S   S118      1.0  0.12573  0.98557  0.16422  1.0000
  C   C326      1.0  0.47918  0.56694  0.16105  1.0000
  C   C327      1.0  0.46682  0.59370  0.09048  1.0000
  C   C328      1.0  0.45669  0.61906  0.11876  1.0000
  C   C329      1.0  0.41821  0.94282  0.19285  1.0000
  H   H321      1.0  0.27930  0.85037  0.23336  1.0000
  C   C330      1.0  0.99777  0.59368  0.15597  1.0000
  H   H322      1.0  0.48330  0.60382  0.12621  1.0000
  C   C331      1.0  0.14889  0.52592  0.02112  1.0000
  C   C332      1.0  0.12329  0.56053  0.06303  1.0000
  H   H323      1.0  0.48931  0.88447  0.22250  1.0000
  H   H324      1.0  0.42159  0.63203  0.06145  1.0000
  C   C333      1.0  0.19859  0.50114  0.04583  1.0000
  N   N28       1.0  0.08842  0.55415  0.18688  1.0000
  H   H325      1.0  0.41682  0.95829  0.22749  1.0000
  H   H326      1.0  0.21583  0.51859  0.05347  1.0000
  H   H327      1.0  0.30577  0.98514  0.02900  1.0000
  C   C334      1.0  0.08267  0.50514  0.20100  1.0000
  H   H328      1.0  0.42993  0.53171  0.20521  1.0000
  C   C335      1.0  0.00137  0.90245  0.16080  1.0000
  C   C336      1.0  0.26961  0.99007  0.07507  1.0000
  C   C337      1.0  0.05072  0.97463  0.03157  1.0000
  H   H329      1.0  0.26620  0.51187  0.18965  1.0000
  C   C338      1.0  0.25073  0.77007  0.24092  1.0000
  C   C339      1.0  0.41527  0.94464  0.16818  1.0000
  H   H330      1.0  0.44685  0.58631  0.05647  1.0000
  C   C340      1.0  0.35254  0.97223  0.02613  1.0000
  C   C341      1.0  0.40997  0.96418  0.15920  1.0000
  C   C342      1.0  0.44987  0.59598  0.07381  1.0000
  H   H331      1.0  0.20824  0.98196  0.19450  1.0000
  H   H332      1.0  0.29418  0.86986  0.20639  1.0000
  H   H333      1.0  0.07460  0.50928  0.01702  1.0000
  H   H334      1.0  0.25169  0.97810  0.08582  1.0000
  C   C343      1.0  0.47036  0.60551  0.11302  1.0000
  H   H335      1.0  0.46832  0.55334  0.14656  1.0000
  Fe  Fe60      1.0  0.35281  0.98728  0.13205  1.0000
  C   C344      1.0  0.27169  0.51694  0.12964  1.0000
  H   H336      1.0  0.24342  0.78115  0.25103  1.0000
  H   H337      1.0  0.24360  0.68733  0.24242  1.0000
  H   H338      1.0  0.29260  0.80010  0.24569  1.0000
  C   C345      1.0  0.08561  0.51681  0.05419  1.0000
  C   C346      1.0  0.25825  0.99071  0.14564  1.0000
  C   C347      1.0  0.00279  0.91557  0.20213  1.0000
  N   N29       1.0  0.27852  0.82801  0.20251  1.0000
  C   C348      1.0  0.29396  0.82051  0.18963  1.0000
  C   C349      1.0  0.09020  0.57951  0.17965  1.0000
  H   H339      1.0  0.47685  0.58255  0.08606  1.0000
  H   H340      1.0  0.45854  0.62733  0.13663  1.0000
  S   S119      1.0  0.09739  0.95983  0.05824  1.0000
  C   C350      1.0  0.29144  0.85238  0.21714  1.0000
  H   H341      1.0  0.31571  0.83206  0.19064  1.0000
  C   C351      1.0  0.40766  0.98166  0.17512  1.0000
  C   C352      1.0  0.09265  0.55013  0.21033  1.0000
  C   C353      1.0  0.48214  0.59715  0.19238  1.0000
  H   H342      1.0  0.07017  0.57794  0.18107  1.0000
  H   H343      1.0  0.42167  0.60608  0.04367  1.0000
  H   H344      1.0  0.34597  0.95172  0.03130  1.0000
  S   S120      1.0  0.08695  0.98667  0.12118  1.0000
  H   H345      1.0  0.02963  0.61316  0.21963  1.0000
  C   C354      1.0  0.07808  0.50930  0.17723  1.0000
  S   S121      1.0  0.39825  0.83091  0.24199  1.0000
  H   H346      1.0  0.27163  0.98316  0.14995  1.0000
  C   C355      1.0  0.12509  0.56708  0.03861  1.0000
  H   H347      1.0  0.14077  0.58669  0.03266  1.0000
  C   C356      1.0  0.42660  0.51183  0.20112  1.0000
  H   H348      1.0  0.10209  0.52991  0.08960  1.0000
  C   C357      1.0  0.02603  0.60719  0.15892  1.0000
  C   C358      1.0  0.13408  0.50618  0.03839  1.0000
  C   C359      1.0  0.08114  0.53410  0.17040  1.0000
  C   C360      1.0  0.19171  0.50116  0.02179  1.0000
  C   C361      1.0  0.22548  0.50812  0.13439  1.0000
  H   H349      1.0  0.42800  0.50127  0.23805  1.0000
  N   N30       1.0  0.40981  0.97926  0.19933  1.0000
  C   C362      1.0  0.48615  0.90383  0.19061  1.0000
  H   H350      1.0  0.40698  0.96542  0.14011  1.0000
  H   H351      1.0  0.04086  0.93879  0.01212  1.0000
  H   H352      1.0  0.21566  0.63887  0.25132  1.0000
  C   C363      1.0  0.36220  0.99244  0.04372  1.0000
  C   C364      1.0  0.11146  0.97828  0.01224  1.0000
  C   C365      1.0  0.04779  0.96005  0.01062  1.0000
  H   H353      1.0  0.39949  0.98832  0.23353  1.0000
  H   H354      1.0  0.40349  0.99679  0.16810  1.0000
  Fe  Fe61      1.0  0.38086  0.86161  0.45972  1.0000
  C   C366      1.0  0.06984  0.61945  0.35968  1.0000
  C   C367      1.0  0.44923  0.85740  0.49279  1.0000
  Fe  Fe62      1.0  0.35520  0.88462  0.42832  1.0000
  S   S122      1.0  0.33130  0.88793  0.45898  1.0000
  S   S123      1.0  0.35394  0.89610  0.38968  1.0000
  Fe  Fe63      1.0  0.36951  0.90386  0.48097  1.0000
  C   C368      1.0  0.42233  0.84768  0.48679  1.0000
  Fe  Fe64      1.0  0.32275  0.84603  0.46837  1.0000
  S   S124      1.0  0.27950  0.81291  0.47590  1.0000
  S   S125      1.0  0.39358  0.90375  0.44919  1.0000
  S   S126      1.0  0.34434  0.84232  0.43643  1.0000
  H   H355      1.0  0.12281  0.65783  0.50138  1.0000
  S   S127      1.0  0.39942  0.85007  0.31072  1.0000
  Fe  Fe65      1.0  0.14431  0.59277  0.47645  1.0000
  S   S128      1.0  0.11677  0.59061  0.44693  1.0000
  H   H356      1.0  0.44078  0.85679  0.41076  1.0000
  Fe  Fe66      1.0  0.18735  0.65180  0.46249  1.0000
  S   S129      1.0  0.16209  0.65349  0.43271  1.0000
  S   S130      1.0  0.23070  0.68580  0.46800  1.0000
  Fe  Fe67      1.0  0.12758  0.63209  0.45814  1.0000
  H   H357      1.0  0.30457  0.77960  0.46953  1.0000
  Fe  Fe68      1.0  0.15344  0.61213  0.42348  1.0000
  S   S131      1.0  0.15198  0.60028  0.38439  1.0000
  N   N31       1.0  0.20378  0.64492  0.28601  1.0000
  S   S132      1.0  0.18080  0.61098  0.45200  1.0000
  H   H358      1.0  0.19263  0.60393  0.28015  1.0000
  S   S133      1.0  0.11112  0.65273  0.30749  1.0000
  C   C369      1.0  0.14435  0.61742  0.36213  1.0000
  C   C370      1.0  0.13893  0.60750  0.33855  1.0000
  C   C371      1.0  0.13035  0.61931  0.32109  1.0000
  C   C372      1.0  0.12701  0.64103  0.32720  1.0000
  C   C373      1.0  0.13359  0.65166  0.35040  1.0000
  C   C374      1.0  0.14227  0.63996  0.36775  1.0000
  H   H359      1.0  0.14032  0.58996  0.33407  1.0000
  H   H360      1.0  0.12491  0.61075  0.30330  1.0000
  H   H361      1.0  0.13116  0.66853  0.35519  1.0000
  H   H362      1.0  0.14653  0.64799  0.38562  1.0000
  H   H363      1.0  0.27624  0.84393  0.43130  1.0000
  H   H364      1.0  0.29950  0.76855  0.38312  1.0000
  H   H365      1.0  0.26084  0.84282  0.40261  1.0000
  H   H366      1.0  0.28482  0.73019  0.46633  1.0000
  C   C375      1.0  0.26639  0.77762  0.47346  1.0000
  C   C376      1.0  0.28300  0.76656  0.47025  1.0000
  C   C377      1.0  0.27170  0.73848  0.46842  1.0000
  C   C378      1.0  0.24368  0.72111  0.46931  1.0000
  C   C379      1.0  0.22704  0.73220  0.47209  1.0000
  C   C380      1.0  0.23837  0.76025  0.47431  1.0000
  C   C381      1.0  0.21739  0.65335  0.26468  1.0000
  C   C382      1.0  0.08446  0.64608  0.48531  1.0000
  H   H367      1.0  0.42423  0.90925  0.49783  1.0000
  C   C383      1.0  0.39102  0.98276  0.50094  1.0000
  C   C384      1.0  0.00600  0.73016  0.50672  1.0000
  C   C385      1.0  0.05298  0.57857  0.50679  1.0000
  C   C386      1.0  0.06699  0.59681  0.34776  1.0000
  C   C387      1.0  0.36447  0.88144  0.36749  1.0000
  C   C388      1.0  0.36473  0.88831  0.34326  1.0000
  C   C389      1.0  0.37409  0.87769  0.32542  1.0000
  C   C390      1.0  0.38322  0.86008  0.33176  1.0000
  C   C391      1.0  0.38179  0.85230  0.35584  1.0000
  C   C392      1.0  0.37261  0.86304  0.37364  1.0000
  H   H368      1.0  0.35818  0.90233  0.33829  1.0000
  H   H369      1.0  0.37505  0.88381  0.30688  1.0000
  H   H370      1.0  0.38860  0.83851  0.36085  1.0000
  H   H371      1.0  0.37255  0.85754  0.39217  1.0000
  H   H372      1.0  0.07184  0.56212  0.35056  1.0000
  H   H373      1.0  0.45172  0.88086  0.33665  1.0000
  S   S134      1.0  0.41401  0.85203  0.45761  1.0000
  H   H374      1.0  0.40295  0.51106  0.45486  1.0000
  H   H375      1.0  0.10112  0.51817  0.47326  1.0000
  H   H376      1.0  0.06643  0.63368  0.34969  1.0000
  H   H377      1.0  0.45203  0.85122  0.36869  1.0000
  C   C393      1.0  0.43606  0.51437  0.49920  1.0000
  H   H378      1.0  0.42996  0.89235  0.42002  1.0000
  H   H379      1.0  0.06858  0.97662  0.48551  1.0000
  C   C394      1.0  0.27909  0.84492  0.41146  1.0000
  H   H380      1.0  0.45404  0.52408  0.48828  1.0000
  H   H381      1.0  0.01415  0.77067  0.50141  1.0000
  C   C395      1.0  0.44133  0.87009  0.39659  1.0000
  C   C396      1.0  0.43520  0.89009  0.40183  1.0000
  N   N32       1.0  0.28422  0.82373  0.40325  1.0000
  C   C397      1.0  0.30043  0.82805  0.38379  1.0000
  C   C398      1.0  0.27197  0.79937  0.41460  1.0000
  C   C399      1.0  0.30626  0.80835  0.37628  1.0000
  C   C400      1.0  0.27736  0.77920  0.40766  1.0000
  C   C401      1.0  0.29486  0.78388  0.38851  1.0000
  H   H382      1.0  0.04470  0.63637  0.47431  1.0000
  S   S135      1.0  0.09291  0.63954  0.45697  1.0000
  H   H383      1.0  0.46464  0.86629  0.47913  1.0000
  H   H384      1.0  0.18659  0.61147  0.31002  1.0000
  C   C402      1.0  0.20487  0.66318  0.30233  1.0000
  H   H385      1.0  0.43569  0.90994  0.32342  1.0000
  C   C403      1.0  0.44754  0.88391  0.35503  1.0000
  H   H386      1.0  0.31976  0.81222  0.36122  1.0000
  C   C404      1.0  0.05882  0.64247  0.48903  1.0000
  C   C405      1.0  0.44038  0.92033  0.34109  1.0000
  H   H387      1.0  0.46014  0.93905  0.33993  1.0000
  H   H388      1.0  0.46603  0.92851  0.47388  1.0000
  C   C406      1.0  0.43508  0.90654  0.38336  1.0000
  H   H389      1.0  0.20547  0.71917  0.47292  1.0000
  H   H390      1.0  0.19322  0.65647  0.31882  1.0000
  H   H391      1.0  0.25822  0.79557  0.42937  1.0000
  H   H392      1.0  0.37672  0.97180  0.48689  1.0000
  H   H393      1.0  0.22529  0.76855  0.47676  1.0000
  N   N33       1.0  0.44082  0.90304  0.36025  1.0000
  H   H394      1.0  0.23276  0.61183  0.48850  1.0000
  C   C407      1.0  0.46655  0.92465  0.49287  1.0000
  H   H395      1.0  0.06153  0.59381  0.32890  1.0000
  H   H396      1.0  0.30920  0.84695  0.37415  1.0000
  N   N34       1.0  0.07841  0.62435  0.38301  1.0000
  C   C408      1.0  0.08360  0.60678  0.39519  1.0000
  C   C409      1.0  0.08112  0.58404  0.38378  1.0000
  C   C410      1.0  0.08243  0.64860  0.39524  1.0000
  H   H397      1.0  0.09060  0.61086  0.41358  1.0000
  H   H398      1.0  0.08666  0.57095  0.39313  1.0000
  H   H399      1.0  0.10266  0.65914  0.40374  1.0000
  H   H400      1.0  0.08124  0.66296  0.38264  1.0000
  H   H401      1.0  0.06711  0.64314  0.40960  1.0000
  H   H402      1.0  0.42939  0.92145  0.38749  1.0000
  S   S136      1.0  0.35878  0.86202  0.49274  1.0000
  C   C411      1.0  0.07288  0.57914  0.35988  1.0000
  H   H403      1.0  0.29645  0.86516  0.40737  1.0000
  H   H404      1.0  0.26820  0.76021  0.41728  1.0000
  C   C412      1.0  0.44767  0.86700  0.37307  1.0000
  C   C413      1.0  0.09775  0.50978  0.49117  1.0000
  Fe  Fe69      1.0  0.39232  0.85448  0.27142  1.0000
  H   H405      1.0  0.42436  0.92541  0.34443  1.0000
  S   S137      1.0  0.13215  0.56225  0.50754  1.0000
  C   C414      1.0  0.44290  0.91361  0.50648  1.0000
  C   C415      1.0  0.23444  0.69951  0.27601  1.0000
  H   H406      1.0  0.38158  0.82824  0.49982  1.0000
  C   C416      1.0  0.10272  0.65419  0.50431  1.0000
  S   S138      1.0  0.15324  0.63368  0.48919  1.0000
  H   H407      1.0  0.16536  0.61011  0.28538  1.0000
  H   H408      1.0  0.22056  0.70515  0.31028  1.0000
  Fe  Fe70      1.0  0.12108  0.65338  0.26819  1.0000
  C   C417      1.0  0.22025  0.69074  0.29760  1.0000
  C   C418      1.0  0.08299  0.98669  0.49970  1.0000
  H   H409      1.0  0.04440  0.57276  0.48899  1.0000
  C   C419      1.0  0.18628  0.61620  0.29070  1.0000
  H   H410      1.0  0.08853  0.57668  0.49738  1.0000
  H   H411      1.0  0.25677  0.66063  0.49619  1.0000
  H   H412      1.0  0.01517  0.92106  0.48664  1.0000
  C   C420      1.0  0.40248  0.83648  0.50453  1.0000
  C   C421      1.0  0.23308  0.68073  0.25945  1.0000
  C   C422      1.0  0.49062  0.93026  0.50389  1.0000
  C   C423      1.0  0.02218  0.75803  0.50710  1.0000
  H   H413      1.0  0.01018  0.58317  0.50057  1.0000
  H   H414      1.0  0.24602  0.72079  0.27185  1.0000
  S   S139      1.0  0.16365  0.66546  0.26029  1.0000
  C   C424      1.0  0.22523  0.62005  0.50191  1.0000
  C   C425      1.0  0.23877  0.64765  0.50643  1.0000
  S   S140      1.0  0.35083  0.84394  0.26008  1.0000
  Fe  Fe71      1.0  0.03143  0.84662  0.56622  1.0000
  C   C426      1.0  0.49092  0.58165  0.72270  1.0000
  S   S141      1.0  0.04167  0.81294  0.56522  1.0000
  Fe  Fe72      1.0  0.04375  0.90414  0.55105  1.0000
  S   S142      1.0  0.01478  0.90346  0.57853  1.0000
  C   C427      1.0  0.00908  0.73187  0.57074  1.0000
  Fe  Fe73      1.0  0.03140  0.88495  0.60370  1.0000
  S   S143      1.0  0.04028  0.89780  0.64260  1.0000
  H   H415      1.0  0.19747  0.65039  0.54757  1.0000
  C   C428      1.0  0.06124  0.85131  0.64694  1.0000
  S   S144      1.0  0.06292  0.88864  0.57742  1.0000
  S   S145      1.0  0.01505  0.86216  0.53755  1.0000
  S   S146      1.0  0.05218  0.64573  0.72128  1.0000
  Fe  Fe74      1.0  0.46499  0.59644  0.54919  1.0000
  H   H416      1.0  0.19051  0.58187  0.51072  1.0000
  C   C429      1.0  0.05498  0.85044  0.67124  1.0000
  Fe  Fe75      1.0  0.47530  0.65438  0.56022  1.0000
  C   C430      1.0  0.41817  0.89667  0.54422  1.0000
  S   S147      1.0  0.46593  0.68761  0.55125  1.0000
  C   C431      1.0  0.05117  0.64616  0.51191  1.0000
  H   H417      1.0  0.40515  0.52739  0.54490  1.0000
  Fe  Fe76      1.0  0.46816  0.61653  0.60108  1.0000
  S   S148      1.0  0.45354  0.60776  0.63944  1.0000
  H   H418      1.0  0.00152  0.79228  0.60866  1.0000
  S   S149      1.0  0.44180  0.61252  0.56953  1.0000
  S   S150      1.0  0.44649  0.85308  0.72445  1.0000
  C   C432      1.0  0.05575  0.71046  0.73695  1.0000
  C   C433      1.0  0.48803  0.72253  0.55582  1.0000
  S   S151      1.0  0.48855  0.59744  0.58185  1.0000
  C   C434      1.0  0.00584  0.78498  0.62563  1.0000
  H   H419      1.0  0.48273  0.87073  0.64236  1.0000
  C   C435      1.0  0.05801  0.75304  0.52422  1.0000
  C   C436      1.0  0.02675  0.63186  0.69914  1.0000
  C   C437      1.0  0.48734  0.87085  0.66122  1.0000
  C   C438      1.0  0.47225  0.62557  0.68480  1.0000
  C   C439      1.0  0.42556  0.77804  0.74788  1.0000
  S   S152      1.0  0.45639  0.56409  0.52056  1.0000
  C   C440      1.0  0.03374  0.63735  0.67476  1.0000
  H   H420      1.0  0.06781  0.70168  0.72997  1.0000
  H   H421      1.0  0.45143  0.61816  0.68953  1.0000
  C   C441      1.0  0.40197  0.97004  0.51445  1.0000
  H   H422      1.0  0.05471  0.64883  0.66967  1.0000
  H   H423      1.0  0.41873  0.88494  0.55990  1.0000
  H   H424      1.0  0.99855  0.78931  0.67268  1.0000
  C   C442      1.0  0.46806  0.79990  0.72540  1.0000
  H   H425      1.0  0.46152  0.81238  0.71649  1.0000
  H   H426      1.0  0.42917  0.97525  0.54331  1.0000
  C   C443      1.0  0.40867  0.51633  0.53109  1.0000
  C   C444      1.0  0.10132  0.98543  0.53834  1.0000
  C   C445      1.0  0.46626  0.57541  0.73304  1.0000
  H   H427      1.0  0.00311  0.69261  0.51587  1.0000
  H   H428      1.0  0.10874  0.59036  0.53778  1.0000
  H   H429      1.0  0.04014  0.59548  0.56087  1.0000
  H   H430      1.0  0.46268  0.66045  0.64611  1.0000
  C   C446      1.0  0.02654  0.75985  0.57229  1.0000
  C   C447      1.0  0.05163  0.70846  0.53374  1.0000
  H   H431      1.0  0.45713  0.73251  0.54896  1.0000
  S   S153      1.0  0.44539  0.84798  0.56497  1.0000
  H   H432      1.0  0.04693  0.76752  0.57848  1.0000
  C   C448      1.0  0.01631  0.80652  0.66533  1.0000
  C   C449      1.0  0.40961  0.83569  0.52843  1.0000
  H   H433      1.0  0.42434  0.56102  0.72648  1.0000
  H   H434      1.0  0.06706  0.86763  0.68261  1.0000
  S   S154      1.0  0.00047  0.65833  0.59286  1.0000
  C   C450      1.0  0.42053  0.98480  0.53271  1.0000
  H   H435      1.0  0.39423  0.82727  0.54218  1.0000
  C   C451      1.0  0.49450  0.76798  0.55831  1.0000
  C   C452      1.0  0.45637  0.85697  0.51675  1.0000
  H   H436      1.0  0.03680  0.69346  0.54649  1.0000
  H   H437      1.0  0.04253  0.68834  0.69342  1.0000
  H   H438      1.0  0.48188  0.72942  0.60386  1.0000
  C   C453      1.0  0.01760  0.87719  0.66509  1.0000
  C   C454      1.0  0.02259  0.88523  0.68921  1.0000
  C   C455      1.0  0.01621  0.71422  0.51537  1.0000
  C   C456      1.0  0.47254  0.86294  0.70306  1.0000
  C   C457      1.0  0.46669  0.86187  0.67849  1.0000
  H   H439      1.0  0.17297  0.60129  0.54042  1.0000
  H   H440      1.0  0.04042  0.90390  0.69386  1.0000
  H   H441      1.0  0.46496  0.57913  0.75194  1.0000
  H   H442      1.0  0.44618  0.85454  0.67277  1.0000
  Fe  Fe77      1.0  0.48894  0.86173  0.57102  1.0000
  H   H443      1.0  0.47724  0.86594  0.52139  1.0000
  C   C458      1.0  0.49345  0.80352  0.72002  1.0000
  C   C459      1.0  0.08236  0.97203  0.52026  1.0000
  H   H444      1.0  0.05384  0.70662  0.75662  1.0000
  H   H445      1.0  0.42724  0.66983  0.62439  1.0000
  H   H446      1.0  0.07822  0.76223  0.53138  1.0000
  S   S155      1.0  0.05950  0.65698  0.56014  1.0000
  N   N35       1.0  0.04178  0.72572  0.52426  1.0000
  H   H447      1.0  0.10923  0.66424  0.54191  1.0000
  N   N36       1.0  0.22882  0.65826  0.52273  1.0000
  C   C460      1.0  0.43208  0.52927  0.51717  1.0000
  C   C461      1.0  0.24265  0.68727  0.52701  1.0000
  H   H448      1.0  0.41471  0.91302  0.55038  1.0000
  C   C462      1.0  0.04481  0.82951  0.63226  1.0000
  C   C463      1.0  0.43662  0.84628  0.53463  1.0000
  H   H449      1.0  0.01930  0.63309  0.63825  1.0000
  C   C464      1.0  0.02582  0.68791  0.70290  1.0000
  H   H450      1.0  0.04979  0.83042  0.61337  1.0000
  C   C465      1.0  0.00051  0.67561  0.69201  1.0000
  N   N37       1.0  0.45185  0.78117  0.74197  1.0000
  H   H451      1.0  0.02691  0.82743  0.69930  1.0000
  H   H452      1.0  0.06675  0.73241  0.73374  1.0000
  C   C466      1.0  0.08937  0.58860  0.53410  1.0000
  H   H453      1.0  0.07077  0.71991  0.54380  1.0000
  H   H454      1.0  0.07823  0.86912  0.63936  1.0000
  H   H455      1.0  0.24825  0.69170  0.54622  1.0000
  C   C467      1.0  0.19163  0.61424  0.53099  1.0000
  H   H456      1.0  0.01607  0.71824  0.57572  1.0000
  H   H457      1.0  0.48637  0.78129  0.55678  1.0000
  H   H458      1.0  0.05500  0.69769  0.51884  1.0000
  N   N38       1.0  0.46989  0.69336  0.62363  1.0000
  C   C468      1.0  0.47795  0.74027  0.55384  1.0000
  H   H459      1.0  0.40958  0.76125  0.73744  1.0000
  H   H460      1.0  0.44071  0.69042  0.59788  1.0000
  H   H461      1.0  0.42780  0.55368  0.68276  1.0000
  H   H462      1.0  0.00937  0.59425  0.53016  1.0000
  H   H463      1.0  0.11508  0.52782  0.54922  1.0000
  Fe  Fe78      1.0  0.01517  0.63991  0.56577  1.0000
  H   H464      1.0  0.03131  0.64298  0.51459  1.0000
  N   N39       1.0  0.44316  0.90795  0.53030  1.0000
  H   H465      1.0  0.42494  0.79667  0.74389  1.0000
  C   C469      1.0  0.03241  0.82791  0.68057  1.0000
  C   C470      1.0  0.47912  0.62364  0.66104  1.0000
  H   H466      1.0  0.01655  0.77398  0.62109  1.0000
  C   C471      1.0  0.45959  0.76463  0.75247  1.0000
  N   N40       1.0  0.02921  0.69813  0.72559  1.0000
  C   C472      1.0  0.01805  0.77794  0.56531  1.0000
  H   H467      1.0  0.00800  0.87607  0.72582  1.0000
  C   C473      1.0  0.48478  0.76756  0.74745  1.0000
  C   C474      1.0  0.06917  0.65370  0.53108  1.0000
  H   H468      1.0  0.46687  0.90900  0.56019  1.0000
  C   C475      1.0  0.46673  0.91375  0.54134  1.0000
  C   C476      1.0  0.48732  0.71947  0.61742  1.0000
  H   H469      1.0  0.49216  0.92690  0.72236  1.0000
  C   C477      1.0  0.44337  0.56516  0.71870  1.0000
  H   H470      1.0  0.48484  0.92023  0.67926  1.0000
  C   C478      1.0  0.05059  0.59116  0.54689  1.0000
  C   C479      1.0  0.20555  0.64195  0.53493  1.0000
  C   C480      1.0  0.07569  0.59392  0.55199  1.0000
  C   C481      1.0  0.44406  0.67801  0.61127  1.0000
  N   N41       1.0  0.02255  0.80760  0.64147  1.0000
  C   C482      1.0  0.09512  0.65810  0.52718  1.0000
  H   H471      1.0  0.40074  0.88259  0.53309  1.0000
  H   H472      1.0  0.08442  0.60024  0.56970  1.0000
  C   C483      1.0  0.47662  0.68106  0.64110  1.0000
  H   H473      1.0  0.22937  0.69534  0.52179  1.0000
  N   N42       1.0  0.03965  0.58373  0.52446  1.0000
  H   H474      1.0  0.10127  0.97456  0.55423  1.0000
  H   H475      1.0  0.44365  0.66112  0.60125  1.0000
  S   S156      1.0  0.05770  0.93710  0.52208  1.0000
  C   C484      1.0  0.10560  0.51511  0.53386  1.0000
  C   C485      1.0  0.00436  0.86946  0.70733  1.0000
  C   C486      1.0  0.49206  0.63609  0.70273  1.0000
  H   H476      1.0  0.01089  0.70602  0.75537  1.0000
  C   C487      1.0  0.01282  0.57981  0.51978  1.0000
  C   C488      1.0  0.01373  0.62848  0.65694  1.0000
  H   H477      1.0  0.06082  0.79128  0.51683  1.0000
  H   H478      1.0  0.48631  0.63639  0.72113  1.0000
  C   C489      1.0  0.04841  0.76960  0.51577  1.0000
  C   C490      1.0  0.20152  0.60328  0.51431  1.0000
  C   C491      1.0  0.49079  0.92493  0.52829  1.0000
  C   C492      1.0  0.44529  0.56093  0.69428  1.0000
  C   C493      1.0  0.07800  0.58089  0.51135  1.0000
  S   S157      1.0  0.00146  0.84271  0.59389  1.0000
  C   C494      1.0  0.00813  0.69764  0.73749  1.0000
  N   N43       1.0  0.49272  0.57791  0.69867  1.0000
  C   C495      1.0  0.11023  0.52671  0.51076  1.0000
  H   H479      1.0  0.26124  0.69824  0.51600  1.0000
  S   S158      1.0  0.49610  0.63825  0.53709  1.0000
  C   C496      1.0  0.47025  0.56730  0.68453  1.0000
  H   H480      1.0  0.99712  0.55918  0.52500  1.0000
  H   H481      1.0  0.38181  0.99244  0.56725  1.0000
  S   S159      1.0  0.39243  0.93561  0.51020  1.0000
  H   H482      1.0  0.99769  0.66669  0.67433  1.0000
  C   C497      1.0  0.99959  0.61694  0.70552  1.0000
  H   H483      1.0  0.47167  0.56474  0.66539  1.0000
  H   H484      1.0  0.49114  0.75490  0.75645  1.0000
  H   H485      1.0  0.99712  0.91922  0.52717  1.0000
  Fe  Fe79      1.0  0.34511  0.95336  0.88825  1.0000
  H   H486      1.0  0.03876  0.76429  0.79057  1.0000
  S   S160      1.0  0.35465  0.93227  0.85793  1.0000
  Fe  Fe80      1.0  0.30267  0.96916  0.90448  1.0000
  H   H487      1.0  0.05483  0.77080  0.84613  1.0000
  S   S161      1.0  0.25882  0.95910  0.90112  1.0000
  H   H488      1.0  0.38743  0.97766  0.82364  1.0000
  S   S162      1.0  0.40702  0.55325  0.89345  1.0000
  Fe  Fe81      1.0  0.33946  0.96455  0.94141  1.0000
  S   S163      1.0  0.34280  0.95350  0.97978  1.0000
  C   C498      1.0  0.00616  0.75359  0.86491  1.0000
  S   S164      1.0  0.31033  0.93537  0.91443  1.0000
  S   S165      1.0  0.37460  0.97957  0.91621  1.0000
  S   S166      1.0  0.00404  0.64696  0.76832  1.0000
  H   H489      1.0  0.47186  0.54599  0.80271  1.0000
  C   C499      1.0  0.38215  0.50573  0.98711  1.0000
  S   S167      1.0  0.06478  0.66720  0.78980  1.0000
  Fe  Fe82      1.0  0.04644  0.62961  0.81290  1.0000
  S   S168      1.0  0.06125  0.61317  0.84360  1.0000
  Fe  Fe83      1.0  0.02894  0.67179  0.79919  1.0000
  S   S169      1.0  0.03542  0.71438  0.80277  1.0000
  N   N44       1.0  0.47431  0.56638  0.85998  1.0000
  H   H490      1.0  0.01047  0.75477  0.88443  1.0000
  Fe  Fe84      1.0  0.19321  0.52654  0.89920  1.0000
  C   C500      1.0  0.06701  0.97945  0.83734  1.0000
  S   S170      1.0  0.23625  0.53382  0.89579  1.0000
  Fe  Fe85      1.0  0.15223  0.54522  0.88426  1.0000
  S   S171      1.0  0.12300  0.52001  0.91308  1.0000
  S   S172      1.0  0.14278  0.56752  0.85476  1.0000
  Fe  Fe86      1.0  0.15895  0.53380  0.93701  1.0000
  S   S173      1.0  0.16119  0.54637  0.97572  1.0000
  H   H491      1.0  0.10056  0.53490  0.81365  1.0000
  S   S174      1.0  0.07314  0.94572  0.91061  1.0000
  S   S175      1.0  0.18803  0.56176  0.90925  1.0000
  C   C501      1.0  0.29427  0.87555  0.86218  1.0000
  Fe  Fe87      1.0  0.38191  0.50855  0.89754  1.0000
  S   S176      1.0  0.42858  0.82893  0.79290  1.0000
  C   C502      1.0  0.27424  0.54591  0.84289  1.0000
  C   C503      1.0  0.33996  0.84774  0.85162  1.0000
  S   S177      1.0  0.04771  0.88700  0.81073  1.0000
  Fe  Fe88      1.0  0.46278  0.82253  0.80418  1.0000
  S   S178      1.0  0.45328  0.77954  0.81128  1.0000
  Fe  Fe89      1.0  0.44732  0.86633  0.81594  1.0000
  S   S179      1.0  0.43140  0.88191  0.84630  1.0000
  H   H492      1.0  0.07025  0.84906  0.82471  1.0000
  S   S180      1.0  0.47283  0.89251  0.78558  1.0000
  C   C504      1.0  0.06693  0.92801  0.88368  1.0000
  C   C505      1.0  0.08695  0.93603  0.86618  1.0000
  C   C506      1.0  0.08111  0.92277  0.84404  1.0000
  C   C507      1.0  0.05519  0.90163  0.83932  1.0000
  C   C508      1.0  0.03538  0.89323  0.85708  1.0000
  C   C509      1.0  0.04128  0.90628  0.87930  1.0000
  H   H493      1.0  0.10702  0.95227  0.86974  1.0000
  H   H494      1.0  0.09659  0.92921  0.83043  1.0000
  H   H495      1.0  0.01542  0.87703  0.85371  1.0000
  H   H496      1.0  0.02580  0.89994  0.89289  1.0000
  C   C510      1.0  0.08222  0.49879  0.85497  1.0000
  C   C511      1.0  0.05256  0.97708  0.85820  1.0000
  C   C512      1.0  0.24574  0.98124  0.89785  1.0000
  C   C513      1.0  0.32014  0.56240  0.85747  1.0000
  C   C514      1.0  0.06558  0.81060  0.83461  1.0000
  H   H497      1.0  0.01558  0.95335  0.87732  1.0000
  H   H498      1.0  0.03488  0.93694  0.96775  1.0000
  H   H499      1.0  0.10428  0.53848  0.98526  1.0000
  C   C515      1.0  0.32450  0.86894  0.88890  1.0000
  C   C516      1.0  0.14321  0.52055  0.99666  1.0000
  H   H500      1.0  0.44435  0.72577  0.81292  1.0000
  C   C517      1.0  0.29476  0.51743  0.84377  1.0000
  C   C518      1.0  0.19796  0.98988  0.97610  1.0000
  C   C519      1.0  0.08347  0.59982  0.84592  1.0000
  C   C520      1.0  0.08498  0.58832  0.86785  1.0000
  C   C521      1.0  0.10265  0.57809  0.87086  1.0000
  C   C522      1.0  0.11943  0.57947  0.85201  1.0000
  C   C523      1.0  0.11777  0.59075  0.83002  1.0000
  C   C524      1.0  0.09988  0.60070  0.82692  1.0000
  H   H501      1.0  0.07253  0.58755  0.88274  1.0000
  H   H502      1.0  0.10363  0.56959  0.88791  1.0000
  H   H503      1.0  0.13064  0.59207  0.81527  1.0000
  H   H504      1.0  0.09916  0.60952  0.80996  1.0000
  H   H505      1.0  0.09869  0.50719  0.79664  1.0000
  Fe  Fe90      1.0  0.45719  0.85492  0.76377  1.0000
  C   C525      1.0  0.27429  0.51864  0.90226  1.0000
  H   H506      1.0  0.30563  0.50833  0.90498  1.0000
  C   C526      1.0  0.46804  0.54459  0.82185  1.0000
  C   C527      1.0  0.21776  0.97077  0.89945  1.0000
  C   C528      1.0  0.20644  0.98748  0.89688  1.0000
  H   H507      1.0  0.28722  0.53916  0.90794  1.0000
  H   H508      1.0  0.18492  0.97907  0.89824  1.0000
  H   H509      1.0  0.20474  0.94953  0.90266  1.0000
  C   C529      1.0  0.37840  0.92110  0.85458  1.0000
  C   C530      1.0  0.38105  0.91160  0.83203  1.0000
  C   C531      1.0  0.39783  0.90040  0.82888  1.0000
  C   C532      1.0  0.41210  0.89837  0.84835  1.0000
  C   C533      1.0  0.40997  0.90850  0.87076  1.0000
  C   C534      1.0  0.39339  0.91993  0.87386  1.0000
  H   H510      1.0  0.36962  0.91242  0.81695  1.0000
  H   H511      1.0  0.39918  0.89273  0.81154  1.0000
  H   H512      1.0  0.42088  0.90706  0.88598  1.0000
  H   H513      1.0  0.39162  0.92709  0.89131  1.0000
  C   C535      1.0  0.41491  0.56491  0.86381  1.0000
  C   C536      1.0  0.40771  0.54703  0.84461  1.0000
  C   C537      1.0  0.41449  0.55668  0.82108  1.0000
  C   C538      1.0  0.42931  0.58427  0.81679  1.0000
  C   C539      1.0  0.43656  0.60221  0.83593  1.0000
  C   C540      1.0  0.42915  0.59254  0.85942  1.0000
  H   H514      1.0  0.39760  0.52579  0.84779  1.0000
  H   H515      1.0  0.40914  0.54276  0.80631  1.0000
  H   H516      1.0  0.44758  0.62359  0.83261  1.0000
  H   H517      1.0  0.43477  0.60649  0.87420  1.0000
  H   H518      1.0  0.27358  0.85805  0.86294  1.0000
  H   H519      1.0  0.32187  0.58173  0.86095  1.0000
  C   C541      1.0  0.35191  0.97853  0.00185  1.0000
  C   C542      1.0  0.40681  0.99466  0.82840  1.0000
  C   C543      1.0  0.01091  0.72465  0.80375  1.0000
  C   C544      1.0  0.02655  0.95521  0.86092  1.0000
  C   C545      1.0  0.48273  0.72811  0.80778  1.0000
  C   C546      1.0  0.34319  0.86059  0.89319  1.0000
  H   H520      1.0  0.12032  0.51991  0.82220  1.0000
  N   N45       1.0  0.29681  0.54171  0.84845  1.0000
  S   S181      1.0  0.33495  0.98466  0.87603  1.0000
  H   H521      1.0  0.25467  0.52703  0.84518  1.0000
  H   H522      1.0  0.11881  0.99196  0.97554  1.0000
  Fe  Fe91      1.0  0.10841  0.98733  0.90765  1.0000
  C   C547      1.0  0.05536  0.96003  0.81947  1.0000
  H   H523      1.0  0.34642  0.84012  0.83678  1.0000
  H   H524      1.0  0.44652  0.74947  0.76531  1.0000
  H   H525      1.0  0.39631  0.54637  0.99867  1.0000
  C   C548      1.0  0.24737  0.50997  0.89627  1.0000
  H   H526      1.0  0.07110  0.95494  0.96592  1.0000
  H   H527      1.0  0.36622  0.84434  0.87718  1.0000
  H   H528      1.0  0.43345  0.49918  0.86575  1.0000
  S   S182      1.0  0.02305  0.60293  0.78211  1.0000
  C   C549      1.0  0.01868  0.75121  0.79737  1.0000
  N   N46       1.0  0.02363  0.77964  0.85349  1.0000
  C   C550      1.0  0.02922  0.93854  0.82268  1.0000
  H   H529      1.0  0.49011  0.60855  0.86349  1.0000
  C   C551      1.0  0.35105  0.85006  0.87436  1.0000
  C   C552      1.0  0.01545  0.79821  0.85203  1.0000
  C   C553      1.0  0.00104  0.76134  0.80043  1.0000
  H   H530      1.0  0.02049  0.92335  0.80882  1.0000
  H   H531      1.0  0.44184  0.50152  0.82205  1.0000
  C   C554      1.0  0.05304  0.95722  0.96725  1.0000
  C   C555      1.0  0.10957  0.55609  0.99694  1.0000
  C   C556      1.0  0.04845  0.78563  0.84518  1.0000
  C   C557      1.0  0.45130  0.51976  0.83266  1.0000
  N   N47       1.0  0.31401  0.86694  0.86644  1.0000
  C   C558      1.0  0.48678  0.59092  0.87440  1.0000
  H   H532      1.0  0.29618  0.89064  0.87564  1.0000
  H   H533      1.0  0.19328  0.96981  0.98127  1.0000
  C   C559      1.0  0.46568  0.73906  0.81026  1.0000
  S   S183      1.0  0.16604  0.49992  0.92847  1.0000
  H   H534      1.0  0.47451  0.70663  0.80864  1.0000
  H   H535      1.0  0.36041  0.57504  0.87017  1.0000
  C   C560      1.0  0.33979  0.53396  0.85851  1.0000
  H   H536      1.0  0.45402  0.54095  0.88988  1.0000
  C   C561      1.0  0.32127  0.85623  0.84797  1.0000
  H   H537      1.0  0.29778  0.88565  0.84441  1.0000
  H   H538      1.0  0.01128  0.59771  0.86963  1.0000
  C   C562      1.0  0.45833  0.54207  0.87081  1.0000
  H   H539      1.0  0.27362  0.56061  0.85544  1.0000
  H   H540      1.0  0.08504  0.81511  0.82765  1.0000
  H   H541      1.0  0.31311  0.85482  0.83014  1.0000
  H   H542      1.0  0.05188  0.96725  0.95058  1.0000
  S   S184      1.0  0.16020  0.51249  0.87156  1.0000
  C   C563      1.0  0.47597  0.76697  0.80929  1.0000
  S   S185      1.0  0.48974  0.84623  0.77372  1.0000
  H   H543      1.0  0.06663  0.96126  0.80343  1.0000
  C   C564      1.0  0.44654  0.51843  0.85730  1.0000
  Fe  Fe92      1.0  0.00420  0.85766  0.80358  1.0000
  C   C565      1.0  0.10053  0.51562  0.81491  1.0000
  H   H544      1.0  0.31890  0.87762  0.90350  1.0000
  H   H545      1.0  0.35203  0.86287  0.91084  1.0000
  H   H546      1.0  0.02572  0.83810  0.84051  1.0000
  C   C566      1.0  0.47962  0.56781  0.83592  1.0000
  H   H547      1.0  0.38535  0.51095  0.96826  1.0000
  C   C567      1.0  0.03219  0.82342  0.84177  1.0000
  S   S186      1.0  0.47932  0.85770  0.82949  1.0000
  H   H548      1.0  0.28009  0.50080  0.95406  1.0000
  C   C568      1.0  0.05733  0.82959  0.83292  1.0000
  H   H549      1.0  0.27593  0.55327  0.82418  1.0000
  Fe  Fe93      1.0  0.48252  0.63030  0.78964  1.0000
  N   N48       1.0  0.05475  0.97264  0.98876  1.0000
  S   S187      1.0  0.44025  0.59604  0.78770  1.0000
  H   H550      1.0  0.10132  0.51355  0.86255  1.0000
  S   S188      1.0  0.01289  0.63684  0.82494  1.0000
  C   C569      1.0  0.31616  0.51314  0.84883  1.0000
  H   H551      1.0  0.49265  0.58706  0.82747  1.0000
  N   N49       1.0  0.01530  0.93619  0.84334  1.0000
  C   C570      1.0  0.34195  0.55880  0.86272  1.0000
  H   H552      1.0  0.22584  0.99384  0.94817  1.0000
  H   H553      1.0  0.47365  0.58936  0.88972  1.0000
  H   H554      1.0  0.00918  0.73765  0.85679  1.0000
  H   H555      1.0  0.48625  0.90050  0.87266  1.0000
  H   H556      1.0  0.49064  0.92294  0.83363  1.0000
  H   H557      1.0  0.27621  0.50093  0.83684  1.0000
  H   H558      1.0  0.09595  0.56404  0.99295  1.0000
  H   H559      1.0  0.35633  0.53083  0.86301  1.0000
  H   H560      1.0  0.06162  0.99201  0.87225  1.0000
  H   H561      1.0  0.10275  0.95735  0.00748  1.0000
  C   C571      1.0  0.30377  0.49925  0.98347  1.0000
  H   H562      1.0  0.42126  0.77390  0.76740  1.0000
  H   H563      1.0  0.13049  0.57144  0.99192  1.0000
  C   C572      1.0  0.38837  0.52579  0.00438  1.0000
  H   H564      1.0  0.00773  0.78204  0.79610  1.0000
  H   H565      1.0  0.39865  0.99005  0.86629  1.0000
  C   C573      1.0  0.28482  0.50120  0.90052  1.0000
  H   H566      1.0  0.40740  0.97299  0.00461  1.0000
  H   H567      1.0  0.17186  0.99238  0.00263  1.0000
  H   H568      1.0  0.99965  0.57607  0.83059  1.0000
  H   H569      1.0  0.30869  0.51869  0.99061  1.0000
  H   H570      1.0  0.08729  0.99622  0.83518  1.0000
  H   H571      1.0  0.40634  0.99363  0.96609  1.0000
  Fe  Fe94      1.0  0.03840  0.64048  0.76002  1.0000
  S   S189      1.0  0.32983  0.99685  0.93310  1.0000
  C   C574      1.0  0.41589  0.99456  0.00341  1.0000
  H   H572      1.0  0.94495  0.43782  0.19340  1.0000
  Fe  Fe95      1.0  0.85336  0.37239  0.23194  1.0000
  S   S190      1.0  0.85504  0.34440  0.20516  1.0000
  S   S191      1.0  0.83457  0.39755  0.22373  1.0000
  Fe  Fe96      1.0  0.84064  0.31476  0.23551  1.0000
  S   S192      1.0  0.90215  0.00422  0.19493  1.0000
  Fe  Fe97      1.0  0.89770  0.36048  0.21803  1.0000
  S   S193      1.0  0.92847  0.37433  0.18702  1.0000
  H   H573      1.0  0.91125  0.03855  0.05132  1.0000
  H   H574      1.0  0.80228  0.07388  0.15259  1.0000
  Fe  Fe98      1.0  0.89685  0.01704  0.10564  1.0000
  S   S194      1.0  0.90161  0.05801  0.10191  1.0000
  H   H575      1.0  0.90936  0.41469  0.19288  1.0000
  C   C575      1.0  0.96370  0.07339  0.22661  1.0000
  S   S195      1.0  0.89700  0.05926  0.16005  1.0000
  S   S196      1.0  0.87003  0.45493  0.12306  1.0000
  Fe  Fe99      1.0  0.86770  0.04280  0.12906  1.0000
  S   S197      1.0  0.83129  0.04721  0.11911  1.0000
  Fe  Fe100     1.0  0.93045  0.06988  0.13352  1.0000
  S   S198      1.0  0.97143  0.10772  0.14006  1.0000
  S   S199      1.0  0.86251  0.00162  0.13187  1.0000
  S   S200      1.0  0.92820  0.03002  0.13447  1.0000
  Fe  Fe101     1.0  0.64527  0.18162  0.23700  1.0000
  C   C576      1.0  0.75488  0.25967  0.17639  1.0000
  S   S201      1.0  0.68022  0.22498  0.23437  1.0000
  Fe  Fe102     1.0  0.58638  0.13911  0.22231  1.0000
  H   H576      1.0  0.73392  0.01226  0.11108  1.0000
  S   S202      1.0  0.55589  0.12642  0.19128  1.0000
  Fe  Fe103     1.0  0.62474  0.12163  0.24159  1.0000
  S   S203      1.0  0.63095  0.08633  0.24363  1.0000
  H   H577      1.0  0.72272  0.31515  0.20018  1.0000
  S   S204      1.0  0.62759  0.14760  0.21031  1.0000
  Fe  Fe104     1.0  0.65823  0.46843  0.12690  1.0000
  H   H578      1.0  0.98197  0.14964  0.17957  1.0000
  S   S205      1.0  0.69264  0.46023  0.13439  1.0000
  Fe  Fe105     1.0  0.59971  0.45400  0.14250  1.0000
  H   H579      1.0  0.56826  0.48311  0.15982  1.0000
  S   S206      1.0  0.56889  0.43456  0.17315  1.0000
  Fe  Fe106     1.0  0.61874  0.46797  0.09030  1.0000
  S   S207      1.0  0.60623  0.45805  0.05151  1.0000
  N   N50       1.0  0.59141  0.07891  0.16617  1.0000
  S   S208      1.0  0.66049  0.05959  0.14257  1.0000
  S   S209      1.0  0.61642  0.43638  0.11588  1.0000
  C   C577      1.0  0.99621  0.08685  0.16931  1.0000
  H   H580      1.0  0.95756  0.05335  0.23311  1.0000
  C   C578      1.0  0.75375  0.07927  0.12251  1.0000
  H   H581      1.0  0.72501  0.27713  0.24461  1.0000
  C   C579      1.0  0.57243  0.02898  0.18770  1.0000
  H   H582      1.0  0.57656  0.08911  0.19713  1.0000
  H   H583      1.0  0.78761  0.48454  0.13949  1.0000
  H   H584      1.0  0.66316  0.04886  0.03062  1.0000
  C   C580      1.0  0.64086  0.07964  0.21608  1.0000
  C   C581      1.0  0.63590  0.05374  0.21140  1.0000
  C   C582      1.0  0.64216  0.04757  0.18890  1.0000
  C   C583      1.0  0.65396  0.06741  0.17123  1.0000
  C   C584      1.0  0.65951  0.09352  0.17611  1.0000
  C   C585      1.0  0.65280  0.09961  0.19851  1.0000
  H   H585      1.0  0.62651  0.03822  0.22493  1.0000
  H   H586      1.0  0.63707  0.02726  0.18514  1.0000
  H   H587      1.0  0.66875  0.10896  0.16250  1.0000
  H   H588      1.0  0.65723  0.11979  0.20228  1.0000
  C   C586      1.0  0.79702  0.02540  0.12741  1.0000
  H   H589      1.0  0.73601  0.24281  0.18389  1.0000
  H   H590      1.0  0.84220  0.46034  0.02605  1.0000
  Fe  Fe107     1.0  0.87572  0.49627  0.12457  1.0000
  C   C587      1.0  0.78407  0.30721  0.18599  1.0000
  C   C588      1.0  0.77650  0.02590  0.11397  1.0000
  C   C589      1.0  0.89390  0.45563  0.02604  1.0000
  H   H591      1.0  0.73827  0.45306  0.14011  1.0000
  H   H592      1.0  0.77157  0.25678  0.18293  1.0000
  H   H593      1.0  0.78169  0.03803  0.09787  1.0000
  Fe  Fe108     1.0  0.64830  0.01621  0.13825  1.0000
  N   N51       1.0  0.92099  0.45601  0.18794  1.0000
  H   H594      1.0  0.88012  0.42933  0.08021  1.0000
  C   C590      1.0  0.52000  0.10666  0.18869  1.0000
  C   C591      1.0  0.55907  0.47854  0.02319  1.0000
  H   H595      1.0  0.92645  0.42901  0.16548  1.0000
  H   H596      1.0  0.76479  0.05114  0.18161  1.0000
  H   H597      1.0  0.70883  0.02229  0.17884  1.0000
  H   H598      1.0  0.86305  0.41428  0.05267  1.0000
  C   C592      1.0  0.64304  0.00895  0.04579  1.0000
  S   S210      1.0  0.58306  0.11123  0.25202  1.0000
  C   C593      1.0  0.60257  0.10563  0.15538  1.0000
  H   H599      1.0  0.80818  0.34942  0.19439  1.0000
  H   H600      1.0  0.64686  0.01589  0.06416  1.0000
  C   C594      1.0  0.84543  0.03075  0.04489  1.0000
  C   C595      1.0  0.76112  0.27473  0.24060  1.0000
  H   H601      1.0  0.72264  0.05274  0.19631  1.0000
  C   C596      1.0  0.77181  0.25820  0.23530  1.0000
  H   H602      1.0  0.72538  0.48197  0.18854  1.0000
  S   S211      1.0  0.67126  0.00596  0.11189  1.0000
  C   C597      1.0  0.71524  0.23660  0.23670  1.0000
  C   C598      1.0  0.72590  0.21982  0.23258  1.0000
  C   C599      1.0  0.75402  0.23061  0.23179  1.0000
  C   C600      1.0  0.98138  0.40001  0.20451  1.0000
  C   C601      1.0  0.58529  0.03445  0.16545  1.0000
  C   C602      1.0  0.73301  0.26397  0.24124  1.0000
  H   H603      1.0  0.59079  0.11535  0.16076  1.0000
  C   C603      1.0  0.96440  0.39206  0.18450  1.0000
  S   S212      1.0  0.59925  0.48325  0.11594  1.0000
  C   C604      1.0  0.51740  0.42077  0.15691  1.0000
  C   C605      1.0  0.53356  0.42191  0.17618  1.0000
  C   C606      1.0  0.52140  0.41274  0.19885  1.0000
  H   H604      1.0  0.89706  0.43954  0.21948  1.0000
  H   H605      1.0  0.92793  0.06055  0.20552  1.0000
  H   H606      1.0  0.52632  0.42765  0.13936  1.0000
  H   H607      1.0  0.53362  0.41346  0.21391  1.0000
  H   H608      1.0  0.96341  0.39220  0.14580  1.0000
  C   C607      1.0  0.84280  0.41227  0.19513  1.0000
  C   C608      1.0  0.83758  0.43288  0.18939  1.0000
  C   C609      1.0  0.84566  0.44595  0.16711  1.0000
  C   C610      1.0  0.85861  0.43812  0.15047  1.0000
  C   C611      1.0  0.86313  0.41701  0.15593  1.0000
  C   C612      1.0  0.85545  0.40428  0.17831  1.0000
  H   H609      1.0  0.82771  0.43908  0.20232  1.0000
  H   H610      1.0  0.84158  0.46185  0.16276  1.0000
  H   H611      1.0  0.87311  0.41088  0.14307  1.0000
  H   H612      1.0  0.85971  0.38858  0.18253  1.0000
  C   C613      1.0  0.50307  0.09508  0.20856  1.0000
  C   C614      1.0  0.61923  0.48461  0.03066  1.0000
  C   C615      1.0  0.92574  0.43342  0.18479  1.0000
  H   H613      1.0  0.60609  0.06423  0.13824  1.0000
  H   H614      1.0  0.71658  0.27123  0.18759  1.0000
  C   C616      1.0  0.59501  0.05978  0.15502  1.0000
  C   C617      1.0  0.87151  0.43283  0.06362  1.0000
  H   H615      1.0  0.84107  0.01499  0.08079  1.0000
  N   N52       1.0  0.73735  0.05734  0.16059  1.0000
  C   C618      1.0  0.76180  0.05972  0.16535  1.0000
  C   C619      1.0  0.73304  0.06665  0.13938  1.0000
  C   C620      1.0  0.78307  0.07258  0.14905  1.0000
  C   C621      1.0  0.72772  0.48310  0.13130  1.0000
  C   C622      1.0  0.77896  0.08238  0.12749  1.0000
  C   C623      1.0  0.71562  0.04406  0.17819  1.0000
  H   H616      1.0  0.79119  0.47804  0.01872  1.0000
  C   C624      1.0  0.90203  0.47804  0.21059  1.0000
  H   H617      1.0  0.80142  0.30498  0.18244  1.0000
  C   C625      1.0  0.84330  0.02470  0.02035  1.0000
  C   C626      1.0  0.73676  0.28841  0.18880  1.0000
  H   H618      1.0  0.75012  0.08625  0.10558  1.0000
  C   C627      1.0  0.78808  0.33230  0.19290  1.0000
  H   H619      1.0  0.62370  0.11848  0.16131  1.0000
  C   C628      1.0  0.65222  0.02762  0.02675  1.0000
  H   H620      1.0  0.79509  0.09157  0.11439  1.0000
  H   H621      1.0  0.69809  0.04648  0.17367  1.0000
  N   N53       1.0  0.98000  0.12425  0.20831  1.0000
  C   C629      1.0  0.94703  0.07739  0.21103  1.0000
  C   C630      1.0  0.90621  0.45635  0.20707  1.0000
  H   H622      1.0  0.77889  0.48103  0.06115  1.0000
  C   C631      1.0  0.50816  0.10251  0.16577  1.0000
  C   C632      1.0  0.56929  0.04878  0.19915  1.0000
  H   H623      1.0  0.55468  0.47900  0.20243  1.0000
  H   H624      1.0  0.90623  0.47999  0.08221  1.0000
  C   C633      1.0  0.57893  0.07377  0.18805  1.0000
  H   H625      1.0  0.71255  0.19872  0.22909  1.0000
  H   H626      1.0  0.97277  0.39539  0.22236  1.0000
  H   H627      1.0  0.80532  0.00881  0.15870  1.0000
  H   H628      1.0  0.52090  0.11137  0.15022  1.0000
  S   S213      1.0  0.88343  0.32755  0.24609  1.0000
  C   C634      1.0  0.85585  0.48067  0.02017  1.0000
  H   H629      1.0  0.94439  0.47712  0.15731  1.0000
  C   C635      1.0  0.91240  0.47849  0.01333  1.0000
  C   C636      1.0  0.74009  0.31317  0.19604  1.0000
  N   N54       1.0  0.75865  0.28563  0.18422  1.0000
  H   H630      1.0  0.85490  0.43636  0.06903  1.0000
  C   C637      1.0  0.90461  0.02276  0.03811  1.0000
  C   C638      1.0  0.74593  0.47401  0.13585  1.0000
  H   H631      1.0  0.76907  0.35461  0.20383  1.0000
  H   H632      1.0  0.86567  0.49612  0.05600  1.0000
  H   H633      1.0  0.55526  0.46761  0.04001  1.0000
  C   C639      1.0  0.74935  0.01136  0.12148  1.0000
  C   C640      1.0  0.83933  0.01052  0.06172  1.0000
  H   H634      1.0  0.76205  0.21760  0.22776  1.0000
  H   H635      1.0  0.77450  0.29597  0.24341  1.0000
  C   C641      1.0  0.97623  0.39829  0.16146  1.0000
  S   S214      1.0  0.64149  0.48282  0.15583  1.0000
  H   H636      1.0  0.85189  0.05099  0.05090  1.0000
  H   H637      1.0  0.75417  0.25854  0.15650  1.0000
  S   S215      1.0  0.80688  0.27126  0.23083  1.0000
  N   N55       1.0  0.89208  0.45627  0.05052  1.0000
  C   C642      1.0  0.76597  0.33523  0.19812  1.0000
  Fe  Fe109     1.0  0.89448  0.01915  0.16028  1.0000
  H   H638      1.0  0.71345  0.06417  0.13531  1.0000
  H   H639      1.0  0.88971  0.47787  0.22542  1.0000
  H   H640      1.0  0.97936  0.16074  0.20938  1.0000
  H   H641      1.0  0.60202  0.10450  0.13547  1.0000
  S   S216      1.0  0.89637  0.39029  0.24325  1.0000
  H   H642      1.0  0.88029  0.43777  0.01602  1.0000
  H   H643      1.0  0.55985  0.04501  0.21668  1.0000
  C   C643      1.0  0.77395  0.49182  0.13546  1.0000
  C   C644      1.0  0.90825  0.47933  0.06289  1.0000
  H   H644      1.0  0.51167  0.09809  0.22633  1.0000
  C   C645      1.0  0.78987  0.00944  0.14810  1.0000
  C   C646      1.0  0.93247  0.47725  0.17233  1.0000
  S   S217      1.0  0.60429  0.17537  0.24681  1.0000
  C   C647      1.0  0.80259  0.49647  0.02882  1.0000
  C   C648      1.0  0.98845  0.09514  0.23325  1.0000
  H   H645      1.0  0.94283  0.10591  0.18930  1.0000
  C   C649      1.0  0.95552  0.10311  0.20202  1.0000
  H   H646      1.0  0.58870  0.01956  0.15676  1.0000
  C   C650      1.0  0.90698  0.02905  0.01346  1.0000
  H   H647      1.0  0.68132  0.47926  0.19467  1.0000
  N   N56       1.0  0.83546  0.99920  0.01284  1.0000
  H   H648      1.0  0.97836  0.06749  0.16689  1.0000
  H   H649      1.0  0.56549  0.00964  0.19626  1.0000
  C   C651      1.0  0.98837  0.15102  0.19864  1.0000
  C   C652      1.0  0.99627  0.12064  0.22398  1.0000
  Fe  Fe110     1.0  0.87664  0.37328  0.45895  1.0000
  S   S218      1.0  0.64587  0.15598  0.26689  1.0000
  C   C653      1.0  0.60107  0.00916  0.49479  1.0000
  Fe  Fe111     1.0  0.84764  0.39091  0.42559  1.0000
  S   S219      1.0  0.81826  0.38665  0.45430  1.0000
  S   S220      1.0  0.84454  0.40375  0.38797  1.0000
  Fe  Fe112     1.0  0.85435  0.40703  0.47873  1.0000
  C   C654      1.0  0.65336  0.20116  0.33556  1.0000
  Fe  Fe113     1.0  0.81608  0.34728  0.46303  1.0000
  S   S221      1.0  0.77368  0.31074  0.46616  1.0000
  S   S222      1.0  0.88360  0.41410  0.44916  1.0000
  S   S223      1.0  0.84332  0.35067  0.43267  1.0000
  Fe  Fe114     1.0  0.87961  0.35681  0.27041  1.0000
  S   S224      1.0  0.89350  0.36124  0.30897  1.0000
  Fe  Fe115     1.0  0.63912  0.09379  0.48037  1.0000
  S   S225      1.0  0.61199  0.09660  0.45274  1.0000
  H   H650      1.0  0.55763  0.16041  0.48882  1.0000
  Fe  Fe116     1.0  0.68666  0.15133  0.46618  1.0000
  S   S226      1.0  0.66209  0.15710  0.43820  1.0000
  S   S227      1.0  0.72941  0.18492  0.47448  1.0000
  Fe  Fe117     1.0  0.62887  0.13897  0.46526  1.0000
  C   C655      1.0  0.62305  0.05039  0.34781  1.0000
  Fe  Fe118     1.0  0.64799  0.11442  0.42833  1.0000
  S   S228      1.0  0.64667  0.10412  0.38903  1.0000
  C   C656      1.0  0.97790  0.43882  0.48731  1.0000
  S   S229      1.0  0.67465  0.10900  0.45488  1.0000
  H   H651      1.0  0.84562  0.99767  0.47971  1.0000
  S   S230      1.0  0.59368  0.14726  0.31456  1.0000
  C   C657      1.0  0.63424  0.11921  0.36920  1.0000
  C   C658      1.0  0.64043  0.12058  0.34474  1.0000
  C   C659      1.0  0.62810  0.12914  0.32798  1.0000
  C   C660      1.0  0.60982  0.13694  0.33551  1.0000
  C   C661      1.0  0.60427  0.13645  0.36012  1.0000
  C   C662      1.0  0.61644  0.12758  0.37696  1.0000
  H   H652      1.0  0.65428  0.11430  0.33861  1.0000
  H   H653      1.0  0.63219  0.12883  0.30920  1.0000
  H   H654      1.0  0.59021  0.14251  0.36616  1.0000
  H   H655      1.0  0.61148  0.12653  0.39583  1.0000
  H   H656      1.0  0.68972  0.21720  0.28471  1.0000
  C   C663      1.0  0.94642  0.37034  0.49482  1.0000
  H   H657      1.0  0.94814  0.09716  0.49022  1.0000
  C   C664      1.0  0.58708  0.06172  0.34912  1.0000
  C   C665      1.0  0.76333  0.27598  0.46467  1.0000
  C   C666      1.0  0.77990  0.26604  0.47225  1.0000
  C   C667      1.0  0.76950  0.23808  0.47428  1.0000
  C   C668      1.0  0.74254  0.21972  0.46851  1.0000
  C   C669      1.0  0.72634  0.22967  0.45987  1.0000
  C   C670      1.0  0.73664  0.25760  0.45814  1.0000
  H   H658      1.0  0.80040  0.27986  0.47752  1.0000
  H   H659      1.0  0.55751  0.07445  0.34853  1.0000
  H   H660      1.0  0.55942  0.08006  0.30422  1.0000
  C   C671      1.0  0.87093  0.03672  0.49516  1.0000
  C   C672      1.0  0.57148  0.07284  0.31302  1.0000
  C   C673      1.0  0.91987  0.36145  0.48812  1.0000
  C   C674      1.0  0.90710  0.48672  0.49504  1.0000
  C   C675      1.0  0.86006  0.39421  0.36579  1.0000
  C   C676      1.0  0.85421  0.39504  0.34144  1.0000
  C   C677      1.0  0.86494  0.38567  0.32369  1.0000
  C   C678      1.0  0.88187  0.37578  0.33024  1.0000
  C   C679      1.0  0.88848  0.37591  0.35450  1.0000
  C   C680      1.0  0.87746  0.38488  0.37224  1.0000
  H   H661      1.0  0.84088  0.40238  0.33632  1.0000
  H   H662      1.0  0.85987  0.38582  0.30501  1.0000
  H   H663      1.0  0.90184  0.36862  0.35965  1.0000
  H   H664      1.0  0.88240  0.38449  0.39092  1.0000
  N   N57       1.0  0.91837  0.05577  0.48863  1.0000
  H   H665      1.0  0.66109  0.18513  0.36779  1.0000
  H   H666      1.0  0.93032  0.03194  0.46854  1.0000
  H   H667      1.0  0.60763  0.01749  0.47700  1.0000
  C   C681      1.0  0.69005  0.19241  0.33994  1.0000
  H   H668      1.0  0.96259  0.38117  0.48210  1.0000
  N   N58       1.0  0.60448  0.05717  0.33586  1.0000
  C   C682      1.0  0.69807  0.20148  0.31647  1.0000
  C   C683      1.0  0.86598  0.01429  0.48170  1.0000
  H   H669      1.0  0.64391  0.06764  0.34657  1.0000
  H   H670      1.0  0.64988  0.23864  0.30425  1.0000
  Fe  Fe119     1.0  0.60440  0.14761  0.27540  1.0000
  H   H671      1.0  0.61998  0.05743  0.30090  1.0000
  C   C684      1.0  0.58967  0.15346  0.49948  1.0000
  C   C685      1.0  0.69955  0.25343  0.50654  1.0000
  C   C686      1.0  0.91371  0.03379  0.47551  1.0000
  H   H672      1.0  0.93590  0.42596  0.48442  1.0000
  H   H673      1.0  0.68869  0.26295  0.49975  1.0000
  H   H674      1.0  0.59053  0.07083  0.28036  1.0000
  H   H675      1.0  0.65456  0.22016  0.48495  1.0000
  S   S231      1.0  0.91338  0.36922  0.45953  1.0000
  C   C687      1.0  0.89743  0.05737  0.49852  1.0000
  H   H676      1.0  0.98168  0.44279  0.46825  1.0000
  C   C688      1.0  0.57035  0.06963  0.33791  1.0000
  N   N59       1.0  0.85276  0.48228  0.46380  1.0000
  H   H677      1.0  0.70089  0.18506  0.35055  1.0000
  H   H678      1.0  0.72361  0.26503  0.45229  1.0000
  N   N60       1.0  0.68787  0.22607  0.50668  1.0000
  C   C689      1.0  0.84276  0.45106  0.43152  1.0000
  C   C690      1.0  0.66020  0.20938  0.49821  1.0000
  H   H679      1.0  0.58701  0.06056  0.36858  1.0000
  S   S232      1.0  0.83637  0.34193  0.26155  1.0000
  H   H680      1.0  0.63544  0.20026  0.34296  1.0000
  H   H681      1.0  0.58387  0.08336  0.50058  1.0000
  C   C691      1.0  0.96878  0.31377  0.48283  1.0000
  C   C692      1.0  0.52642  0.08638  0.49908  1.0000
  C   C693      1.0  0.94592  0.07710  0.49350  1.0000
  H   H682      1.0  0.62372  0.20412  0.29990  1.0000
  N   N61       1.0  0.83817  0.31345  0.34785  1.0000
  C   C694      1.0  0.82722  0.31588  0.32684  1.0000
  C   C695      1.0  0.83067  0.31922  0.36933  1.0000
  C   C696      1.0  0.80892  0.32520  0.32694  1.0000
  C   C697      1.0  0.81244  0.32860  0.37009  1.0000
  C   C698      1.0  0.80170  0.33179  0.34873  1.0000
  C   C699      1.0  0.85771  0.30415  0.34753  1.0000
  H   H683      1.0  0.83342  0.31163  0.30978  1.0000
  H   H684      1.0  0.83944  0.31742  0.38598  1.0000
  H   H685      1.0  0.80114  0.32812  0.31017  1.0000
  H   H686      1.0  0.80738  0.33423  0.38706  1.0000
  H   H687      1.0  0.78832  0.33997  0.34906  1.0000
  H   H688      1.0  0.86708  0.30685  0.32948  1.0000
  H   H689      1.0  0.87449  0.31618  0.36012  1.0000
  H   H690      1.0  0.84777  0.28263  0.35261  1.0000
  C   C700      1.0  0.66774  0.19251  0.34967  1.0000
  H   H691      1.0  0.71535  0.20144  0.30865  1.0000
  C   C701      1.0  0.60569  0.06026  0.31143  1.0000
  H   H692      1.0  0.90847  0.47654  0.47927  1.0000
  C   C702      1.0  0.83584  0.45813  0.45330  1.0000
  H   H693      1.0  0.62215  0.03251  0.33940  1.0000
  C   C703      1.0  0.68341  0.21030  0.30297  1.0000
  S   S233      1.0  0.60225  0.15674  0.47024  1.0000
  S   S234      1.0  0.84945  0.36718  0.49029  1.0000
  C   C704      1.0  0.88443  0.49319  0.43153  1.0000
  H   H694      1.0  0.51416  0.09041  0.48687  1.0000
  C   C705      1.0  0.88747  0.01275  0.47181  1.0000
  S   S235      1.0  0.65419  0.13586  0.49414  1.0000
  H   H695      1.0  0.61839  0.04611  0.36726  1.0000
  N   N62       1.0  0.66107  0.20957  0.31244  1.0000
  H   H696      1.0  0.70561  0.21587  0.45531  1.0000
  S   S236      1.0  0.86045  0.43868  0.50692  1.0000
  H   H697      1.0  0.87301  0.46285  0.40411  1.0000
  C   C706      1.0  0.58910  0.06794  0.29966  1.0000
  C   C707      1.0  0.61609  0.48884  0.50320  1.0000
  H   H698      1.0  0.87841  0.33976  0.49922  1.0000
  H   H699      1.0  0.65059  0.21985  0.27869  1.0000
  H   H700      1.0  0.65767  0.19120  0.48892  1.0000
  C   C708      1.0  0.94375  0.31028  0.48921  1.0000
  C   C709      1.0  0.89903  0.34738  0.50456  1.0000
  H   H701      1.0  0.62518  0.47974  0.49260  1.0000
  C   C710      1.0  0.64563  0.21856  0.29813  1.0000
  H   H702      1.0  0.81698  0.44409  0.46187  1.0000
  H   H703      1.0  0.93291  0.31612  0.47689  1.0000
  H   H704      1.0  0.96092  0.07565  0.48197  1.0000
  C   C711      1.0  0.54962  0.08693  0.49081  1.0000
  C   C712      1.0  0.98265  0.30660  0.49903  1.0000
  C   C713      1.0  0.56569  0.08263  0.50701  1.0000
  H   H705      1.0  0.82926  0.43201  0.42305  1.0000
  C   C714      1.0  0.56678  0.15557  0.50352  1.0000
  H   H706      1.0  0.55562  0.09155  0.47214  1.0000
  C   C715      1.0  0.86733  0.46855  0.42076  1.0000
  H   H707      1.0  0.78223  0.23064  0.48096  1.0000
  H   H708      1.0  0.85452  0.03767  0.50381  1.0000
  H   H709      1.0  0.97752  0.32226  0.46547  1.0000
  C   C716      1.0  0.95203  0.42926  0.49659  1.0000
  H   H710      1.0  0.50062  0.26618  0.50851  1.0000
  H   H711      1.0  0.83521  0.47231  0.49866  1.0000
  C   C717      1.0  0.84452  0.48970  0.48608  1.0000
  H   H712      1.0  0.82987  0.49639  0.48210  1.0000
  Fe  Fe120     1.0  0.54239  0.34530  0.56330  1.0000
  C   C718      1.0  0.62206  0.49205  0.58250  1.0000
  S   S237      1.0  0.54749  0.30970  0.55299  1.0000
  Fe  Fe121     1.0  0.56241  0.40601  0.55236  1.0000
  S   S238      1.0  0.53518  0.40769  0.58048  1.0000
  S   S239      1.0  0.59202  0.44082  0.52810  1.0000
  Fe  Fe122     1.0  0.54746  0.38352  0.60354  1.0000
  S   S240      1.0  0.56011  0.39335  0.64232  1.0000
  H   H713      1.0  0.97792  0.27905  0.58382  1.0000
  H   H714      1.0  0.98427  0.32192  0.68211  1.0000
  S   S241      1.0  0.57699  0.38433  0.57653  1.0000
  S   S242      1.0  0.53051  0.36683  0.53652  1.0000
  S   S243      1.0  0.54483  0.12778  0.72382  1.0000
  Fe  Fe123     1.0  0.93858  0.08761  0.56601  1.0000
  S   S244      1.0  0.97986  0.09269  0.56564  1.0000
  S   S245      1.0  0.90117  0.04651  0.55859  1.0000
  Fe  Fe124     1.0  0.96185  0.14963  0.57288  1.0000
  H   H715      1.0  0.58496  0.45017  0.62799  1.0000
  S   S246      1.0  0.95366  0.18393  0.58116  1.0000
  C   C719      1.0  0.93642  0.28383  0.55200  1.0000
  S   S247      1.0  0.55028  0.13285  0.57310  1.0000
  C   C720      1.0  0.51993  0.37348  0.70586  1.0000
  H   H716      1.0  0.59830  0.08842  0.54267  1.0000
  S   S248      1.0  0.94828  0.12198  0.54084  1.0000
  S   S249      1.0  0.94726  0.11450  0.59855  1.0000
  S   S250      1.0  0.94528  0.34850  0.72082  1.0000
  C   C721      1.0  0.56644  0.14343  0.54531  1.0000
  C   C722      1.0  0.98155  0.17197  0.68350  1.0000
  C   C723      1.0  0.54035  0.38284  0.68836  1.0000
  N   N63       1.0  0.94684  0.42295  0.52043  1.0000
  Fe  Fe125     1.0  0.50441  0.36724  0.56634  1.0000
  C   C724      1.0  0.90484  0.34260  0.52787  1.0000
  H   H717      1.0  0.50994  0.31254  0.51368  1.0000
  Fe  Fe126     1.0  0.98976  0.12762  0.54149  1.0000
  C   C725      1.0  0.59665  0.01490  0.53711  1.0000
  H   H718      1.0  0.92181  0.38308  0.73398  1.0000
  C   C726      1.0  0.89876  0.01849  0.54247  1.0000
  C   C727      1.0  0.52368  0.11864  0.67838  1.0000
  C   C728      1.0  0.53411  0.38171  0.66387  1.0000
  C   C729      1.0  0.50732  0.37132  0.65696  1.0000
  C   C730      1.0  0.95226  0.36617  0.51825  1.0000
  H   H719      1.0  0.54401  0.12564  0.67227  1.0000
  C   C731      1.0  0.58619  0.48585  0.53502  1.0000
  C   C732      1.0  0.97888  0.11106  0.66339  1.0000
  H   H720      1.0  0.93600  0.99736  0.51146  1.0000
  S   S251      1.0  0.93856  0.34507  0.56343  1.0000
  H   H721      1.0  0.98246  0.18766  0.63200  1.0000
  C   C733      1.0  0.70164  0.21411  0.51524  1.0000
  C   C734      1.0  0.57682  0.07488  0.54752  1.0000
  H   H722      1.0  0.63895  0.44413  0.57866  1.0000
  C   C735      1.0  0.59901  0.45834  0.61307  1.0000
  C   C736      1.0  0.96754  0.23734  0.58226  1.0000
  H   H723      1.0  0.54123  0.20309  0.74271  1.0000
  H   H724      1.0  0.52391  0.16824  0.67294  1.0000
  H   H725      1.0  0.61961  0.14681  0.51600  1.0000
  C   C737      1.0  0.99328  0.43656  0.52705  1.0000
  H   H726      1.0  0.94805  0.23002  0.59055  1.0000
  C   C738      1.0  0.49772  0.30765  0.68779  1.0000
  H   H727      1.0  0.55163  0.26256  0.54554  1.0000
  H   H728      1.0  0.86928  0.47569  0.54514  1.0000
  H   H729      1.0  0.88869  0.33149  0.54054  1.0000
  H   H730      1.0  0.96351  0.15272  0.64061  1.0000
  H   H731      1.0  0.73581  0.29129  0.51296  1.0000
  C   C739      1.0  0.51819  0.11698  0.70308  1.0000
  H   H732      1.0  0.95024  0.29827  0.56555  1.0000
  C   C740      1.0  0.93150  0.35209  0.53472  1.0000
  H   H733      1.0  0.94963  0.09743  0.69199  1.0000
  H   H734      1.0  0.95981  0.16157  0.68228  1.0000
  H   H735      1.0  0.90088  0.33788  0.75241  1.0000
  H   H736      1.0  0.91962  0.07084  0.74304  1.0000
  H   H737      1.0  0.76139  0.26989  0.52762  1.0000
  H   H738      1.0  0.90427  0.40073  0.51594  1.0000
  H   H739      1.0  0.98038  0.36646  0.63853  1.0000
  C   C741      1.0  0.93311  0.30003  0.51193  1.0000
  C   C742      1.0  0.97122  0.36390  0.69930  1.0000
  C   C743      1.0  0.96500  0.35900  0.67481  1.0000
  H   H740      1.0  0.73941  0.22005  0.52877  1.0000
  H   H741      1.0  0.56104  0.39090  0.69383  1.0000
  C   C744      1.0  0.53618  0.07744  0.53905  1.0000
  H   H742      1.0  0.94435  0.34621  0.66933  1.0000
  H   H743      1.0  0.95109  0.07606  0.51254  1.0000
  C   C745      1.0  0.98399  0.17058  0.63955  1.0000
  C   C746      1.0  0.60400  0.48206  0.60179  1.0000
  H   H744      1.0  0.93429  0.26380  0.55524  1.0000
  H   H745      1.0  0.57264  0.05387  0.54664  1.0000
  C   C747      1.0  0.59773  0.47370  0.52152  1.0000
  C   C748      1.0  0.52549  0.27547  0.56075  1.0000
  C   C749      1.0  0.90773  0.37803  0.74879  1.0000
  H   H746      1.0  0.90123  0.07416  0.50993  1.0000
  C   C750      1.0  0.88511  0.48632  0.53208  1.0000
  H   H747      1.0  0.50235  0.31894  0.67110  1.0000
  C   C751      1.0  0.62951  0.45512  0.58530  1.0000
  C   C752      1.0  0.60166  0.14775  0.51867  1.0000
  S   S252      1.0  0.97878  0.11284  0.73627  1.0000
  C   C753      1.0  0.56304  0.19181  0.70553  1.0000
  H   H748      1.0  0.52015  0.21395  0.55249  1.0000
  C   C754      1.0  0.92135  0.01853  0.53300  1.0000
  C   C755      1.0  0.72815  0.22966  0.52320  1.0000
  C   C756      1.0  0.51947  0.08137  0.52331  1.0000
  H   H749      1.0  0.91667  0.42972  0.53516  1.0000
  C   C757      1.0  0.91954  0.41275  0.52974  1.0000
  H   H750      1.0  0.53118  0.07464  0.55802  1.0000
  H   H751      1.0  0.98142  0.17401  0.72231  1.0000
  C   C758      1.0  0.99361  0.17907  0.70617  1.0000
  N   N64       1.0  0.53518  0.18588  0.70774  1.0000
  H   H752      1.0  0.60824  0.42644  0.61367  1.0000
  H   H753      1.0  0.52556  0.28521  0.72897  1.0000
  C   C759      1.0  0.60535  0.02635  0.51411  1.0000
  C   C760      1.0  0.98541  0.37040  0.65734  1.0000
  H   H754      1.0  0.53726  0.15171  0.52938  1.0000
  C   C761      1.0  0.97568  0.21887  0.57564  1.0000
  H   H755      1.0  0.98249  0.29127  0.53418  1.0000
  C   C762      1.0  0.65349  0.48914  0.55435  1.0000
  H   H756      1.0  0.96307  0.42179  0.55463  1.0000
  N   N65       1.0  0.55919  0.07858  0.53086  1.0000
  H   H757      1.0  0.91029  0.41665  0.74955  1.0000
  C   C763      1.0  0.97081  0.10773  0.68761  1.0000
  H   H758      1.0  0.57049  0.18885  0.72307  1.0000
  H   H759      1.0  0.91554  0.39920  0.54539  1.0000
  N   N66       1.0  0.94704  0.29345  0.52784  1.0000
  H   H760      1.0  0.56464  0.17779  0.69281  1.0000
  H   H761      1.0  0.50178  0.08145  0.53003  1.0000
  C   C764      1.0  0.98439  0.26517  0.57834  1.0000
  H   H762      1.0  0.96397  0.10331  0.64929  1.0000
  C   C765      1.0  0.59019  0.14290  0.54156  1.0000
  C   C766      1.0  0.51468  0.22855  0.55816  1.0000
  C   C767      1.0  0.96714  0.42684  0.53572  1.0000
  H   H763      1.0  0.59924  0.13787  0.55623  1.0000
  C   C768      1.0  0.61204  0.44491  0.60496  1.0000
  H   H764      1.0  0.53652  0.31076  0.69038  1.0000
  C   C769      1.0  0.50305  0.11173  0.66148  1.0000
  S   S253      1.0  0.51417  0.34326  0.59201  1.0000
  N   N67       1.0  0.63431  0.47841  0.57435  1.0000
  Fe  Fe127     1.0  0.50828  0.12588  0.57420  1.0000
  H   H765      1.0  0.59384  0.49256  0.60787  1.0000
  H   H766      1.0  0.59997  0.02788  0.55228  1.0000
  H   H767      1.0  0.52493  0.37432  0.72467  1.0000
  H   H768      1.0  0.64909  0.47302  0.54110  1.0000
  H   H769      1.0  0.94116  0.03539  0.53639  1.0000
  C   C770      1.0  0.53247  0.25615  0.55415  1.0000
  Fe  Fe128     1.0  0.98273  0.36175  0.56871  1.0000
  H   H770      1.0  0.91651  0.28225  0.55479  1.0000
  C   C771      1.0  0.51081  0.28888  0.72029  1.0000
  H   H771      1.0  0.57205  0.47457  0.54914  1.0000
  C   C772      1.0  0.50059  0.18743  0.73073  1.0000
  C   C773      1.0  0.51692  0.30310  0.69867  1.0000
  S   S254      1.0  0.99657  0.34362  0.59690  1.0000
  C   C774      1.0  0.72607  0.26959  0.51430  1.0000
  S   S255      1.0  0.49805  0.14795  0.60146  1.0000
  C   C775      1.0  0.88644  0.47259  0.51169  1.0000
  S   S256      1.0  0.62136  0.06210  0.51078  1.0000
  H   H772      1.0  0.50756  0.11338  0.64248  1.0000
  C   C776      1.0  0.51753  0.17375  0.68924  1.0000
  H   H773      1.0  0.57422  0.07982  0.56625  1.0000
  C   C777      1.0  0.74047  0.25757  0.52253  1.0000
  C   C778      1.0  0.97136  0.29632  0.52155  1.0000
  C   C779      1.0  0.98995  0.11758  0.70613  1.0000
  C   C780      1.0  0.52721  0.19331  0.72807  1.0000
  H   H774      1.0  0.57610  0.21273  0.69925  1.0000
  H   H775      1.0  0.99237  0.28675  0.65307  1.0000
  C   C781      1.0  0.55511  0.15045  0.52644  1.0000
  H   H776      1.0  0.90036  0.03840  0.75684  1.0000
  H   H777      1.0  0.97288  0.37416  0.52352  1.0000
  H   H778      1.0  0.50230  0.37045  0.63814  1.0000
  H   H779      1.0  0.64597  0.20306  0.51358  1.0000
  C   C782      1.0  0.50060  0.26684  0.57181  1.0000
  H   H780      1.0  0.69258  0.19245  0.51508  1.0000
  Fe  Fe129     1.0  0.98947  0.12206  0.59592  1.0000
  C   C783      1.0  0.90127  0.39679  0.75753  1.0000
  H   H781      1.0  0.91395  0.29803  0.51693  1.0000
  H   H782      1.0  0.99558  0.16542  0.62679  1.0000
  Fe  Fe130     1.0  0.85393  0.45818  0.88381  1.0000
  H   H783      1.0  0.87606  0.03415  0.79259  1.0000
  S   S257      1.0  0.87544  0.44733  0.85457  1.0000
  Fe  Fe131     1.0  0.80570  0.46704  0.89813  1.0000
  C   C784      1.0  0.85233  0.35738  0.80645  1.0000
  H   H784      1.0  0.58462  0.00544  0.87019  1.0000
  H   H785      1.0  0.69422  0.15445  0.88660  1.0000
  H   H786      1.0  0.58881  0.48742  0.84291  1.0000
  Fe  Fe132     1.0  0.84480  0.46946  0.93597  1.0000
  S   S258      1.0  0.84613  0.45951  0.97511  1.0000
  H   H787      1.0  0.52253  0.28677  0.78450  1.0000
  S   S259      1.0  0.81857  0.43726  0.90943  1.0000
  H   H788      1.0  0.84719  0.01064  0.97631  1.0000
  S   S260      1.0  0.51744  0.14110  0.82718  1.0000
  H   H789      1.0  0.83168  0.34594  0.79908  1.0000
  N   N68       1.0  0.90700  0.07173  0.77881  1.0000
  S   S261      1.0  0.56605  0.15935  0.78861  1.0000
  Fe  Fe133     1.0  0.54525  0.12565  0.81588  1.0000
  S   S262      1.0  0.55759  0.10623  0.84614  1.0000
  Fe  Fe134     1.0  0.53528  0.17182  0.79741  1.0000
  S   S263      1.0  0.54598  0.21601  0.79568  1.0000
  S   S264      1.0  0.51639  0.09691  0.78858  1.0000
  H   H790      1.0  0.93365  0.49521  0.82701  1.0000
  Fe  Fe135     1.0  0.68881  0.01823  0.90280  1.0000
  H   H791      1.0  0.57814  0.46728  0.81653  1.0000
  H   H792      1.0  0.58718  0.30238  0.83243  1.0000
  Fe  Fe136     1.0  0.65073  0.04124  0.88952  1.0000
  S   S265      1.0  0.62098  0.01664  0.91807  1.0000
  S   S266      1.0  0.64413  0.06792  0.86264  1.0000
  Fe  Fe137     1.0  0.65688  0.02772  0.94151  1.0000
  S   S267      1.0  0.65897  0.04289  0.97929  1.0000
  S   S268      1.0  0.83793  0.48447  0.87006  1.0000
  S   S269      1.0  0.57631  0.45530  0.90146  1.0000
  S   S270      1.0  0.68683  0.05495  0.91379  1.0000
  C   C785      1.0  0.91435  0.11102  0.80021  1.0000
  C   C786      1.0  0.56833  0.99923  0.85667  1.0000
  S   S271      1.0  0.92962  0.32176  0.78675  1.0000
  Fe  Fe138     1.0  0.51793  0.36404  0.79808  1.0000
  N   N69       1.0  0.56501  0.32293  0.83561  1.0000
  S   S272      1.0  0.56158  0.38930  0.80723  1.0000
  Fe  Fe139     1.0  0.96589  0.32009  0.79971  1.0000
  S   S273      1.0  0.96349  0.28071  0.81085  1.0000
  Fe  Fe140     1.0  0.94233  0.35758  0.81093  1.0000
  S   S274      1.0  0.91182  0.36029  0.83579  1.0000
  S   S275      1.0  0.99303  0.34735  0.77086  1.0000
  S   S276      1.0  0.96794  0.38735  0.78260  1.0000
  C   C787      1.0  0.57295  0.43610  0.87609  1.0000
  C   C788      1.0  0.59513  0.44201  0.86161  1.0000
  C   C789      1.0  0.59166  0.42725  0.84060  1.0000
  C   C790      1.0  0.56597  0.40697  0.83391  1.0000
  C   C791      1.0  0.54389  0.40110  0.84848  1.0000
  C   C792      1.0  0.54743  0.41538  0.86972  1.0000
  H   H793      1.0  0.61495  0.45784  0.86663  1.0000
  H   H794      1.0  0.60881  0.43182  0.82936  1.0000
  H   H795      1.0  0.52397  0.38582  0.84333  1.0000
  H   H796      1.0  0.53021  0.41084  0.88086  1.0000
  C   C793      1.0  0.74960  0.47895  0.89408  1.0000
  N   N70       1.0  0.87212  0.36490  0.78706  1.0000
  H   H797      1.0  0.50395  0.25361  0.85116  1.0000
  C   C794      1.0  0.52275  0.22796  0.79428  1.0000
  S   S277      1.0  0.50576  0.14513  0.76991  1.0000
  C   C795      1.0  0.88307  0.38975  0.77663  1.0000
  C   C796      1.0  0.64743  0.01892  0.00280  1.0000
  H   H798      1.0  0.75385  0.48244  0.84197  1.0000
  C   C797      1.0  0.53213  0.25499  0.78813  1.0000
  H   H799      1.0  0.68966  0.12379  0.87304  1.0000
  H   H800      1.0  0.92606  0.13255  0.80298  1.0000
  C   C798      1.0  0.98339  0.26720  0.80009  1.0000
  H   H801      1.0  0.55307  0.26778  0.78347  1.0000
  C   C799      1.0  0.58085  0.09427  0.84939  1.0000
  C   C800      1.0  0.57867  0.07841  0.86956  1.0000
  C   C801      1.0  0.59716  0.06935  0.87352  1.0000
  C   C802      1.0  0.61854  0.07647  0.85755  1.0000
  C   C803      1.0  0.62059  0.09212  0.83730  1.0000
  C   C804      1.0  0.60184  0.10080  0.83314  1.0000
  H   H802      1.0  0.56261  0.07326  0.88234  1.0000
  H   H803      1.0  0.59526  0.05744  0.88923  1.0000
  H   H804      1.0  0.63696  0.09780  0.82475  1.0000
  H   H805      1.0  0.60396  0.11300  0.81757  1.0000
  C   C805      1.0  0.56802  0.30081  0.83665  1.0000
  H   H806      1.0  0.87807  0.40441  0.78330  1.0000
  H   H807      1.0  0.55634  0.48850  0.87006  1.0000
  S   S278      1.0  0.76267  0.45703  0.88968  1.0000
  C   C806      1.0  0.76591  0.00351  0.89070  1.0000
  C   C807      1.0  0.88640  0.05584  0.79410  1.0000
  H   H808      1.0  0.85519  0.34491  0.82014  1.0000
  H   H809      1.0  0.49831  0.05705  0.84515  1.0000
  H   H810      1.0  0.63878  0.07952  0.96479  1.0000
  H   H811      1.0  0.54680  0.44362  0.00146  1.0000
  C   C808      1.0  0.88751  0.42427  0.85146  1.0000
  C   C809      1.0  0.87851  0.40154  0.86605  1.0000
  C   C810      1.0  0.88695  0.38273  0.86150  1.0000
  C   C811      1.0  0.90485  0.38652  0.84261  1.0000
  C   C812      1.0  0.91456  0.40970  0.82851  1.0000
  C   C813      1.0  0.90566  0.42821  0.83272  1.0000
  H   H812      1.0  0.86446  0.39805  0.88043  1.0000
  H   H813      1.0  0.87919  0.36485  0.87250  1.0000
  H   H814      1.0  0.92826  0.41294  0.81388  1.0000
  H   H815      1.0  0.91266  0.44557  0.82118  1.0000
  C   C814      1.0  0.90714  0.03684  0.84744  1.0000
  C   C815      1.0  0.90511  0.05203  0.86600  1.0000
  C   C816      1.0  0.92223  0.07992  0.86634  1.0000
  C   C817      1.0  0.94140  0.09251  0.84820  1.0000
  C   C818      1.0  0.94308  0.07725  0.82955  1.0000
  C   C819      1.0  0.92616  0.04944  0.82926  1.0000
  H   H816      1.0  0.89006  0.04241  0.87983  1.0000
  H   H817      1.0  0.92058  0.09174  0.88063  1.0000
  H   H818      1.0  0.95684  0.08684  0.81497  1.0000
  H   H819      1.0  0.92756  0.03772  0.81476  1.0000
  C   C820      1.0  0.51483  0.26582  0.78869  1.0000
  Fe  Fe141     1.0  0.99407  0.14195  0.81966  1.0000
  H   H820      1.0  0.70423  0.11872  0.91508  1.0000
  C   C821      1.0  0.54066  0.47184  0.86008  1.0000
  H   H821      1.0  0.68578  0.09424  0.95336  1.0000
  H   H822      1.0  0.95038  0.05377  0.93356  1.0000
  S   S279      1.0  0.97620  0.35317  0.82642  1.0000
  H   H823      1.0  0.61083  0.09078  0.93824  1.0000
  C   C822      1.0  0.69143  0.48914  0.97256  1.0000
  H   H824      1.0  0.53813  0.33813  0.83860  1.0000
  C   C823      1.0  0.52659  0.44358  0.82583  1.0000
  H   H825      1.0  0.91292  0.47818  0.99385  1.0000
  H   H826      1.0  0.86355  0.05450  0.82542  1.0000
  H   H827      1.0  0.60728  0.35020  0.83145  1.0000
  H   H828      1.0  0.97985  0.10841  0.90792  1.0000
  H   H829      1.0  0.53105  0.43776  0.80868  1.0000
  H   H830      1.0  0.93757  0.11143  0.76979  1.0000
  C   C824      1.0  0.96317  0.04935  0.88224  1.0000
  C   C825      1.0  0.54052  0.32063  0.83995  1.0000
  H   H831      1.0  0.67548  0.46861  0.00627  1.0000
  C   C826      1.0  0.89340  0.09501  0.81589  1.0000
  C   C827      1.0  0.71169  0.48708  0.89021  1.0000
  N   N71       1.0  0.96229  0.06732  0.89772  1.0000
  H   H832      1.0  0.85462  0.37534  0.81603  1.0000
  H   H833      1.0  0.77472  0.01776  0.87611  1.0000
  H   H834      1.0  0.63021  0.11608  0.90056  1.0000
  H   H835      1.0  0.58769  0.36550  0.83893  1.0000
  S   S280      1.0  0.72725  0.01862  0.89094  1.0000
  S   S281      1.0  0.88066  0.48825  0.91144  1.0000
  C   C828      1.0  0.68371  0.48748  0.99656  1.0000
  H   H836      1.0  0.69081  0.47973  0.88581  1.0000
  S   S282      1.0  0.98799  0.15890  0.78574  1.0000
  C   C829      1.0  0.72225  0.46960  0.88935  1.0000
  H   H837      1.0  0.56107  0.01384  0.85706  1.0000
  C   C830      1.0  0.87923  0.06724  0.81280  1.0000
  C   C831      1.0  0.51827  0.29573  0.84584  1.0000
  H   H838      1.0  0.68956  0.47165  0.96344  1.0000
  S   S283      1.0  0.90204  0.01765  0.96528  1.0000
  S   S284      1.0  0.88557  0.00226  0.84602  1.0000
  C   C832      1.0  0.52125  0.27317  0.84734  1.0000
  N   N72       1.0  0.66822  0.11860  0.90553  1.0000
  C   C833      1.0  0.68384  0.11299  0.92025  1.0000
  C   C834      1.0  0.64251  0.11135  0.91208  1.0000
  C   C835      1.0  0.67355  0.09917  0.94188  1.0000
  C   C836      1.0  0.63144  0.09713  0.93342  1.0000
  C   C837      1.0  0.64709  0.09091  0.94833  1.0000
  C   C838      1.0  0.67955  0.13306  0.88295  1.0000
  H   H839      1.0  0.60730  0.45796  0.00035  1.0000
  C   C839      1.0  0.57351  0.47994  0.82841  1.0000
  C   C840      1.0  0.51480  0.45749  0.86992  1.0000
  H   H840      1.0  0.55613  0.47599  0.94180  1.0000
  H   H841      1.0  0.57759  0.00038  0.83886  1.0000
  H   H842      1.0  0.87000  0.32684  0.78705  1.0000
  C   C841      1.0  0.99472  0.23147  0.80242  1.0000
  C   C842      1.0  0.54627  0.27567  0.84277  1.0000
  C   C843      1.0  0.92089  0.09897  0.78163  1.0000
  C   C844      1.0  0.98075  0.09408  0.89591  1.0000
  H   H843      1.0  0.99476  0.27761  0.85348  1.0000
  H   H844      1.0  0.96118  0.23074  0.82059  1.0000
  C   C845      1.0  0.87843  0.34643  0.77863  1.0000
  S   S285      1.0  0.96300  0.12725  0.84893  1.0000
  C   C846      1.0  0.55444  0.46509  0.00129  1.0000
  C   C847      1.0  0.94215  0.05773  0.91699  1.0000
  S   S286      1.0  0.65584  0.00724  0.87575  1.0000
  H   H845      1.0  0.94836  0.02816  0.88350  1.0000
  H   H846      1.0  0.53861  0.44476  0.95758  1.0000
  H   H847      1.0  0.66366  0.13189  0.87078  1.0000
  C   C848      1.0  0.58762  0.34904  0.82842  1.0000
  H   H848      1.0  0.99057  0.21226  0.80953  1.0000
  H   H849      1.0  0.70930  0.44884  0.88439  1.0000
  S   S287      1.0  0.50599  0.33380  0.76865  1.0000
  N   N73       1.0  0.54634  0.46453  0.83847  1.0000
  C   C849      1.0  0.89852  0.00879  0.99607  1.0000
  H   H850      1.0  0.91546  0.04974  0.00786  1.0000
  H   H851      1.0  0.92365  0.03889  0.91187  1.0000
  C   C850      1.0  0.97806  0.24200  0.80866  1.0000
  H   H852      1.0  0.54851  0.25801  0.84301  1.0000
  H   H853      1.0  0.88877  0.10404  0.83087  1.0000
  H   H854      1.0  0.58576  0.35278  0.80911  1.0000
  H   H855      1.0  0.93578  0.07261  0.92109  1.0000
  C   C851      1.0  0.55733  0.46463  0.95746  1.0000
  C   C852      1.0  0.86082  0.48625  0.99561  1.0000
  H   H856      1.0  0.93472  0.06061  0.76595  1.0000
  N   N74       1.0  0.56062  0.47894  0.98005  1.0000
  S   S288      1.0  0.85519  0.99900  0.91194  1.0000
  H   H857      1.0  0.98313  0.04388  0.85171  1.0000
  H   H858      1.0  0.57472  0.46151  0.95460  1.0000
  C   C853      1.0  0.50052  0.42887  0.83514  1.0000
  C   C854      1.0  0.74242  0.00007  0.90191  1.0000
  C   C855      1.0  0.98280  0.05811  0.86422  1.0000
  H   H859      1.0  0.51049  0.46298  0.88727  1.0000
  H   H860      1.0  0.62186  0.49416  0.97017  1.0000
  Fe  Fe142     1.0  0.53486  0.13110  0.76243  1.0000
  H   H861      1.0  0.49865  0.29373  0.84865  1.0000
  C   C856      1.0  0.61644  0.47863  0.00611  1.0000
  Fe  Fe143     1.0  0.61393  0.49531  0.90111  1.0000
  C   C857      1.0  0.89609  0.35262  0.75925  1.0000
  C   C858      1.0  0.91571  0.05966  0.76028  1.0000
  Fe  Fe144     1.0  0.95791  0.35155  0.75959  1.0000
  H   H862      1.0  0.84818  0.04054  0.00736  1.0000
  H   H863      1.0  0.58158  0.90636  0.09711  1.0000
  Fe  Fe145     1.0  0.84885  0.85916  0.22933  1.0000
  S   S289      1.0  0.85056  0.83017  0.20370  1.0000
  S   S290      1.0  0.82791  0.88124  0.21760  1.0000
  Fe  Fe146     1.0  0.83679  0.80196  0.23522  1.0000
  S   S291      1.0  0.80506  0.75738  0.23415  1.0000
  Fe  Fe147     1.0  0.89319  0.84703  0.21694  1.0000
  S   S292      1.0  0.92494  0.85753  0.18738  1.0000
  S   S293      1.0  0.60337  0.65958  0.24074  1.0000
  S   S294      1.0  0.89195  0.87780  0.24061  1.0000
  Fe  Fe148     1.0  0.89445  0.54233  0.09037  1.0000
  S   S295      1.0  0.89473  0.57005  0.11904  1.0000
  S   S296      1.0  0.90407  0.55316  0.05109  1.0000
  C   C859      1.0  0.74659  0.52475  0.18271  1.0000
  S   S297      1.0  0.87314  0.51932  0.15591  1.0000
  C   C860      1.0  0.50547  0.57254  0.16680  1.0000
  Fe  Fe149     1.0  0.85428  0.53495  0.12959  1.0000
  S   S298      1.0  0.81907  0.54291  0.13274  1.0000
  Fe  Fe150     1.0  0.91380  0.55237  0.14309  1.0000
  S   S299      1.0  0.94494  0.57085  0.17353  1.0000
  H   H864      1.0  0.96240  0.87192  0.14819  1.0000
  S   S300      1.0  0.91689  0.52794  0.11322  1.0000
  Fe  Fe151     1.0  0.64498  0.66764  0.23057  1.0000
  C   C861      1.0  0.50004  0.89718  0.20738  1.0000
  S   S301      1.0  0.67838  0.71016  0.22162  1.0000
  Fe  Fe152     1.0  0.58668  0.62086  0.21955  1.0000
  C   C862      1.0  0.63101  0.51136  0.03801  1.0000
  S   S302      1.0  0.55379  0.59715  0.19129  1.0000
  Fe  Fe153     1.0  0.62956  0.60996  0.24040  1.0000
  S   S303      1.0  0.63954  0.57715  0.24234  1.0000
  C   C863      1.0  0.56669  0.52097  0.20571  1.0000
  S   S304      1.0  0.62820  0.63104  0.20704  1.0000
  C   C864      1.0  0.69740  0.52183  0.18932  1.0000
  C   C865      1.0  0.92897  0.49943  0.17550  1.0000
  H   H865      1.0  0.80586  0.52290  0.08389  1.0000
  Fe  Fe154     1.0  0.61030  0.95857  0.15401  1.0000
  C   C866      1.0  0.56319  0.49833  0.19343  1.0000
  S   S305      1.0  0.57676  0.93200  0.18078  1.0000
  Fe  Fe155     1.0  0.63036  0.97202  0.10220  1.0000
  S   S306      1.0  0.61626  0.95742  0.06447  1.0000
  H   H866      1.0  0.93885  0.52119  0.06049  1.0000
  S   S307      1.0  0.65631  0.55419  0.13531  1.0000
  S   S308      1.0  0.63112  0.94337  0.12948  1.0000
  H   H867      1.0  0.94046  0.78935  0.19715  1.0000
  H   H868      1.0  0.86524  0.90063  0.15519  1.0000
  C   C867      1.0  0.84803  0.76339  0.18837  1.0000
  N   N75       1.0  0.71960  0.54589  0.18378  1.0000
  H   H869      1.0  0.54507  0.86473  0.17106  1.0000
  H   H870      1.0  0.56093  0.51951  0.22443  1.0000
  H   H871      1.0  0.61269  0.95148  0.01319  1.0000
  H   H872      1.0  0.91074  0.51686  0.19727  1.0000
  C   C868      1.0  0.64638  0.57104  0.21326  1.0000
  C   C869      1.0  0.65964  0.59222  0.19697  1.0000
  C   C870      1.0  0.66302  0.58696  0.17307  1.0000
  C   C871      1.0  0.65282  0.56051  0.16541  1.0000
  C   C872      1.0  0.63975  0.53942  0.18181  1.0000
  C   C873      1.0  0.63691  0.54468  0.20581  1.0000
  H   H873      1.0  0.66740  0.61268  0.20282  1.0000
  H   H874      1.0  0.67321  0.60338  0.16046  1.0000
  H   H875      1.0  0.63082  0.51898  0.17594  1.0000
  H   H876      1.0  0.62627  0.52824  0.21831  1.0000
  H   H877      1.0  0.89004  0.95237  0.12094  1.0000
  C   C874      1.0  0.86393  0.78128  0.17045  1.0000
  H   H878      1.0  0.67803  0.52049  0.19177  1.0000
  N   N76       1.0  0.58596  0.54781  0.17029  1.0000
  C   C875      1.0  0.55475  0.88508  0.13680  1.0000
  C   C876      1.0  0.76596  0.52815  0.12576  1.0000
  S   S309      1.0  0.60724  0.98496  0.12593  1.0000
  C   C877      1.0  0.72394  0.50006  0.18792  1.0000
  C   C878      1.0  0.97355  0.88405  0.16337  1.0000
  H   H879      1.0  0.77359  0.54921  0.12215  1.0000
  C   C879      1.0  0.74396  0.54753  0.18027  1.0000
  H   H880      1.0  0.93609  0.91529  0.19330  1.0000
  S   S310      1.0  0.70864  0.97819  0.15365  1.0000
  C   C880      1.0  0.52034  0.59047  0.18539  1.0000
  H   H881      1.0  0.93917  0.81794  0.20926  1.0000
  C   C881      1.0  0.51063  0.86397  0.15486  1.0000
  C   C882      1.0  0.57085  0.50062  0.16940  1.0000
  H   H882      1.0  0.94243  0.52035  0.01609  1.0000
  H   H883      1.0  0.76147  0.56638  0.17517  1.0000
  C   C883      1.0  0.92688  0.50261  0.05074  1.0000
  C   C884      1.0  0.88345  0.95096  0.13994  1.0000
  C   C885      1.0  0.88707  0.52728  0.02989  1.0000
  N   N77       1.0  0.83310  0.54315  0.05504  1.0000
  H   H884      1.0  0.87776  0.95528  0.03378  1.0000
  N   N78       1.0  0.90377  0.78926  0.19154  1.0000
  C   C886      1.0  0.86023  0.75849  0.20784  1.0000
  H   H885      1.0  0.95749  0.96373  0.18277  1.0000
  C   C887      1.0  0.76987  0.74463  0.23081  1.0000
  C   C888      1.0  0.75940  0.76136  0.22544  1.0000
  C   C889      1.0  0.73146  0.75041  0.22235  1.0000
  C   C890      1.0  0.71355  0.72268  0.22484  1.0000
  C   C891      1.0  0.72397  0.70598  0.23058  1.0000
  C   C892      1.0  0.75197  0.71690  0.23337  1.0000
  H   H886      1.0  0.77285  0.78272  0.22334  1.0000
  H   H887      1.0  0.72367  0.76355  0.21796  1.0000
  C   C893      1.0  0.89194  0.79406  0.17228  1.0000
  C   C894      1.0  0.62872  0.98142  0.04099  1.0000
  C   C895      1.0  0.96013  0.88127  0.18530  1.0000
  H   H888      1.0  0.60825  0.57430  0.14134  1.0000
  H   H889      1.0  0.75979  0.70373  0.23750  1.0000
  C   C896      1.0  0.54223  0.92278  0.18460  1.0000
  C   C897      1.0  0.52779  0.90650  0.20431  1.0000
  C   C898      1.0  0.93312  0.80364  0.19401  1.0000
  C   C899      1.0  0.74230  0.99589  0.14249  1.0000
  H   H890      1.0  0.53914  0.94224  0.15276  1.0000
  H   H891      1.0  0.53810  0.90079  0.21723  1.0000
  H   H892      1.0  0.51941  0.61648  0.21253  1.0000
  C   C900      1.0  0.84866  0.91540  0.21121  1.0000
  C   C901      1.0  0.83902  0.92855  0.19657  1.0000
  C   C902      1.0  0.85537  0.95592  0.19131  1.0000
  C   C903      1.0  0.88113  0.97018  0.20113  1.0000
  C   C904      1.0  0.89063  0.95713  0.21599  1.0000
  C   C905      1.0  0.87455  0.92971  0.22077  1.0000
  H   H893      1.0  0.81891  0.91754  0.18926  1.0000
  H   H894      1.0  0.84788  0.96604  0.18001  1.0000
  H   H895      1.0  0.91060  0.96820  0.22356  1.0000
  H   H896      1.0  0.88217  0.91989  0.23210  1.0000
  H   H897      1.0  0.82625  0.75375  0.18750  1.0000
  C   C906      1.0  0.59775  0.57394  0.15823  1.0000
  C   C907      1.0  0.93729  0.94976  0.17670  1.0000
  H   H898      1.0  0.71049  0.68463  0.23263  1.0000
  C   C908      1.0  0.88830  0.77174  0.20920  1.0000
  H   H899      1.0  0.82306  0.95900  0.02334  1.0000
  C   C909      1.0  0.82915  0.97918  0.02925  1.0000
  H   H900      1.0  0.84297  0.58278  0.06414  1.0000
  S   S311      1.0  0.89117  0.98735  0.07635  1.0000
  Fe  Fe156     1.0  0.64155  0.51076  0.12788  1.0000
  H   H901      1.0  0.87095  0.57659  0.06467  1.0000
  H   H902      1.0  0.93239  0.97994  0.15838  1.0000
  C   C910      1.0  0.57799  0.54568  0.19373  1.0000
  C   C911      1.0  0.51940  0.88747  0.11704  1.0000
  H   H903      1.0  0.86129  0.93770  0.14099  1.0000
  N   N79       1.0  0.89750  0.94120  0.15524  1.0000
  C   C912      1.0  0.92304  0.95876  0.16283  1.0000
  C   C913      1.0  0.88557  0.91454  0.16101  1.0000
  H   H904      1.0  0.85700  0.55878  0.02343  1.0000
  H   H905      1.0  0.94336  0.81569  0.17772  1.0000
  H   H906      1.0  0.97997  0.58966  0.21456  1.0000
  H   H907      1.0  0.85462  0.78567  0.15552  1.0000
  H   H908      1.0  0.82705  0.96888  0.06688  1.0000
  S   S312      1.0  0.85348  0.50875  0.09966  1.0000
  H   H909      1.0  0.58184  0.57900  0.15427  1.0000
  S   S313      1.0  0.66117  0.49855  0.09971  1.0000
  H   H910      1.0  0.58064  0.56323  0.20332  1.0000
  H   H911      1.0  0.61302  0.58981  0.16994  1.0000
  H   H912      1.0  0.70889  0.56902  0.16162  1.0000
  C   C914      1.0  0.88578  0.97590  0.02817  1.0000
  H   H913      1.0  0.73609  0.58848  0.18224  1.0000
  H   H914      1.0  0.84678  0.56413  0.08834  1.0000
  H   H915      1.0  0.76583  0.52598  0.17950  1.0000
  C   C915      1.0  0.56418  0.90971  0.09868  1.0000
  C   C916      1.0  0.78412  0.51911  0.13086  1.0000
  H   H916      1.0  0.55422  0.90502  0.08085  1.0000
  H   H917      1.0  0.84793  0.74510  0.22215  1.0000
  C   C917      1.0  0.52848  0.92987  0.16806  1.0000
  H   H918      1.0  0.57208  0.93129  0.10248  1.0000
  H   H919      1.0  0.88984  0.88374  0.17932  1.0000
  C   C918      1.0  0.83952  0.54194  0.03161  1.0000
  S   S314      1.0  0.58769  0.59765  0.25170  1.0000
  C   C919      1.0  0.89928  0.90487  0.17478  1.0000
  C   C920      1.0  0.92529  0.92262  0.18264  1.0000
  C   C921      1.0  0.76273  0.99481  0.15554  1.0000
  H   H920      1.0  0.90415  0.80849  0.15859  1.0000
  H   H921      1.0  0.57579  0.89082  0.13804  1.0000
  H   H922      1.0  0.75755  0.98279  0.17173  1.0000
  C   C922      1.0  0.97497  0.89724  0.20468  1.0000
  H   H923      1.0  0.96513  0.89535  0.22172  1.0000
  H   H924      1.0  0.63314  0.51613  0.05696  1.0000
  N   N80       1.0  0.54556  0.89321  0.11772  1.0000
  C   C923      1.0  0.84918  0.56790  0.06868  1.0000
  C   C924      1.0  0.53740  0.87018  0.15553  1.0000
  C   C925      1.0  0.58231  0.52567  0.15803  1.0000
  C   C926      1.0  0.63937  0.53195  0.02077  1.0000
  H   H925      1.0  0.70231  0.56990  0.19319  1.0000
  H   H926      1.0  0.89763  0.76839  0.22473  1.0000
  H   H927      1.0  0.88786  0.97112  0.14589  1.0000
  S   S315      1.0  0.87967  0.81577  0.24635  1.0000
  Fe  Fe157     1.0  0.67095  0.97871  0.14084  1.0000
  H   H928      1.0  0.58887  0.52738  0.13952  1.0000
  H   H929      1.0  0.51445  0.56301  0.15668  1.0000
  H   H930      1.0  0.64808  0.55258  0.02653  1.0000
  H   H931      1.0  0.72421  0.51757  0.12231  1.0000
  C   C927      1.0  0.81122  0.52183  0.06542  1.0000
  C   C928      1.0  0.98085  0.58731  0.17597  1.0000
  C   C929      1.0  0.50066  0.92034  0.17101  1.0000
  C   C930      1.0  0.92888  0.50214  0.02580  1.0000
  C   C931      1.0  0.50151  0.87265  0.13552  1.0000
  C   C932      1.0  0.83118  0.98457  0.05390  1.0000
  H   H932      1.0  0.51237  0.89474  0.10236  1.0000
  C   C933      1.0  0.73793  0.51025  0.12581  1.0000
  C   C934      1.0  0.71668  0.56952  0.18002  1.0000
  C   C935      1.0  0.82438  0.51862  0.01814  1.0000
  C   C936      1.0  0.99272  0.59435  0.19892  1.0000
  H   H933      1.0  0.68016  0.50904  0.02659  1.0000
  H   H934      1.0  0.93815  0.51637  0.16321  1.0000
  H   H935      1.0  0.57481  0.51711  0.04012  1.0000
  H   H936      1.0  0.98914  0.58861  0.13819  1.0000
  C   C937      1.0  0.86903  0.50103  0.03722  1.0000
  S   S316      1.0  0.65022  0.99103  0.16802  1.0000
  C   C938      1.0  0.69917  0.49853  0.19128  1.0000
  C   C939      1.0  0.62377  0.97273  0.01704  1.0000
  C   C940      1.0  0.50836  0.60262  0.19824  1.0000
  C   C941      1.0  0.57018  0.50634  0.02325  1.0000
  C   C942      1.0  0.89421  0.99616  0.04557  1.0000
  C   C943      1.0  0.91359  0.49974  0.19472  1.0000
  H   H937      1.0  0.49726  0.85343  0.16978  1.0000
  C   C944      1.0  0.79581  0.49809  0.05259  1.0000
  Fe  Fe158     1.0  0.87054  0.86248  0.46182  1.0000
  H   H938      1.0  0.78151  0.75718  0.42777  1.0000
  H   H939      1.0  0.59070  0.56974  0.38593  1.0000
  Fe  Fe159     1.0  0.84186  0.88075  0.42745  1.0000
  S   S317      1.0  0.82109  0.88911  0.45771  1.0000
  S   S318      1.0  0.83234  0.88242  0.38822  1.0000
  Fe  Fe160     1.0  0.86114  0.90799  0.47726  1.0000
  C   C945      1.0  0.88210  0.82650  0.40103  1.0000
  Fe  Fe161     1.0  0.81359  0.84912  0.47241  1.0000
  S   S319      1.0  0.77169  0.81442  0.48168  1.0000
  S   S320      1.0  0.88203  0.90220  0.44533  1.0000
  S   S321      1.0  0.83235  0.84053  0.44121  1.0000
  H   H940      1.0  0.58573  0.96818  0.48341  1.0000
  S   S322      1.0  0.89223  0.85557  0.30697  1.0000
  Fe  Fe162     1.0  0.64359  0.59602  0.48054  1.0000
  S   S323      1.0  0.61754  0.59769  0.45110  1.0000
  C   C946      1.0  0.55033  0.83598  0.50565  1.0000
  Fe  Fe163     1.0  0.68990  0.65479  0.46815  1.0000
  S   S324      1.0  0.66616  0.65951  0.43864  1.0000
  S   S325      1.0  0.73164  0.68934  0.47814  1.0000
  Fe  Fe164     1.0  0.63128  0.63933  0.46398  1.0000
  C   C947      1.0  0.58860  0.98110  0.49851  1.0000
  Fe  Fe165     1.0  0.65498  0.61755  0.42858  1.0000
  S   S326      1.0  0.65645  0.60736  0.38959  1.0000
  H   H941      1.0  0.88652  0.84656  0.40746  1.0000
  S   S327      1.0  0.68076  0.61322  0.45689  1.0000
  C   C948      1.0  0.55217  0.58780  0.48982  1.0000
  S   S328      1.0  0.59757  0.63898  0.31056  1.0000
  C   C949      1.0  0.64183  0.61870  0.36812  1.0000
  C   C950      1.0  0.64680  0.61716  0.34372  1.0000
  C   C951      1.0  0.63352  0.62357  0.32603  1.0000
  C   C952      1.0  0.61510  0.63158  0.33256  1.0000
  C   C953      1.0  0.61059  0.63376  0.35701  1.0000
  C   C954      1.0  0.62397  0.62740  0.37477  1.0000
  H   H942      1.0  0.66059  0.61044  0.33845  1.0000
  H   H943      1.0  0.63702  0.62149  0.30736  1.0000
  H   H944      1.0  0.59652  0.64014  0.36226  1.0000
  H   H945      1.0  0.62002  0.62871  0.39358  1.0000
  C   C955      1.0  0.57535  0.66566  0.50169  1.0000
  H   H946      1.0  0.88489  0.82723  0.38123  1.0000
  H   H947      1.0  0.83728  0.81566  0.37791  1.0000
  C   C956      1.0  0.64725  0.71360  0.28486  1.0000
  C   C957      1.0  0.76236  0.78037  0.47632  1.0000
  C   C958      1.0  0.77001  0.74272  0.48206  1.0000
  H   H948      1.0  0.92502  0.91084  0.49712  1.0000
  C   C959      1.0  0.74345  0.72432  0.47525  1.0000
  C   C960      1.0  0.72671  0.73421  0.46798  1.0000
  C   C961      1.0  0.73607  0.76205  0.46873  1.0000
  C   C962      1.0  0.92545  0.51437  0.49835  1.0000
  H   H949      1.0  0.73313  0.72675  0.28147  1.0000
  H   H950      1.0  0.70625  0.72036  0.46264  1.0000
  H   H951      1.0  0.72260  0.76936  0.46406  1.0000
  H   H952      1.0  0.53201  0.61547  0.47107  1.0000
  C   C963      1.0  0.97995  0.91679  0.46866  1.0000
  H   H953      1.0  0.90361  0.50694  0.42332  1.0000
  C   C964      1.0  0.84784  0.87175  0.36712  1.0000
  C   C965      1.0  0.83437  0.85960  0.34575  1.0000
  C   C966      1.0  0.84750  0.85386  0.32738  1.0000
  C   C967      1.0  0.87418  0.86013  0.33034  1.0000
  C   C968      1.0  0.88728  0.87130  0.35211  1.0000
  C   C969      1.0  0.87416  0.87709  0.37046  1.0000
  H   H954      1.0  0.81390  0.85521  0.34316  1.0000
  H   H955      1.0  0.83710  0.84500  0.31082  1.0000
  H   H956      1.0  0.90795  0.87625  0.35450  1.0000
  H   H957      1.0  0.88477  0.88669  0.38680  1.0000
  H   H958      1.0  0.60978  0.55318  0.38678  1.0000
  H   H959      1.0  0.62720  0.69609  0.28926  1.0000
  S   S329      1.0  0.60203  0.65423  0.46739  1.0000
  C   C970      1.0  0.95459  0.91406  0.47172  1.0000
  H   H960      1.0  0.79039  0.78396  0.39021  1.0000
  C   C971      1.0  0.85356  0.91652  0.32211  1.0000
  C   C972      1.0  0.83356  0.80358  0.39399  1.0000
  C   C973      1.0  0.80699  0.78570  0.40086  1.0000
  H   H961      1.0  0.94974  0.85214  0.47689  1.0000
  H   H962      1.0  0.56929  0.67407  0.48723  1.0000
  N   N81       1.0  0.66894  0.70974  0.29415  1.0000
  S   S330      1.0  0.90077  0.84865  0.46065  1.0000
  N   N82       1.0  0.59530  0.55567  0.35196  1.0000
  C   C974      1.0  0.57941  0.56261  0.33908  1.0000
  C   C975      1.0  0.61349  0.55078  0.34050  1.0000
  C   C976      1.0  0.58170  0.56510  0.31406  1.0000
  C   C977      1.0  0.61634  0.55314  0.31549  1.0000
  C   C978      1.0  0.60030  0.56032  0.30225  1.0000
  C   C979      1.0  0.59212  0.55274  0.37811  1.0000
  H   H963      1.0  0.56537  0.56700  0.34817  1.0000
  H   H964      1.0  0.62638  0.54567  0.35073  1.0000
  H   H965      1.0  0.56975  0.57157  0.30402  1.0000
  H   H966      1.0  0.63118  0.54988  0.30641  1.0000
  H   H967      1.0  0.60270  0.56266  0.28292  1.0000
  H   H968      1.0  0.94224  0.91206  0.45626  1.0000
  Fe  Fe166     1.0  0.87548  0.84572  0.26920  1.0000
  H   H969      1.0  0.57380  0.53354  0.38276  1.0000
  C   C980      1.0  0.52042  0.60446  0.48730  1.0000
  C   C981      1.0  0.66499  0.69493  0.31454  1.0000
  H   H970      1.0  0.86202  0.50605  0.49567  1.0000
  C   C982      1.0  0.68520  0.69036  0.32321  1.0000
  H   H971      1.0  0.64870  0.73200  0.29264  1.0000
  C   C983      1.0  0.70978  0.70158  0.31113  1.0000
  C   C984      1.0  0.93719  0.84914  0.49240  1.0000
  H   H972      1.0  0.64600  0.68633  0.32407  1.0000
  C   C985      1.0  0.69337  0.72185  0.28288  1.0000
  H   H973      1.0  0.68165  0.67796  0.33905  1.0000
  H   H974      1.0  0.88392  0.99482  0.46230  1.0000
  H   H975      1.0  0.72550  0.69789  0.31742  1.0000
  S   S331      1.0  0.64969  0.64705  0.26274  1.0000
  H   H976      1.0  0.81990  0.76269  0.45250  1.0000
  S   S332      1.0  0.89046  0.94898  0.49440  1.0000
  C   C986      1.0  0.84710  0.90001  0.28220  1.0000
  H   H977      1.0  0.86644  0.79502  0.43996  1.0000
  C   C987      1.0  0.89191  0.91933  0.30013  1.0000
  H   H978      1.0  0.90366  0.93975  0.29229  1.0000
  S   S333      1.0  0.85164  0.86861  0.49462  1.0000
  H   H979      1.0  0.80720  0.88360  0.26755  1.0000
  H   H980      1.0  0.55624  0.82655  0.49134  1.0000
  C   C988      1.0  0.82356  0.77385  0.43586  1.0000
  C   C989      1.0  0.81999  0.89277  0.28309  1.0000
  C   C990      1.0  0.84985  0.79204  0.42857  1.0000
  H   H981      1.0  0.55640  0.59190  0.47081  1.0000
  C   C991      1.0  0.71406  0.71771  0.29098  1.0000
  H   H982      1.0  0.78851  0.89147  0.30511  1.0000
  N   N83       1.0  0.85456  0.80642  0.40775  1.0000
  C   C992      1.0  0.77949  0.77056  0.48243  1.0000
  C   C993      1.0  0.80201  0.77076  0.42194  1.0000
  H   H983      1.0  0.78307  0.73531  0.48786  1.0000
  C   C994      1.0  0.82646  0.90926  0.32374  1.0000
  H   H984      1.0  0.89703  0.82202  0.40928  1.0000
  N   N84       1.0  0.53467  0.59377  0.50113  1.0000
  Fe  Fe167     1.0  0.60760  0.63655  0.27170  1.0000
  C   C995      1.0  0.56565  0.57726  0.50277  1.0000
  C   C996      1.0  0.80960  0.89732  0.30407  1.0000
  H   H985      1.0  0.57989  0.57299  0.49389  1.0000
  H   H986      1.0  0.69685  0.73454  0.26732  1.0000
  H   H987      1.0  0.98524  0.72091  0.50087  1.0000
  H   H988      1.0  0.81854  0.91234  0.34039  1.0000
  N   N85       1.0  0.86343  0.91146  0.30164  1.0000
  H   H989      1.0  0.86636  0.92529  0.33766  1.0000
  C   C997      1.0  0.62317  0.51577  0.49865  1.0000
  H   H990      1.0  0.90012  0.91894  0.31811  1.0000
  C   C998      1.0  0.91158  0.84594  0.48942  1.0000
  H   H991      1.0  0.79962  0.78432  0.48866  1.0000
  S   S334      1.0  0.83219  0.83003  0.25998  1.0000
  H   H992      1.0  0.50915  0.93858  0.49360  1.0000
  H   H993      1.0  0.63755  0.52710  0.48469  1.0000
  H   H994      1.0  0.94089  0.52519  0.48504  1.0000
  C   C999      1.0  0.94487  0.91316  0.49492  1.0000
  C   C1000     1.0  0.59185  0.65479  0.49692  1.0000
  S   S335      1.0  0.65569  0.63743  0.49442  1.0000
  H   H995      1.0  0.64833  0.71543  0.26491  1.0000
  H   H996      1.0  0.89472  0.90501  0.28885  1.0000
  H   H997      1.0  0.51762  0.61902  0.49819  1.0000
  H   H998      1.0  0.65104  0.71873  0.49416  1.0000
  H   H999      1.0  0.98761  0.91721  0.45077  1.0000
  H   H1000     1.0  0.87522  0.83826  0.50730  1.0000
  H   H1001     1.0  0.50028  0.58785  0.48203  1.0000
  H   H1002     1.0  0.56923  0.88920  0.50548  1.0000
  H   H1003     1.0  0.53821  0.84410  0.49748  1.0000
  H   H1004     1.0  0.65437  0.68968  0.49540  1.0000
  C   C1001     1.0  0.65672  0.70695  0.50619  1.0000
  H   H1005     1.0  0.85486  0.89614  0.26591  1.0000
  C   C1002     1.0  0.99534  0.91882  0.48874  1.0000
  C   C1003     1.0  0.87662  0.49993  0.45303  1.0000
  H   H1006     1.0  0.89001  0.51912  0.46132  1.0000
  Fe  Fe168     1.0  0.53197  0.84585  0.57273  1.0000
  C   C1004     1.0  0.58406  0.98683  0.54082  1.0000
  S   S336      1.0  0.54351  0.81321  0.56970  1.0000
  Fe  Fe169     1.0  0.54547  0.90361  0.55609  1.0000
  C   C1005     1.0  0.50191  0.78735  0.73133  1.0000
  S   S337      1.0  0.56494  0.93403  0.52502  1.0000
  Fe  Fe170     1.0  0.53173  0.88540  0.60881  1.0000
  S   S338      1.0  0.54092  0.89701  0.64793  1.0000
  H   H1007     1.0  0.53953  0.73166  0.65407  1.0000
  S   S339      1.0  0.94357  0.84824  0.56480  1.0000
  S   S340      1.0  0.56353  0.88793  0.58337  1.0000
  S   S341      1.0  0.51696  0.86147  0.54316  1.0000
  S   S342      1.0  0.54364  0.65478  0.71955  1.0000
  Fe  Fe171     1.0  0.95936  0.59543  0.55062  1.0000
  N   N86       1.0  0.93938  0.85753  0.63946  1.0000
  H   H1008     1.0  0.56854  0.94251  0.74924  1.0000
  Fe  Fe172     1.0  0.97037  0.65311  0.56482  1.0000
  H   H1009     1.0  0.95767  0.90516  0.55185  1.0000
  S   S343      1.0  0.96156  0.68682  0.55603  1.0000
  Fe  Fe173     1.0  0.51789  0.63954  0.57080  1.0000
  S   S344      1.0  0.56135  0.65175  0.57276  1.0000
  Fe  Fe174     1.0  0.97122  0.61567  0.60284  1.0000
  S   S345      1.0  0.96074  0.60389  0.64184  1.0000
  H   H1010     1.0  0.99392  0.61238  0.72419  1.0000
  S   S346      1.0  0.93944  0.61088  0.57613  1.0000
  S   S347      1.0  0.95595  0.82676  0.72265  1.0000
  C   C1006     1.0  0.57417  0.65450  0.54385  1.0000
  C   C1007     1.0  0.52963  0.58891  0.52516  1.0000
  H   H1011     1.0  0.57780  0.97856  0.55866  1.0000
  S   S348      1.0  0.98894  0.59759  0.57833  1.0000
  C   C1008     1.0  0.58007  0.96968  0.52153  1.0000
  C   C1009     1.0  0.97644  0.83724  0.67733  1.0000
  C   C1010     1.0  0.51892  0.64493  0.69700  1.0000
  C   C1011     1.0  0.50167  0.69468  0.65241  1.0000
  S   S349      1.0  0.50163  0.84293  0.59965  1.0000
  C   C1012     1.0  0.69819  0.71061  0.52206  1.0000
  N   N87       1.0  0.95983  0.91448  0.51453  1.0000
  C   C1013     1.0  0.52594  0.64414  0.67300  1.0000
  H   H1012     1.0  0.59711  0.63573  0.55362  1.0000
  H   H1013     1.0  0.95864  0.59653  0.69284  1.0000
  C   C1014     1.0  0.98245  0.68513  0.72729  1.0000
  H   H1014     1.0  0.54670  0.65107  0.66838  1.0000
  C   C1015     1.0  0.58967  0.84957  0.53113  1.0000
  C   C1016     1.0  0.90370  0.51387  0.53557  1.0000
  C   C1017     1.0  0.58133  0.88327  0.51595  1.0000
  C   C1018     1.0  0.51986  0.72106  0.64572  1.0000
  C   C1019     1.0  0.90507  0.84182  0.53259  1.0000
  H   H1015     1.0  0.90206  0.52412  0.55118  1.0000
  H   H1016     1.0  0.98470  0.78134  0.55207  1.0000
  C   C1020     1.0  0.52150  0.77836  0.56452  1.0000
  H   H1017     1.0  0.98994  0.91834  0.67701  1.0000
  H   H1018     1.0  0.95069  0.87984  0.69680  1.0000
  H   H1019     1.0  0.67431  0.49746  0.56111  1.0000
  C   C1021     1.0  0.56630  0.66529  0.52514  1.0000
  C   C1022     1.0  0.53163  0.76066  0.56635  1.0000
  C   C1023     1.0  0.52934  0.93475  0.73844  1.0000
  H   H1020     1.0  0.95409  0.73208  0.54875  1.0000
  H   H1021     1.0  0.53955  0.57575  0.55791  1.0000
  H   H1022     1.0  0.55248  0.76842  0.57107  1.0000
  C   C1024     1.0  0.61927  0.89577  0.54205  1.0000
  H   H1023     1.0  0.91195  0.84005  0.61058  1.0000
  C   C1025     1.0  0.72454  0.72560  0.53054  1.0000
  H   H1024     1.0  0.58692  0.95277  0.70754  1.0000
  C   C1026     1.0  0.51499  0.73290  0.56220  1.0000
  H   H1025     1.0  0.93264  0.82540  0.61652  1.0000
  C   C1027     1.0  0.93106  0.84601  0.53564  1.0000
  C   C1028     1.0  0.92381  0.52824  0.51854  1.0000
  H   H1026     1.0  0.52306  0.71955  0.56383  1.0000
  N   N88       1.0  0.52323  0.93835  0.69619  1.0000
  H   H1027     1.0  0.89250  0.83883  0.54809  1.0000
  C   C1029     1.0  0.54300  0.57869  0.53871  1.0000
  H   H1028     1.0  0.62582  0.51050  0.57381  1.0000
  C   C1030     1.0  0.51966  0.88096  0.69296  1.0000
  H   H1029     1.0  0.53708  0.82022  0.51875  1.0000
  H   H1030     1.0  0.50638  0.95585  0.67369  1.0000
  H   H1031     1.0  0.52170  0.79013  0.72768  1.0000
  S   S350      1.0  0.94626  0.56364  0.52058  1.0000
  H   H1032     1.0  0.54020  0.88861  0.69870  1.0000
  H   H1033     1.0  0.60913  0.92400  0.52674  1.0000
  H   H1034     1.0  0.95841  0.81879  0.67261  1.0000
  H   H1035     1.0  0.68927  0.68906  0.52041  1.0000
  C   C1031     1.0  0.59964  0.64406  0.51570  1.0000
  C   C1032     1.0  0.89278  0.97461  0.51406  1.0000
  H   H1036     1.0  0.96405  0.87811  0.60931  1.0000
  H   H1037     1.0  0.95442  0.93410  0.54430  1.0000
  C   C1033     1.0  0.97424  0.73975  0.55561  1.0000
  C   C1034     1.0  0.50611  0.63348  0.65506  1.0000
  H   H1038     1.0  0.55751  0.94971  0.67387  1.0000
  H   H1039     1.0  0.58394  0.82857  0.53282  1.0000
  H   H1040     1.0  0.62363  0.86276  0.55486  1.0000
  H   H1041     1.0  0.68483  0.76022  0.51138  1.0000
  H   H1042     1.0  0.50648  0.81891  0.70731  1.0000
  Fe  Fe175     1.0  0.53108  0.65592  0.75792  1.0000
  H   H1043     1.0  0.73168  0.78766  0.52562  1.0000
  H   H1044     1.0  0.95873  0.66339  0.69651  1.0000
  C   C1035     1.0  0.59129  0.64440  0.53920  1.0000
  H   H1045     1.0  0.55349  0.67363  0.52879  1.0000
  C   C1036     1.0  0.94699  0.84941  0.51550  1.0000
  H   H1046     1.0  0.96691  0.85241  0.51761  1.0000
  C   C1037     1.0  0.95328  0.88007  0.67746  1.0000
  H   H1047     1.0  0.57212  0.56537  0.53761  1.0000
  H   H1048     1.0  0.75741  0.76544  0.53754  1.0000
  C   C1038     1.0  0.99157  0.76772  0.55750  1.0000
  C   C1039     1.0  0.87021  0.97421  0.52405  1.0000
  C   C1040     1.0  0.98101  0.84562  0.70131  1.0000
  C   C1041     1.0  0.56120  0.57292  0.52739  1.0000
  H   H1049     1.0  0.96557  0.68376  0.73725  1.0000
  H   H1050     1.0  0.51985  0.59001  0.66893  1.0000
  C   C1042     1.0  0.93540  0.85802  0.66365  1.0000
  C   C1043     1.0  0.55602  0.94183  0.73434  1.0000
  C   C1044     1.0  0.97862  0.67381  0.70447  1.0000
  H   H1051     1.0  0.50707  0.68469  0.66603  1.0000
  H   H1052     1.0  0.63644  0.91091  0.55192  1.0000
  C   C1045     1.0  0.51401  0.88104  0.66848  1.0000
  C   C1046     1.0  0.92122  0.83407  0.62509  1.0000
  C   C1047     1.0  0.98299  0.72164  0.56182  1.0000
  S   S351      1.0  0.51622  0.90420  0.58256  1.0000
  C   C1048     1.0  0.98655  0.61384  0.66340  1.0000
  H   H1053     1.0  0.98618  0.77070  0.63393  1.0000
  H   H1054     1.0  0.51252  0.93132  0.65912  1.0000
  C   C1049     1.0  0.97909  0.90102  0.64169  1.0000
  N   N89       1.0  0.57430  0.85684  0.51787  1.0000
  H   H1055     1.0  0.91893  0.84099  0.67265  1.0000
  C   C1050     1.0  0.99459  0.85298  0.65931  1.0000
  C   C1051     1.0  0.97961  0.60793  0.68771  1.0000
  C   C1052     1.0  0.96076  0.87871  0.62842  1.0000
  S   S352      1.0  0.49977  0.65879  0.59290  1.0000
  C   C1053     1.0  0.56630  0.94759  0.71102  1.0000
  H   H1056     1.0  0.52119  0.93001  0.75649  1.0000
  S   S353      1.0  0.98711  0.63749  0.53685  1.0000
  C   C1054     1.0  0.59364  0.51293  0.53074  1.0000
  H   H1057     1.0  0.51168  0.63221  0.63675  1.0000
  C   C1055     1.0  0.73660  0.75345  0.53199  1.0000
  H   H1058     1.0  0.73586  0.71570  0.53493  1.0000
  C   C1056     1.0  0.54957  0.94593  0.69205  1.0000
  C   C1057     1.0  0.61217  0.86883  0.54364  1.0000
  H   H1059     1.0  0.52658  0.75414  0.62271  1.0000
  Fe  Fe176     1.0  0.98748  0.86137  0.56644  1.0000
  H   H1060     1.0  0.90483  0.81811  0.63604  1.0000
  H   H1061     1.0  0.92709  0.90033  0.53913  1.0000
  C   C1058     1.0  0.60393  0.90311  0.52797  1.0000
  C   C1059     1.0  0.97531  0.90162  0.66638  1.0000
  H   H1062     1.0  0.58501  0.52221  0.54168  1.0000
  C   C1060     1.0  0.72212  0.76592  0.52530  1.0000
  C   C1061     1.0  0.49905  0.87204  0.71017  1.0000
  N   N90       1.0  0.68432  0.72306  0.51503  1.0000
  H   H1063     1.0  0.61130  0.63462  0.51217  1.0000
  H   H1064     1.0  0.85041  0.95732  0.52066  1.0000
  H   H1065     1.0  0.64244  0.69922  0.52155  1.0000
  H   H1066     1.0  0.50394  0.87305  0.72897  1.0000
  H   H1067     1.0  0.65204  0.50517  0.54445  1.0000
  H   H1068     1.0  0.99041  0.84654  0.64095  1.0000
  H   H1069     1.0  0.53541  0.60234  0.69732  1.0000
  C   C1062     1.0  0.94931  0.91360  0.53868  1.0000
  C   C1063     1.0  0.51312  0.93318  0.71907  1.0000
  H   H1070     1.0  0.50942  0.92904  0.53689  1.0000
  C   C1064     1.0  0.69576  0.75031  0.51694  1.0000
  H   H1071     1.0  0.52212  0.56727  0.69012  1.0000
  C   C1065     1.0  0.51877  0.58455  0.68823  1.0000
  H   H1072     1.0  0.50882  0.59039  0.73380  1.0000
  H   H1073     1.0  0.51555  0.59341  0.53405  1.0000
  C   C1066     1.0  0.51262  0.73364  0.62820  1.0000
  C   C1067     1.0  0.50591  0.93648  0.67609  1.0000
  C   C1068     1.0  0.61224  0.52816  0.51259  1.0000
  C   C1069     1.0  0.98497  0.91774  0.51169  1.0000
  H   H1074     1.0  0.99669  0.91725  0.63306  1.0000
  H   H1075     1.0  0.85559  0.99553  0.54551  1.0000
  C   C1070     1.0  0.89538  0.84183  0.50951  1.0000
  C   C1071     1.0  0.91835  0.99680  0.51891  1.0000
  C   C1072     1.0  0.87323  0.99597  0.53817  1.0000
  S   S354      1.0  0.62209  0.56282  0.50923  1.0000
  Fe  Fe177     1.0  0.86219  0.93485  0.90871  1.0000
  N   N91       1.0  0.97486  0.56152  0.86181  1.0000
  S   S355      1.0  0.87018  0.89951  0.90615  1.0000
  Fe  Fe178     1.0  0.82218  0.95642  0.91553  1.0000
  C   C1073     1.0  0.81094  0.56884  0.85979  1.0000
  S   S356      1.0  0.78036  0.94905  0.92549  1.0000
  Fe  Fe179     1.0  0.87862  0.98711  0.93632  1.0000
  S   S357      1.0  0.88970  0.55745  0.89228  1.0000
  H   H1076     1.0  0.69031  0.97773  0.85192  1.0000
  C   C1074     1.0  0.82973  0.54005  0.85430  1.0000
  S   S358      1.0  0.83540  0.94166  0.88359  1.0000
  S   S359      1.0  0.84509  0.94482  0.94141  1.0000
  H   H1077     1.0  0.79600  0.99135  0.88905  1.0000
  H   H1078     1.0  0.97851  0.68748  0.81745  1.0000
  H   H1079     1.0  0.70724  0.51462  0.94160  1.0000
  S   S360      1.0  0.99394  0.82258  0.77974  1.0000
  S   S361      1.0  0.55800  0.68148  0.78800  1.0000
  Fe  Fe180     1.0  0.53679  0.64413  0.81123  1.0000
  S   S362      1.0  0.54901  0.62521  0.84182  1.0000
  Fe  Fe181     1.0  0.52379  0.68913  0.79658  1.0000
  S   S363      1.0  0.53306  0.73244  0.80218  1.0000
  S   S364      1.0  0.51293  0.61846  0.78027  1.0000
  H   H1080     1.0  0.80234  0.50043  0.84141  1.0000
  Fe  Fe182     1.0  0.67463  0.53130  0.89646  1.0000
  S   S365      1.0  0.89739  0.97662  0.90583  1.0000
  S   S366      1.0  0.71741  0.53801  0.89347  1.0000
  Fe  Fe183     1.0  0.63507  0.55203  0.88308  1.0000
  S   S367      1.0  0.60666  0.52826  0.91285  1.0000
  S   S368      1.0  0.62596  0.57434  0.85349  1.0000
  Fe  Fe184     1.0  0.64310  0.54043  0.93571  1.0000
  S   S369      1.0  0.64588  0.55187  0.97489  1.0000
  C   C1075     1.0  0.95266  0.54056  0.87221  1.0000
  S   S370      1.0  0.59346  0.94172  0.90142  1.0000
  S   S371      1.0  0.67157  0.56754  0.90719  1.0000
  C   C1076     1.0  0.54346  0.95992  0.88300  1.0000
  C   C1077     1.0  0.80466  0.51970  0.84637  1.0000
  S   S372      1.0  0.93089  0.80732  0.78806  1.0000
  H   H1081     1.0  0.76920  0.55149  0.85059  1.0000
  H   H1082     1.0  0.52926  0.96851  0.82629  1.0000
  S   S373      1.0  0.54565  0.91628  0.79695  1.0000
  Fe  Fe185     1.0  0.96144  0.79956  0.80659  1.0000
  S   S374      1.0  0.95443  0.75846  0.81852  1.0000
  Fe  Fe186     1.0  0.94637  0.84477  0.81081  1.0000
  S   S375      1.0  0.92407  0.86726  0.82155  1.0000
  H   H1083     1.0  0.83004  0.51744  0.99977  1.0000
  Fe  Fe187     1.0  0.50337  0.88179  0.79774  1.0000
  C   C1078     1.0  0.58127  0.93435  0.87200  1.0000
  C   C1079     1.0  0.59124  0.95425  0.85429  1.0000
  C   C1080     1.0  0.58092  0.94831  0.83096  1.0000
  C   C1081     1.0  0.56015  0.92255  0.82545  1.0000
  C   C1082     1.0  0.55046  0.90246  0.84300  1.0000
  C   C1083     1.0  0.56103  0.90835  0.86629  1.0000
  H   H1084     1.0  0.60623  0.97445  0.85862  1.0000
  H   H1085     1.0  0.58846  0.96389  0.81739  1.0000
  H   H1086     1.0  0.53500  0.88231  0.83862  1.0000
  H   H1087     1.0  0.55331  0.89281  0.87991  1.0000
  C   C1084     1.0  0.97546  0.74516  0.81033  1.0000
  C   C1085     1.0  0.71330  0.56081  0.95822  1.0000
  C   C1086     1.0  0.67226  0.95958  0.85763  1.0000
  C   C1087     1.0  0.50544  0.93327  0.84758  1.0000
  H   H1088     1.0  0.63306  0.89869  0.91654  1.0000
  Fe  Fe188     1.0  0.62805  0.98362  0.90582  1.0000
  Fe  Fe189     1.0  0.87011  0.98377  0.88217  1.0000
  H   H1089     1.0  0.94578  0.54276  0.88974  1.0000
  C   C1088     1.0  0.52071  0.77293  0.80381  1.0000
  C   C1089     1.0  0.65145  0.94487  0.84149  1.0000
  H   H1090     1.0  0.94758  0.70549  0.82350  1.0000
  C   C1090     1.0  0.50294  0.92067  0.86959  1.0000
  H   H1091     1.0  0.54210  0.78619  0.80152  1.0000
  C   C1091     1.0  0.57017  0.61069  0.84437  1.0000
  C   C1092     1.0  0.58587  0.61031  0.82532  1.0000
  C   C1093     1.0  0.60262  0.59904  0.82847  1.0000
  C   C1094     1.0  0.60391  0.58782  0.85062  1.0000
  C   C1095     1.0  0.58793  0.58786  0.86960  1.0000
  C   C1096     1.0  0.57128  0.59927  0.86648  1.0000
  H   H1092     1.0  0.58542  0.61904  0.80823  1.0000
  H   H1093     1.0  0.61489  0.59924  0.81365  1.0000
  H   H1094     1.0  0.58869  0.57949  0.88677  1.0000
  H   H1095     1.0  0.55939  0.59950  0.88142  1.0000
  C   C1097     1.0  0.76668  0.96958  0.91652  1.0000
  S   S376      1.0  0.97838  0.87007  0.78366  1.0000
  H   H1096     1.0  0.76875  0.54428  0.90543  1.0000
  C   C1098     1.0  0.89158  0.53304  0.00525  1.0000
  H   H1097     1.0  0.85215  0.58029  0.86784  1.0000
  H   H1098     1.0  0.78714  0.51337  0.90420  1.0000
  H   H1099     1.0  0.70981  0.55734  0.93861  1.0000
  C   C1099     1.0  0.74330  0.96628  0.92788  1.0000
  C   C1100     1.0  0.98483  0.70798  0.81243  1.0000
  H   H1100     1.0  0.73438  0.95183  0.94231  1.0000
  C   C1101     1.0  0.88906  0.89382  0.88371  1.0000
  C   C1102     1.0  0.89639  0.87413  0.88770  1.0000
  C   C1103     1.0  0.90848  0.86670  0.86939  1.0000
  C   C1104     1.0  0.91292  0.87853  0.84661  1.0000
  C   C1105     1.0  0.90638  0.89881  0.84288  1.0000
  C   C1106     1.0  0.89481  0.90660  0.86131  1.0000
  H   H1101     1.0  0.89209  0.86407  0.90492  1.0000
  H   H1102     1.0  0.91327  0.85103  0.87263  1.0000
  H   H1103     1.0  0.90974  0.90820  0.82539  1.0000
  H   H1104     1.0  0.88946  0.92185  0.85789  1.0000
  C   C1107     1.0  0.90613  0.56360  0.86451  1.0000
  C   C1108     1.0  0.89975  0.54239  0.84882  1.0000
  C   C1109     1.0  0.91225  0.54710  0.82644  1.0000
  C   C1110     1.0  0.93223  0.57292  0.82006  1.0000
  C   C1111     1.0  0.93902  0.59431  0.83577  1.0000
  C   C1112     1.0  0.92570  0.58968  0.85793  1.0000
  H   H1105     1.0  0.88564  0.52218  0.85396  1.0000
  H   H1106     1.0  0.90709  0.53051  0.81437  1.0000
  H   H1107     1.0  0.95416  0.61442  0.83066  1.0000
  H   H1108     1.0  0.93070  0.60622  0.87000  1.0000
  C   C1113     1.0  0.57174  0.50624  0.97995  1.0000
  H   H1109     1.0  0.52077  0.92413  0.90442  1.0000
  H   H1110     1.0  0.88244  0.51706  0.96917  1.0000
  Fe  Fe190     1.0  0.86319  0.51319  0.89881  1.0000
  C   C1114     1.0  0.93798  0.51619  0.86007  1.0000
  C   C1115     1.0  0.77807  0.98854  0.89802  1.0000
  S   S377      1.0  0.64802  0.50544  0.92624  1.0000
  C   C1116     1.0  0.87847  0.51258  0.98812  1.0000
  H   H1111     1.0  0.62924  0.98443  0.97965  1.0000
  H   H1112     1.0  0.69735  0.55155  0.00386  1.0000
  S   S378      1.0  0.97345  0.83436  0.83197  1.0000
  C   C1117     1.0  0.70136  0.51351  0.96025  1.0000
  H   H1113     1.0  0.73520  0.57365  0.96132  1.0000
  C   C1118     1.0  0.98774  0.91381  0.84626  1.0000
  H   H1114     1.0  0.61163  0.91074  0.83721  1.0000
  C   C1119     1.0  0.94558  0.51367  0.83689  1.0000
  C   C1120     1.0  0.64373  0.92086  0.91457  1.0000
  H   H1115     1.0  0.98434  0.89607  0.83562  1.0000
  H   H1116     1.0  0.51186  0.80534  0.80502  1.0000
  C   C1121     1.0  0.72850  0.51423  0.89552  1.0000
  N   N92       1.0  0.70299  0.53544  0.97137  1.0000
  C   C1122     1.0  0.69611  0.53418  0.99505  1.0000
  H   H1117     1.0  0.66357  0.92898  0.92357  1.0000
  C   C1123     1.0  0.76609  0.50584  0.90050  1.0000
  N   N93       1.0  0.83013  0.85666  0.85646  1.0000
  C   C1124     1.0  0.82851  0.83939  0.87418  1.0000
  C   C1125     1.0  0.84017  0.85607  0.83434  1.0000
  C   C1126     1.0  0.83746  0.82118  0.87004  1.0000
  C   C1127     1.0  0.84947  0.83825  0.82963  1.0000
  C   C1128     1.0  0.84812  0.82075  0.84764  1.0000
  C   C1129     1.0  0.82091  0.87584  0.86094  1.0000
  H   H1118     1.0  0.82116  0.84030  0.89191  1.0000
  H   H1119     1.0  0.84184  0.87005  0.82043  1.0000
  H   H1120     1.0  0.83687  0.80808  0.88434  1.0000
  H   H1121     1.0  0.85861  0.83868  0.81244  1.0000
  H   H1122     1.0  0.85604  0.80742  0.84439  1.0000
  H   H1123     1.0  0.80161  0.86945  0.85155  1.0000
  H   H1124     1.0  0.81801  0.87776  0.88044  1.0000
  H   H1125     1.0  0.83624  0.89619  0.85464  1.0000
  S   S379      1.0  0.94903  0.57744  0.79285  1.0000
  C   C1130     1.0  0.52723  0.95907  0.84363  1.0000
  N   N94       1.0  0.78326  0.52387  0.84521  1.0000
  H   H1126     1.0  0.63200  0.92868  0.92398  1.0000
  H   H1127     1.0  0.60778  0.89688  0.87976  1.0000
  C   C1131     1.0  0.96732  0.71827  0.81589  1.0000
  H   H1128     1.0  0.97313  0.91986  0.84014  1.0000
  C   C1132     1.0  0.83260  0.99303  0.98709  1.0000
  S   S380      1.0  0.64052  0.51786  0.86993  1.0000
  H   H1129     1.0  0.98117  0.60021  0.86940  1.0000
  H   H1130     1.0  0.88126  0.96637  0.99030  1.0000
  C   C1133     1.0  0.52209  0.93400  0.88744  1.0000
  H   H1131     1.0  0.98344  0.90715  0.86529  1.0000
  Fe  Fe191     1.0  0.96471  0.83242  0.76253  1.0000
  H   H1132     1.0  0.70280  0.57171  0.96390  1.0000
  N   N95       1.0  0.64678  0.92864  0.88918  1.0000
  C   C1134     1.0  0.66944  0.95123  0.88156  1.0000
  C   C1135     1.0  0.62624  0.91413  0.87350  1.0000
  C   C1136     1.0  0.78621  0.54819  0.85143  1.0000
  C   C1137     1.0  0.62827  0.92196  0.84942  1.0000
  H   H1133     1.0  0.74041  0.50440  0.84365  1.0000
  C   C1138     1.0  0.73142  0.98160  0.92085  1.0000
  H   H1134     1.0  0.68539  0.96316  0.89404  1.0000
  C   C1139     1.0  0.96791  0.53534  0.82623  1.0000
  H   H1135     1.0  0.57793  0.51746  0.96324  1.0000
  H   H1136     1.0  0.99565  0.79337  0.85835  1.0000
  C   C1140     1.0  0.50361  0.78386  0.80586  1.0000
  C   C1141     1.0  0.75558  0.52335  0.90114  1.0000
  H   H1137     1.0  0.84673  0.53681  0.85521  1.0000
  C   C1142     1.0  0.63613  0.52588  0.99618  1.0000
  S   S381      1.0  0.49872  0.66579  0.76506  1.0000
  C   C1143     1.0  0.62484  0.49917  0.98895  1.0000
  C   C1144     1.0  0.83280  0.56464  0.86127  1.0000
  C   C1145     1.0  0.57652  0.52032  0.00151  1.0000
  C   C1146     1.0  0.51043  0.74500  0.80473  1.0000
  C   C1147     1.0  0.98954  0.58719  0.87442  1.0000
  H   H1138     1.0  0.65311  0.95144  0.82299  1.0000
  H   H1139     1.0  0.81305  0.58788  0.86521  1.0000
  H   H1140     1.0  0.58627  0.54206  0.00133  1.0000
  H   H1141     1.0  0.90547  0.55331  0.99938  1.0000
  H   H1142     1.0  0.55852  0.96984  0.89685  1.0000
  C   C1148     1.0  0.98248  0.55922  0.83908  1.0000
  H   H1143     1.0  0.97349  0.53403  0.80788  1.0000
  Fe  Fe192     1.0  0.99097  0.61201  0.79297  1.0000
  H   H1144     1.0  0.50662  0.59485  0.88113  1.0000
  N   N96       1.0  0.54595  0.97201  0.86121  1.0000
  C   C1149     1.0  0.75735  0.50250  0.83625  1.0000
  S   S382      1.0  0.50470  0.65393  0.82213  1.0000
  S   S383      1.0  0.66106  0.99210  0.93198  1.0000
  C   C1150     1.0  0.88767  0.98213  0.00352  1.0000
  H   H1145     1.0  0.71373  0.97905  0.93009  1.0000
  H   H1146     1.0  0.75695  0.50328  0.81636  1.0000
  H   H1147     1.0  0.83686  0.97664  0.98304  1.0000
  H   H1148     1.0  0.81186  0.98682  0.98102  1.0000
  C   C1151     1.0  0.63320  0.99138  0.99801  1.0000
  H   H1149     1.0  0.98812  0.58428  0.89419  1.0000
  C   C1152     1.0  0.68636  0.51020  0.00799  1.0000
  S   S384      1.0  0.83001  0.49758  0.92603  1.0000
  H   H1150     1.0  0.98458  0.74725  0.86228  1.0000
  H   H1151     1.0  0.92019  0.49968  0.86818  1.0000
  H   H1152     1.0  0.57557  0.49742  0.81810  1.0000
