data_image0
_chemical_formula_structural       S2FeSFeSFeS2C2NFeS2FeS2FeSFeS3C3H2C6H4SHC4HCHC7H4NHCH2C3H3CHCHCH2CHFeSCHCHCH2CHCH10CHC4SHC3N2H2C2HC2HC3H4CHFeH2CSC2H2CFeSH2FeS2HNCFeS2FeS2FeSFeS3CS2CHC5H2C3H2CHC2H2C6H6SH2CHCHC2HC2HSCHC2H2CH2CHCH2CSHC2HCH2CN2C3HCH2CHNHCHC3H2C3H2CHCHC2HCFeHCHNCH2CH3C3HC3S2FeSFeSFeS2CH2FeS2FeS2FeSFeS3C2H2SC6H5C5HNHC7H2C2HC2HC2HCSHCH3CH3SCH7FeHCH2CH2CHNFeNHFeNC6H2CH2CH2CSHCH5SC3HCHCHCHCHNCHC2HC3HC2HFeS2FeNHFeS2FeS2FeSFeS3C2HCHC3H4C4H2C3H2C6H4C2NH2CHSCH3CNHC3HC2HCNH2CHCHC5HCH2CNCH2C2H2CH3SHCHC2H4SHC2HC2SCH7SH2FeSHSC3SHCH3C2HC2H2SC2H2NH6SFeH2C3H3C3H2CSHCH2FeC2SC2HC2SHCFeS2CFeSCS2CFeSHSC2H3CHCHC3H3SHS2FeSC5H2CHS2C2H2SCH2FeNC6H9CHFeHC2H3C2NFe2CH2CSFeC2SH2CHNCSC2H2FeCH2C2SCNHNH2C2S2C2SHCHFeH2CH2CHCHCH2C2FeCH2C2SCH4SH2SHSFeSHCFeSH2SCFeS3C2H3SH2CHCHCHC2S3FeS2C4H2FeC2HC4HNC3NH3NC4H4CHCH3CHCH3FeH3FeCS3HFeC2HFeS2H3FeS2FeS2FeSFeS3CSFeS2FeS2Fe2S2CFeCHC4H2CH2C3H4C6H4C2H3CHC2HNC7H4NC6H5CH2NC6HCH3CHCNCSHC2H2NH3CHCSFeH5CHC2H2C2H2NC2HCHCH2C2SHSHC2HFeS2CHFeH4NHSC3S2FeS2FeS2FeSFeS3H3C3HCH3CSH2CHC2H2CSNCHCHCHC6H7C2HCSHC5HC2H2CHNCNC6H8CHC3H3CH2SCH2NHFe2CHFeCHCFeS2C2HFeS2FeS2FeSFeS3HSFeS2FeS2Fe2S2HCH2C4H2C2HC3HCH2C6H4CH3C3HC3HC6H4NC5HCH3NCH2CH2SHCHCHCNCHCH2CHSHFeC3H3CHCHNCH2C4HCHCHCNH3FeCHCHC2H3CSH2C2HNHC2HCHFeS2CHNSH2FeH2C3HCSFeS2FeS2FeSFeS3CS2C3HCH2CHCHCHCH2CH5C2FeCHC6H4CFeH2SCH4CHCFeC2H3C2HC3H2CH2NC6H3S2H3C6HSHCHCH2FeCN
_chemical_formula_sum              "S192 Fe96 C576 N48 H576"
_cell_length_a       49.3324
_cell_length_b       49.5743
_cell_length_c       36.7303
_cell_angle_alpha    88.8693
_cell_angle_beta     90.8366
_cell_angle_gamma    120.192

_space_group_name_H-M_alt    "P 1"
_space_group_IT_number       1

loop_
  _space_group_symop_operation_xyz
  'x, y, z'

loop_
  _atom_site_type_symbol
  _atom_site_label
  _atom_site_symmetry_multiplicity
  _atom_site_fract_x
  _atom_site_fract_y
  _atom_site_fract_z
  _atom_site_occupancy
  S   S1        1.0  0.28690  0.16203  0.13433  1.0000
  S   S2        1.0  0.28286  0.17085  0.22212  1.0000
  Fe  Fe1       1.0  0.28941  0.13828  0.18600  1.0000
  S   S3        1.0  0.25547  0.08611  0.18928  1.0000
  Fe  Fe2       1.0  0.28505  0.19688  0.17061  1.0000
  S   S4        1.0  0.25083  0.21391  0.15991  1.0000
  Fe  Fe3       1.0  0.18853  0.33465  0.47911  1.0000
  S   S5        1.0  0.16200  0.28248  0.47670  1.0000
  S   S6        1.0  0.22197  0.36452  0.43445  1.0000
  C   C1        1.0  0.30224  0.25872  0.24404  1.0000
  C   C2        1.0  0.24785  0.45274  0.32739  1.0000
  N   N1        1.0  0.28331  0.20850  0.04981  1.0000
  Fe  Fe4       1.0  0.26597  0.37639  0.17204  1.0000
  S   S7        1.0  0.21349  0.34806  0.16843  1.0000
  S   S8        1.0  0.29878  0.35894  0.15760  1.0000
  Fe  Fe5       1.0  0.26527  0.43324  0.20173  1.0000
  S   S9        1.0  0.21284  0.40889  0.20092  1.0000
  S   S10       1.0  0.29610  0.48273  0.22084  1.0000
  Fe  Fe6       1.0  0.21498  0.36765  0.22368  1.0000
  S   S11       1.0  0.18287  0.33623  0.26825  1.0000
  Fe  Fe7       1.0  0.21694  0.39220  0.14599  1.0000
  S   S12       1.0  0.18734  0.39566  0.10067  1.0000
  S   S13       1.0  0.26728  0.39316  0.22871  1.0000
  S   S14       1.0  0.26944  0.41926  0.14525  1.0000
  C   C3        1.0  0.19832  0.39602  0.05518  1.0000
  C   C4        1.0  0.22455  0.39360  0.04678  1.0000
  C   C5        1.0  0.01330  0.24592  0.48908  1.0000
  H   H1        1.0  0.23946  0.39312  0.06836  1.0000
  H   H2        1.0  0.23419  0.31473  0.25266  1.0000
  C   C6        1.0  0.21160  0.35447  0.38850  1.0000
  C   C7        1.0  0.23352  0.37156  0.36120  1.0000
  C   C8        1.0  0.22524  0.36568  0.32421  1.0000
  C   C9        1.0  0.19490  0.34270  0.31430  1.0000
  C   C10       1.0  0.17319  0.32520  0.34163  1.0000
  C   C11       1.0  0.18148  0.33103  0.37864  1.0000
  H   H3        1.0  0.25686  0.38977  0.36867  1.0000
  H   H4        1.0  0.24216  0.37937  0.30347  1.0000
  H   H5        1.0  0.14968  0.30733  0.33417  1.0000
  H   H6        1.0  0.16437  0.31776  0.39948  1.0000
  S   S15       1.0  0.32849  0.18967  0.43270  1.0000
  H   H7        1.0  0.28929  0.23637  0.22917  1.0000
  C   C12       1.0  0.24406  0.02616  0.18421  1.0000
  C   C13       1.0  0.26698  0.05759  0.18944  1.0000
  C   C14       1.0  0.29809  0.06536  0.19566  1.0000
  C   C15       1.0  0.30604  0.04176  0.19733  1.0000
  H   H8        1.0  0.23352  0.47382  0.20983  1.0000
  C   C16       1.0  0.04570  0.26711  0.48903  1.0000
  H   H9        1.0  0.31590  0.08945  0.19982  1.0000
  C   C17       1.0  0.17919  0.39666  0.02691  1.0000
  C   C18       1.0  0.26439  0.25425  0.15709  1.0000
  C   C19       1.0  0.24267  0.26457  0.15854  1.0000
  C   C20       1.0  0.25287  0.29664  0.15831  1.0000
  C   C21       1.0  0.28487  0.31857  0.15603  1.0000
  C   C22       1.0  0.30652  0.30822  0.15353  1.0000
  C   C23       1.0  0.29635  0.27618  0.15427  1.0000
  H   H10       1.0  0.21789  0.24771  0.16064  1.0000
  H   H11       1.0  0.23600  0.30431  0.16022  1.0000
  H   H12       1.0  0.17248  0.38326  0.40188  1.0000
  H   H13       1.0  0.31332  0.26861  0.15282  1.0000
  N   N2        1.0  0.20362  0.41861  0.36471  1.0000
  H   H14       1.0  0.29578  0.22497  0.10412  1.0000
  C   C24       1.0  0.23396  0.44256  0.36166  1.0000
  H   H15       1.0  0.24768  0.45372  0.38581  1.0000
  H   H16       1.0  0.24281  0.31105  0.43503  1.0000
  C   C25       1.0  0.20207  0.31390  0.03086  1.0000
  C   C26       1.0  0.28427  0.50311  0.12724  1.0000
  C   C27       1.0  0.30680  0.27782  0.45563  1.0000
  H   H17       1.0  0.23436  0.18013  0.03910  1.0000
  H   H18       1.0  0.29537  0.48902  0.12991  1.0000
  H   H19       1.0  0.12985  0.32188  0.05048  1.0000
  C   C28       1.0  0.28661  0.24569  0.45278  1.0000
  H   H20       1.0  0.22864  0.29578  0.48018  1.0000
  C   C29       1.0  0.24963  0.30639  0.46238  1.0000
  H   H21       1.0  0.23790  0.46378  0.11824  1.0000
  C   C30       1.0  0.30319  0.22788  0.07602  1.0000
  H   H22       1.0  0.27200  0.47154  0.32486  1.0000
  H   H23       1.0  0.20999  0.31737  0.08894  1.0000
  C   C31       1.0  0.24988  0.49835  0.21330  1.0000
  H   H24       1.0  0.32330  0.32012  0.24170  1.0000
  Fe  Fe8       1.0  0.33537  0.19975  0.22170  1.0000
  S   S16       1.0  0.07186  0.25272  0.49220  1.0000
  C   C32       1.0  0.25168  0.25654  0.24952  1.0000
  H   H25       1.0  0.25263  0.16073  0.06234  1.0000
  C   C33       1.0  0.28061  0.32111  0.24752  1.0000
  H   H26       1.0  0.33200  0.28737  0.45626  1.0000
  C   C34       1.0  0.28308  0.01032  0.19232  1.0000
  H   H27       1.0  0.16316  0.32216  0.10143  1.0000
  H   H28       1.0  0.04345  0.33467  0.48508  1.0000
  C   C35       1.0  0.03495  0.30985  0.48625  1.0000
  H   H29       1.0  0.32454  0.27332  0.22909  1.0000
  C   C36       1.0  0.23349  0.27084  0.25220  1.0000
  H   H30       1.0  0.26672  0.32901  0.47483  1.0000
  H   H31       1.0  0.29215  0.34638  0.24554  1.0000
  H   H32       1.0  0.31287  0.17448  0.30125  1.0000
  H   H33       1.0  0.31020  0.32238  0.46170  1.0000
  H   H34       1.0  0.21998  0.02005  0.17918  1.0000
  H   H35       1.0  0.16241  0.38529  0.33657  1.0000
  H   H36       1.0  0.21732  0.24447  0.45814  1.0000
  H   H37       1.0  0.23832  0.20868  0.45186  1.0000
  H   H38       1.0  0.17616  0.42125  0.40690  1.0000
  H   H39       1.0  0.20684  0.41381  0.42237  1.0000
  C   C37       1.0  0.29810  0.30607  0.24512  1.0000
  H   H40       1.0  0.18587  0.40227  0.27561  1.0000
  C   C38       1.0  0.33626  0.20284  0.38710  1.0000
  C   C39       1.0  0.14979  0.31907  0.04474  1.0000
  C   C40       1.0  0.31832  0.18238  0.35924  1.0000
  C   C41       1.0  0.19484  0.31656  0.06672  1.0000
  S   S17       1.0  0.14818  0.33770  0.50228  1.0000
  H   H41       1.0  0.24011  0.23124  0.24958  1.0000
  C   C42       1.0  0.29428  0.29752  0.45884  1.0000
  C   C43       1.0  0.18901  0.40889  0.40069  1.0000
  C   C44       1.0  0.05647  0.29913  0.48746  1.0000
  N   N3        1.0  0.28356  0.27417  0.24584  1.0000
  N   N4        1.0  0.26251  0.28550  0.45961  1.0000
  H   H42       1.0  0.29605  0.23012  0.45069  1.0000
  H   H43       1.0  0.33007  0.04788  0.20274  1.0000
  C   C45       1.0  0.16849  0.31908  0.07377  1.0000
  C   C46       1.0  0.24251  0.25403  0.45675  1.0000
  H   H44       1.0  0.08134  0.31565  0.48713  1.0000
  C   C47       1.0  0.18631  0.40457  0.33422  1.0000
  C   C48       1.0  0.24809  0.30335  0.25116  1.0000
  H   H45       1.0  0.29897  0.15945  0.36612  1.0000
  C   C49       1.0  0.23045  0.43840  0.29621  1.0000
  C   C50       1.0  0.19947  0.41415  0.29957  1.0000
  C   C51       1.0  0.25423  0.23367  0.45334  1.0000
  H   H46       1.0  0.30789  0.25377  0.27190  1.0000
  H   H47       1.0  0.24114  0.44598  0.26958  1.0000
  H   H48       1.0  0.31320  0.15758  0.06691  1.0000
  H   H49       1.0  0.20817  0.25683  0.25450  1.0000
  C   C52       1.0  0.25213  0.18286  0.05986  1.0000
  H   H50       1.0  0.22289  0.31264  0.02500  1.0000
  Fe  Fe9       1.0  0.12326  0.28537  0.50462  1.0000
  H   H51       1.0  0.15891  0.39864  0.03329  1.0000
  H   H52       1.0  0.24434  0.18711  0.08638  1.0000
  C   C53       1.0  0.32767  0.16972  0.04367  1.0000
  S   S18       1.0  0.34224  0.16531  0.18952  1.0000
  C   C54       1.0  0.25203  0.48897  0.12097  1.0000
  C   C55       1.0  0.33357  0.25141  0.06710  1.0000
  H   H53       1.0  0.33131  0.32511  0.15161  1.0000
  H   H54       1.0  0.21282  0.49647  0.11481  1.0000
  C   C56       1.0  0.32610  0.19087  0.32248  1.0000
  Fe  Fe10      1.0  0.33911  0.19119  0.13999  1.0000
  S   S19       1.0  0.33702  0.22797  0.17236  1.0000
  H   H55       1.0  0.29267  0.14031  0.00455  1.0000
  H   H56       1.0  0.09841  0.31690  0.58004  1.0000
  Fe  Fe11      1.0  0.16741  0.33458  0.55720  1.0000
  S   S20       1.0  0.14025  0.28235  0.56075  1.0000
  S   S21       1.0  0.16537  0.36465  0.60157  1.0000
  H   H57       1.0  0.01157  0.22977  0.57872  1.0000
  N   N5        1.0  0.15733  0.31694  0.00960  1.0000
  C   C57       1.0  0.25152  0.47841  0.92155  1.0000
  Fe  Fe12      1.0  0.18621  0.38085  0.89122  1.0000
  S   S22       1.0  0.16080  0.40771  0.89109  1.0000
  S   S23       1.0  0.21651  0.38061  0.93788  1.0000
  Fe  Fe13      1.0  0.16779  0.36045  0.81224  1.0000
  S   S24       1.0  0.14159  0.38626  0.80622  1.0000
  S   S25       1.0  0.17021  0.33092  0.76769  1.0000
  Fe  Fe14      1.0  0.18241  0.42482  0.83597  1.0000
  S   S26       1.0  0.20202  0.47519  0.81836  1.0000
  Fe  Fe15      1.0  0.12253  0.36629  0.86162  1.0000
  S   S27       1.0  0.07092  0.34761  0.87179  1.0000
  S   S28       1.0  0.21028  0.40047  0.83772  1.0000
  S   S29       1.0  0.14634  0.33793  0.86607  1.0000
  C   C58       1.0  0.01178  0.29632  0.87362  1.0000
  S   S30       1.0  0.33520  0.15248  0.83367  1.0000
  S   S31       1.0  0.19989  0.25161  0.54483  1.0000
  C   C59       1.0  0.29635  0.01900  0.82303  1.0000
  H   H58       1.0  0.15135  0.32732  0.95437  1.0000
  C   C60       1.0  0.30658  0.05102  0.82167  1.0000
  C   C61       1.0  0.28449  0.06063  0.81711  1.0000
  C   C62       1.0  0.25238  0.03832  0.81446  1.0000
  C   C63       1.0  0.22500  0.43923  0.74554  1.0000
  C   C64       1.0  0.28345  0.25468  0.54541  1.0000
  H   H59       1.0  0.29212  0.08522  0.81567  1.0000
  H   H60       1.0  0.23541  0.04594  0.81111  1.0000
  C   C65       1.0  0.04411  0.30706  0.87431  1.0000
  C   C66       1.0  0.05432  0.28536  0.87589  1.0000
  C   C67       1.0  0.03234  0.25320  0.87656  1.0000
  H   H61       1.0  0.32383  0.24208  0.59714  1.0000
  H   H62       1.0  0.07909  0.29330  0.87663  1.0000
  C   C68       1.0  0.05617  0.31975  0.57884  1.0000
  H   H63       1.0  0.29435  0.09916  0.90550  1.0000
  C   C69       1.0  0.21085  0.38968  0.98225  1.0000
  C   C70       1.0  0.31670  0.21234  0.69627  1.0000
  H   H64       1.0  0.33556  0.26020  0.71072  1.0000
  H   H65       1.0  0.16997  0.39303  0.96905  1.0000
  C   C71       1.0  0.16244  0.35212  0.64732  1.0000
  C   C72       1.0  0.15711  0.36848  0.67440  1.0000
  C   C73       1.0  0.15849  0.36158  0.71146  1.0000
  C   C74       1.0  0.16498  0.33807  0.72163  1.0000
  C   C75       1.0  0.16887  0.32076  0.69451  1.0000
  C   C76       1.0  0.16767  0.32777  0.65743  1.0000
  H   H66       1.0  0.15284  0.38720  0.66672  1.0000
  H   H67       1.0  0.15537  0.37502  0.73203  1.0000
  H   H68       1.0  0.17376  0.30242  0.70219  1.0000
  H   H69       1.0  0.17181  0.31501  0.63678  1.0000
  H   H70       1.0  0.04042  0.23656  0.87788  1.0000
  H   H71       1.0  0.06952  0.25889  0.57975  1.0000
  S   S32       1.0  0.31957  0.16265  0.93410  1.0000
  H   H72       1.0  0.23815  0.40408  0.75009  1.0000
  H   H73       1.0  0.18920  0.31292  0.97455  1.0000
  C   C77       1.0  0.26230  0.29737  0.55098  1.0000
  H   H74       1.0  0.12631  0.33085  0.98599  1.0000
  C   C78       1.0  0.22489  0.43108  0.67111  1.0000
  H   H75       1.0  0.21070  0.46574  0.66578  1.0000
  C   C79       1.0  0.32156  0.23372  0.62502  1.0000
  C   C80       1.0  0.26391  0.49149  0.82948  1.0000
  H   H76       1.0  0.31606  0.20445  0.72421  1.0000
  C   C81       1.0  0.21700  0.45251  0.68442  1.0000
  C   C82       1.0  0.24136  0.39220  0.68028  1.0000
  H   H77       1.0  0.31136  0.33244  0.55367  1.0000
  S   S33       1.0  0.21046  0.33683  0.53394  1.0000
  C   C83       1.0  0.30246  0.06038  0.91061  1.0000
  H   H78       1.0  0.25432  0.31396  0.55313  1.0000
  C   C84       1.0  0.23079  0.39047  0.01037  1.0000
  C   C85       1.0  0.13734  0.31673  0.97950  1.0000
  H   H79       1.0  0.32781  0.07495  0.91113  1.0000
  H   H80       1.0  0.23645  0.06520  0.90118  1.0000
  C   C86       1.0  0.02388  0.25505  0.57929  1.0000
  H   H81       1.0  0.30055  0.16699  0.67338  1.0000
  H   H82       1.0  0.23441  0.21957  0.54336  1.0000
  C   C87       1.0  0.32796  0.24395  0.68839  1.0000
  H   H83       1.0  0.24069  0.45319  0.92416  1.0000
  C   C88       1.0  0.01322  0.26836  0.78668  1.0000
  H   H84       1.0  0.10352  0.31371  0.77983  1.0000
  H   H85       1.0  0.11867  0.29243  0.97375  1.0000
  C   C89       1.0  0.07291  0.30395  0.57995  1.0000
  S   S34       1.0  0.33473  0.21676  0.53128  1.0000
  H   H86       1.0  0.22431  0.42769  0.64192  1.0000
  C   C90       1.0  0.21712  0.45659  0.72193  1.0000
  C   C91       1.0  0.24208  0.00631  0.81695  1.0000
  H   H87       1.0  0.23064  0.38349  0.65304  1.0000
  C   C92       1.0  0.02924  0.30099  0.78502  1.0000
  H   H88       1.0  0.23305  0.37133  0.69846  1.0000
  H   H89       1.0  0.25566  0.46694  0.83327  1.0000
  C   C93       1.0  0.18288  0.31401  0.00245  1.0000
  N   N6        1.0  0.02934  0.25256  0.78595  1.0000
  N   N7        1.0  0.23227  0.41390  0.69460  1.0000
  C   C94       1.0  0.23253  0.41784  0.73140  1.0000
  C   C95       1.0  0.18546  0.39356  0.99050  1.0000
  C   C96       1.0  0.05671  0.27139  0.58014  1.0000
  H   H90       1.0  0.07453  0.34274  0.78257  1.0000
  C   C97       1.0  0.24050  0.26555  0.54785  1.0000
  H   H91       1.0  0.01654  0.31351  0.78712  1.0000
  H   H92       1.0  0.26726  0.40400  0.67791  1.0000
  C   C98       1.0  0.30529  0.28652  0.54809  1.0000
  H   H93       1.0  0.06860  0.34507  0.57803  1.0000
  N   N8        1.0  0.33025  0.25422  0.65306  1.0000
  H   H94       1.0  0.25055  0.38759  0.00412  1.0000
  C   C99       1.0  0.06135  0.26850  0.78319  1.0000
  H   H95       1.0  0.21109  0.47311  0.73290  1.0000
  C   C100      1.0  0.31040  0.20200  0.63189  1.0000
  C   C101      1.0  0.23316  0.49195  0.91383  1.0000
  C   C102      1.0  0.29460  0.30778  0.55136  1.0000
  H   H96       1.0  0.32465  0.29045  0.62910  1.0000
  H   H97       1.0  0.02092  0.21076  0.81275  1.0000
  C   C103      1.0  0.28369  0.07394  0.90711  1.0000
  C   C104      1.0  0.02333  0.30268  0.57780  1.0000
  C   C105      1.0  0.07809  0.30114  0.78142  1.0000
  H   H98       1.0  0.22517  0.44239  0.77463  1.0000
  H   H99       1.0  0.30473  0.18599  0.60953  1.0000
  C   C106      1.0  0.25119  0.05488  0.90466  1.0000
  H   H100      1.0  0.30328  0.01755  0.91353  1.0000
  C   C107      1.0  0.28842  0.02784  0.91164  1.0000
  H   H101      1.0  0.27777  0.19564  0.99388  1.0000
  C   C108      1.0  0.30800  0.19131  0.66777  1.0000
  C   C109      1.0  0.06186  0.31742  0.78257  1.0000
  H   H102      1.0  0.29124  0.23803  0.54271  1.0000
  C   C110      1.0  0.25119  0.24423  0.54571  1.0000
  Fe  Fe16      1.0  0.18166  0.28462  0.53276  1.0000
  H   H103      1.0  0.20802  0.47738  0.90992  1.0000
  C   C111      1.0  0.33508  0.17471  0.97797  1.0000
  H   H104      1.0  0.07419  0.25604  0.78292  1.0000
  N   N9        1.0  0.25654  0.00931  0.90878  1.0000
  C   C112      1.0  0.23792  0.02240  0.90554  1.0000
  H   H105      1.0  0.31334  0.01142  0.82637  1.0000
  H   H106      1.0  0.33096  0.23724  0.97657  1.0000
  C   C113      1.0  0.01254  0.21838  0.78854  1.0000
  H   H107      1.0  0.01045  0.31512  0.57603  1.0000
  H   H108      1.0  0.01627  0.20842  0.76359  1.0000
  H   H109      1.0  0.29852  0.48713  0.93037  1.0000
  C   C114      1.0  0.31619  0.15978  0.00834  1.0000
  C   C115      1.0  0.32313  0.23526  0.00449  1.0000
  C   C116      1.0  0.28396  0.49745  0.92510  1.0000
  H   H110      1.0  0.21269  0.00767  0.90256  1.0000
  C   C117      1.0  0.24268  0.50172  0.82172  1.0000
  C   C118      1.0  0.29301  0.21176  0.01446  1.0000
  C   C119      1.0  0.34250  0.28738  0.64457  1.0000
  S   S35       1.0  0.27898  0.64862  0.14490  1.0000
  S   S36       1.0  0.27436  0.66690  0.22909  1.0000
  Fe  Fe17      1.0  0.27938  0.62973  0.20083  1.0000
  S   S37       1.0  0.24606  0.57800  0.20877  1.0000
  Fe  Fe18      1.0  0.27924  0.68834  0.17349  1.0000
  S   S38       1.0  0.24769  0.70705  0.15567  1.0000
  Fe  Fe19      1.0  0.19115  0.82440  0.48279  1.0000
  S   S39       1.0  0.16441  0.77205  0.48381  1.0000
  S   S40       1.0  0.22624  0.84975  0.43762  1.0000
  C   C120      1.0  0.32797  0.68273  0.32950  1.0000
  H   H111      1.0  0.27515  0.84488  0.48886  1.0000
  H   H112      1.0  0.24216  0.83574  0.11679  1.0000
  Fe  Fe20      1.0  0.26035  0.86855  0.18298  1.0000
  S   S41       1.0  0.20801  0.83936  0.18444  1.0000
  S   S42       1.0  0.29387  0.85032  0.17748  1.0000
  Fe  Fe21      1.0  0.25980  0.92963  0.18950  1.0000
  S   S43       1.0  0.20722  0.90518  0.19104  1.0000
  S   S44       1.0  0.29386  0.98132  0.19661  1.0000
  Fe  Fe22      1.0  0.21091  0.87099  0.22902  1.0000
  S   S45       1.0  0.17822  0.85152  0.27714  1.0000
  Fe  Fe23      1.0  0.20890  0.87580  0.14623  1.0000
  S   S46       1.0  0.17396  0.85805  0.09966  1.0000
  S   S47       1.0  0.26339  0.89746  0.23092  1.0000
  S   S48       1.0  0.26137  0.90291  0.14147  1.0000
  C   C121      1.0  0.18647  0.87201  0.05507  1.0000
  C   C122      1.0  0.21756  0.89474  0.04794  1.0000
  H   H113      1.0  0.18495  0.94319  0.24322  1.0000
  H   H114      1.0  0.23400  0.90519  0.07014  1.0000
  S   S49       1.0  0.33188  0.65462  0.20614  1.0000
  C   C123      1.0  0.21234  0.84807  0.39280  1.0000
  C   C124      1.0  0.23371  0.85914  0.36382  1.0000
  C   C125      1.0  0.22343  0.85938  0.32795  1.0000
  C   C126      1.0  0.19173  0.84888  0.32101  1.0000
  C   C127      1.0  0.17035  0.83744  0.34992  1.0000
  C   C128      1.0  0.18057  0.83689  0.38570  1.0000
  H   H115      1.0  0.25834  0.86787  0.36921  1.0000
  H   H116      1.0  0.24009  0.86836  0.30589  1.0000
  H   H117      1.0  0.14579  0.82924  0.34469  1.0000
  H   H118      1.0  0.16394  0.82832  0.40787  1.0000
  H   H119      1.0  0.31654  0.66572  0.30828  1.0000
  C   C129      1.0  0.16521  0.85895  0.02598  1.0000
  C   C130      1.0  0.29731  0.75212  0.25167  1.0000
  C   C131      1.0  0.26017  0.55185  0.21468  1.0000
  C   C132      1.0  0.29191  0.56237  0.22129  1.0000
  C   C133      1.0  0.30257  0.54088  0.22390  1.0000
  H   H120      1.0  0.23428  0.97862  0.18074  1.0000
  N   N10       1.0  0.27676  0.76548  0.25391  1.0000
  H   H121      1.0  0.30824  0.58700  0.22443  1.0000
  C   C134      1.0  0.28166  0.50885  0.21945  1.0000
  C   C135      1.0  0.26085  0.74708  0.16024  1.0000
  C   C136      1.0  0.23883  0.75705  0.16143  1.0000
  C   C137      1.0  0.24861  0.78867  0.16664  1.0000
  C   C138      1.0  0.28054  0.81062  0.16973  1.0000
  C   C139      1.0  0.30258  0.80073  0.16773  1.0000
  C   C140      1.0  0.29279  0.76905  0.16318  1.0000
  H   H122      1.0  0.21407  0.74012  0.15921  1.0000
  H   H123      1.0  0.23139  0.79591  0.16879  1.0000
  C   C141      1.0  0.30691  0.58729  0.13346  1.0000
  C   C142      1.0  0.32435  0.67302  0.36624  1.0000
  H   H124      1.0  0.28725  0.97301  0.27798  1.0000
  C   C143      1.0  0.23915  0.51976  0.21127  1.0000
  C   C144      1.0  0.26235  0.94661  0.32593  1.0000
  H   H125      1.0  0.28335  0.95089  0.34060  1.0000
  C   C145      1.0  0.05973  0.79051  0.48796  1.0000
  C   C146      1.0  0.28932  0.79689  0.25854  1.0000
  H   H126      1.0  0.16362  0.93125  0.28518  1.0000
  C   C147      1.0  0.25639  0.53967  0.12336  1.0000
  S   S50       1.0  0.07387  0.74390  0.50048  1.0000
  H   H127      1.0  0.23079  0.91792  0.36861  1.0000
  C   C148      1.0  0.30660  0.72105  0.07750  1.0000
  H   H128      1.0  0.27995  0.83486  0.26330  1.0000
  H   H129      1.0  0.32865  0.59416  0.14953  1.0000
  H   H130      1.0  0.02003  0.72950  0.42635  1.0000
  C   C149      1.0  0.33973  0.69476  0.39395  1.0000
  H   H131      1.0  0.24517  0.55372  0.12278  1.0000
  H   H132      1.0  0.31349  0.59888  0.10623  1.0000
  H   H133      1.0  0.31453  0.81234  0.25918  1.0000
  S   S51       1.0  0.15069  0.82847  0.50378  1.0000
  C   C150      1.0  0.26986  0.80979  0.26112  1.0000
  H   H134      1.0  0.31441  0.85345  0.48090  1.0000
  H   H135      1.0  0.30999  0.76174  0.16191  1.0000
  H   H136      1.0  0.31001  0.64850  0.37317  1.0000
  H   H137      1.0  0.28979  0.85232  0.44301  1.0000
  H   H138      1.0  0.20231  0.81971  0.10203  1.0000
  H   H139      1.0  0.32717  0.54914  0.22892  1.0000
  H   H140      1.0  0.30414  0.75671  0.45533  1.0000
  Fe  Fe24      1.0  0.32698  0.69355  0.22976  1.0000
  H   H141      1.0  0.08381  0.80507  0.47945  1.0000
  C   C151      1.0  0.20601  0.92236  0.32203  1.0000
  H   H142      1.0  0.22204  0.79753  0.09700  1.0000
  H   H143      1.0  0.21454  0.51148  0.20626  1.0000
  C   C152      1.0  0.26457  0.95899  0.29092  1.0000
  H   H144      1.0  0.29368  0.59625  0.14836  1.0000
  H   H145      1.0  0.19012  0.80628  0.03543  1.0000
  C   C153      1.0  0.04910  0.75989  0.50002  1.0000
  H   H146      1.0  0.32694  0.54616  0.13683  1.0000
  N   N11       1.0  0.20842  0.93487  0.28788  1.0000
  Fe  Fe25      1.0  0.33112  0.67566  0.15158  1.0000
  N   N12       1.0  0.28797  0.55330  0.12967  1.0000
  H   H147      1.0  0.28242  0.86628  0.07584  1.0000
  Fe  Fe26      1.0  0.12579  0.77634  0.50986  1.0000
  N   N13       1.0  0.27844  0.80796  0.46467  1.0000
  C   C154      1.0  0.29895  0.79717  0.46128  1.0000
  C   C155      1.0  0.24680  0.78784  0.46270  1.0000
  C   C156      1.0  0.28782  0.76531  0.45674  1.0000
  C   C157      1.0  0.23485  0.75582  0.45861  1.0000
  C   C158      1.0  0.25554  0.74453  0.45566  1.0000
  C   C159      1.0  0.29022  0.84133  0.46952  1.0000
  H   H148      1.0  0.28823  0.73332  0.23116  1.0000
  H   H149      1.0  0.23064  0.79648  0.46515  1.0000
  C   C160      1.0  0.21449  0.82367  0.03064  1.0000
  H   H150      1.0  0.20968  0.73988  0.45869  1.0000
  H   H151      1.0  0.24659  0.71966  0.45329  1.0000
  C   C161      1.0  0.24493  0.74617  0.25238  1.0000
  H   H152      1.0  0.18314  0.90702  0.33384  1.0000
  H   H153      1.0  0.32734  0.81763  0.17009  1.0000
  C   C162      1.0  0.23721  0.95284  0.27222  1.0000
  S   S52       1.0  0.33705  0.68141  0.43935  1.0000
  H   H154      1.0  0.30356  0.65394  0.07328  1.0000
  C   C163      1.0  0.22500  0.82125  0.09550  1.0000
  H   H155      1.0  0.29882  0.74220  0.27852  1.0000
  H   H156      1.0  0.23499  0.72131  0.24821  1.0000
  H   H157      1.0  0.16773  0.90318  0.25863  1.0000
  H   H158      1.0  0.22210  0.80015  0.26078  1.0000
  H   H159      1.0  0.23923  0.96237  0.24497  1.0000
  S   S53       1.0  0.33155  0.71718  0.17551  1.0000
  C   C164      1.0  0.23291  0.92829  0.34172  1.0000
  C   C165      1.0  0.32074  0.65814  0.05280  1.0000
  C   C166      1.0  0.17980  0.92784  0.26770  1.0000
  H   H160      1.0  0.19958  0.74298  0.25308  1.0000
  C   C167      1.0  0.30201  0.53550  0.13134  1.0000
  H   H161      1.0  0.14110  0.84141  0.03144  1.0000
  C   C168      1.0  0.22478  0.75827  0.25504  1.0000
  H   H162      1.0  0.29886  0.71987  0.10528  1.0000
  C   C169      1.0  0.23740  0.79032  0.25937  1.0000
  H   H163      1.0  0.04707  0.82551  0.47567  1.0000
  C   C170      1.0  0.03885  0.80198  0.48565  1.0000
  H   H164      1.0  0.32141  0.76982  0.24299  1.0000
  N   N14       1.0  0.23536  0.83475  0.05903  1.0000
  C   C171      1.0  0.01774  0.74109  0.51054  1.0000
  H   H165      1.0  0.32406  0.81299  0.46336  1.0000
  C   C172      1.0  0.26590  0.85740  0.05325  1.0000
  C   C173      1.0  0.28483  0.71092  0.04905  1.0000
  H   H166      1.0  0.26016  0.70172  0.05483  1.0000
  C   C174      1.0  0.33826  0.73226  0.06993  1.0000
  C   C175      1.0  0.25209  0.00264  0.18525  1.0000
  C   C176      1.0  0.23796  0.50733  0.11897  1.0000
  H   H167      1.0  0.00990  0.77174  0.40729  1.0000
  C   C177      1.0  0.27614  0.86978  0.01826  1.0000
  C   C178      1.0  0.24754  0.52442  0.90992  1.0000
  H   H168      1.0  0.04005  0.73558  0.88627  1.0000
  Fe  Fe27      1.0  0.16981  0.82784  0.55961  1.0000
  S   S54       1.0  0.14306  0.77587  0.56654  1.0000
  S   S55       1.0  0.16435  0.85727  0.60188  1.0000
  Fe  Fe28      1.0  0.18438  0.77691  0.54012  1.0000
  N   N15       1.0  0.27939  0.54289  0.91318  1.0000
  H   H169      1.0  0.18703  0.96106  0.73790  1.0000
  Fe  Fe29      1.0  0.18815  0.88702  0.89030  1.0000
  S   S56       1.0  0.15829  0.90915  0.88515  1.0000
  S   S57       1.0  0.22124  0.89765  0.93806  1.0000
  Fe  Fe30      1.0  0.17670  0.86635  0.81068  1.0000
  S   S58       1.0  0.14685  0.88796  0.79975  1.0000
  S   S59       1.0  0.19201  0.84443  0.76813  1.0000
  Fe  Fe31      1.0  0.18297  0.92843  0.83202  1.0000
  S   S60       1.0  0.20141  0.97908  0.81617  1.0000
  Fe  Fe32      1.0  0.12501  0.86620  0.85375  1.0000
  S   S61       1.0  0.07246  0.84532  0.85994  1.0000
  S   S62       1.0  0.21449  0.90857  0.83868  1.0000
  S   S63       1.0  0.15307  0.84221  0.86326  1.0000
  C   C179      1.0  0.26530  0.79209  0.55356  1.0000
  C   C180      1.0  0.03293  0.80418  0.58056  1.0000
  H   H170      1.0  0.17467  0.95179  0.67168  1.0000
  C   C181      1.0  0.25056  0.91768  0.73605  1.0000
  H   H171      1.0  0.08381  0.81817  0.93737  1.0000
  C   C182      1.0  0.30720  0.54532  0.82922  1.0000
  C   C183      1.0  0.28603  0.55556  0.82110  1.0000
  C   C184      1.0  0.25389  0.53379  0.81712  1.0000
  H   H172      1.0  0.25681  0.97227  0.82263  1.0000
  H   H173      1.0  0.22218  0.94512  0.76703  1.0000
  H   H174      1.0  0.29440  0.58022  0.81775  1.0000
  H   H175      1.0  0.23762  0.54187  0.81087  1.0000
  C   C185      1.0  0.04597  0.80460  0.85975  1.0000
  C   C186      1.0  0.05538  0.78333  0.87061  1.0000
  C   C187      1.0  0.03277  0.75171  0.87653  1.0000
  C   C188      1.0  0.28467  0.69599  0.63312  1.0000
  H   H176      1.0  0.07990  0.79141  0.87582  1.0000
  H   H177      1.0  0.29613  0.73450  0.54216  1.0000
  C   C189      1.0  0.25501  0.85857  0.98913  1.0000
  C   C190      1.0  0.20656  0.88983  0.98274  1.0000
  C   C191      1.0  0.17519  0.86789  0.98984  1.0000
  H   H178      1.0  0.27512  0.93731  0.73484  1.0000
  H   H179      1.0  0.15892  0.85706  0.96749  1.0000
  C   C192      1.0  0.16873  0.84950  0.64791  1.0000
  C   C193      1.0  0.15502  0.85833  0.67490  1.0000
  C   C194      1.0  0.16118  0.85592  0.71191  1.0000
  C   C195      1.0  0.18107  0.84461  0.72220  1.0000
  C   C196      1.0  0.19390  0.83474  0.69521  1.0000
  C   C197      1.0  0.18769  0.83709  0.65813  1.0000
  H   H180      1.0  0.14016  0.86776  0.66716  1.0000
  H   H181      1.0  0.15082  0.86317  0.73236  1.0000
  H   H182      1.0  0.20914  0.82575  0.70299  1.0000
  H   H183      1.0  0.19830  0.83015  0.63746  1.0000
  C   C198      1.0  0.28771  0.75063  0.54540  1.0000
  C   C199      1.0  0.29409  0.57692  0.90970  1.0000
  N   N16       1.0  0.04602  0.78609  0.58851  1.0000
  H   H184      1.0  0.23313  0.91088  0.66609  1.0000
  H   H185      1.0  0.19818  0.92660  0.63573  1.0000
  C   C200      1.0  0.32681  0.72400  0.00671  1.0000
  H   H186      1.0  0.08942  0.81787  0.56223  1.0000
  S   S64       1.0  0.34134  0.71365  0.53704  1.0000
  C   C201      1.0  0.02540  0.77462  0.96027  1.0000
  H   H187      1.0  0.24882  0.89685  0.72285  1.0000
  H   H188      1.0  0.25184  0.92064  0.00648  1.0000
  H   H189      1.0  0.27384  0.67076  0.63407  1.0000
  C   C202      1.0  0.20382  0.93137  0.66445  1.0000
  N   N17       1.0  0.28033  0.74206  0.63650  1.0000
  H   H190      1.0  0.25899  0.96753  0.90347  1.0000
  C   C203      1.0  0.26666  0.71025  0.63784  1.0000
  C   C204      1.0  0.33058  0.74691  0.62595  1.0000
  C   C205      1.0  0.24406  0.76005  0.55172  1.0000
  H   H191      1.0  0.31745  0.58708  0.89665  1.0000
  C   C206      1.0  0.22755  0.90361  0.01186  1.0000
  C   C207      1.0  0.29493  0.71240  0.01337  1.0000
  H   H192      1.0  0.04115  0.76651  0.96919  1.0000
  C   C208      1.0  0.22354  0.92240  0.68184  1.0000
  N   N18       1.0  0.22952  0.92685  0.71839  1.0000
  H   H193      1.0  0.32289  0.78563  0.62975  1.0000
  H   H194      1.0  0.28772  0.64565  0.00836  1.0000
  C   C209      1.0  0.26108  0.75645  0.64243  1.0000
  H   H195      1.0  0.25776  0.75773  0.67205  1.0000
  C   C210      1.0  0.26424  0.99673  0.82094  1.0000
  H   H196      1.0  0.09286  0.80715  0.60855  1.0000
  C   C211      1.0  0.21706  0.94105  0.73822  1.0000
  C   C212      1.0  0.19043  0.94521  0.68467  1.0000
  C   C213      1.0  0.19720  0.95026  0.72178  1.0000
  C   C214      1.0  0.31682  0.71448  0.62710  1.0000
  C   C215      1.0  0.30895  0.78268  0.54728  1.0000
  H   H197      1.0  0.03859  0.74252  0.60960  1.0000
  C   C216      1.0  0.29759  0.52985  0.92085  1.0000
  H   H198      1.0  0.32292  0.54448  0.92266  1.0000
  H   H199      1.0  0.23312  0.53465  0.90323  1.0000
  C   C217      1.0  0.29767  0.80332  0.55170  1.0000
  N   N19       1.0  0.03695  0.80518  0.95023  1.0000
  C   C218      1.0  0.01714  0.81516  0.93769  1.0000
  H   H200      1.0  0.24391  0.91074  0.76496  1.0000
  H   H201      1.0  0.30013  0.88829  0.01386  1.0000
  C   C219      1.0  0.25536  0.73934  0.54804  1.0000
  C   C220      1.0  0.07081  0.82707  0.95287  1.0000
  H   H202      1.0  0.25687  0.80816  0.55723  1.0000
  H   H203      1.0  0.29709  0.58752  0.93690  1.0000
  C   C221      1.0  0.02814  0.75678  0.60317  1.0000
  H   H204      1.0  0.33435  0.72435  0.97896  1.0000
  H   H205      1.0  0.02639  0.83909  0.92834  1.0000
  H   H206      1.0  0.07853  0.83022  0.98179  1.0000
  S   S65       1.0  0.21297  0.82915  0.53827  1.0000
  H   H207      1.0  0.27996  0.58377  0.89209  1.0000
  C   C222      1.0  0.29608  0.51321  0.83281  1.0000
  H   H208      1.0  0.08376  0.78001  0.57182  1.0000
  C   C223      1.0  0.07961  0.79842  0.58259  1.0000
  C   C224      1.0  0.22402  0.83528  0.99526  1.0000
  H   H209      1.0  0.23210  0.96592  0.93735  1.0000
  H   H210      1.0  0.31237  0.50516  0.83903  1.0000
  H   H211      1.0  0.07742  0.85032  0.94078  1.0000
  H   H212      1.0  0.33100  0.70366  0.62313  1.0000
  S   S66       1.0  0.32313  0.65962  0.94283  1.0000
  H   H213      1.0  0.31402  0.82813  0.55356  1.0000
  C   C225      1.0  0.01406  0.79366  0.85279  1.0000
  C   C226      1.0  0.31196  0.76040  0.63113  1.0000
  H   H214      1.0  0.22289  0.96453  0.88936  1.0000
  C   C227      1.0  0.24200  0.97523  0.90993  1.0000
  C   C228      1.0  0.33416  0.66045  0.98876  1.0000
  S   S67       1.0  0.20347  0.74515  0.55555  1.0000
  C   C229      1.0  0.31181  0.65350  0.01595  1.0000
  H   H215      1.0  0.04697  0.82734  0.56871  1.0000
  H   H216      1.0  0.23900  0.71449  0.54685  1.0000
  H   H217      1.0  0.24164  0.69573  0.64239  1.0000
  H   H218      1.0  0.26223  0.86862  0.96199  1.0000
  H   H219      1.0  0.23770  0.74277  0.62907  1.0000
  H   H220      1.0  0.27819  0.70407  0.99102  1.0000
  H   H221      1.0  0.27208  0.78037  0.63037  1.0000
  S   S68       1.0  0.33525  0.64561  0.84405  1.0000
  H   H222      1.0  0.20722  0.82732  0.97294  1.0000
  H   H223      1.0  0.00942  0.71740  0.51998  1.0000
  Fe  Fe33      1.0  0.42289  0.26751  0.50763  1.0000
  S   S69       1.0  0.38566  0.27218  0.47662  1.0000
  H   H224      1.0  0.38858  0.26366  0.33441  1.0000
  S   S70       1.0  0.36517  0.22973  0.26833  1.0000
  C   C230      1.0  0.55488  0.29676  0.48914  1.0000
  C   C231      1.0  0.42331  0.18700  0.04612  1.0000
  C   C232      1.0  0.42228  0.22255  0.34304  1.0000
  S   S71       1.0  0.37307  0.20800  0.09268  1.0000
  H   H225      1.0  0.65993  0.32647  0.39745  1.0000
  C   C233      1.0  0.35183  0.21996  0.31349  1.0000
  H   H226      1.0  0.34950  0.26613  0.08819  1.0000
  H   H227      1.0  0.44101  0.24583  0.44375  1.0000
  H   H228      1.0  0.41673  0.21638  0.31458  1.0000
  C   C234      1.0  0.44604  0.25277  0.35168  1.0000
  C   C235      1.0  0.50074  0.28541  0.49285  1.0000
  H   H229      1.0  0.47111  0.28450  0.39549  1.0000
  C   C236      1.0  0.36110  0.23248  0.37802  1.0000
  C   C237      1.0  0.36877  0.24102  0.34128  1.0000
  H   H230      1.0  0.65820  0.38713  0.30048  1.0000
  H   H231      1.0  0.39870  0.19274  0.42724  1.0000
  S   S72       1.0  0.64809  0.33729  0.49945  1.0000
  C   C238      1.0  0.49079  0.25377  0.49818  1.0000
  C   C239      1.0  0.51281  0.24366  0.49857  1.0000
  H   H232      1.0  0.46624  0.23708  0.50227  1.0000
  H   H233      1.0  0.64730  0.30125  0.05238  1.0000
  N   N20       1.0  0.40546  0.20145  0.37002  1.0000
  H   H234      1.0  0.36929  0.13964  0.02779  1.0000
  H   H235      1.0  0.40002  0.22993  0.02206  1.0000
  H   H236      1.0  0.37032  0.16937  0.33364  1.0000
  H   H237      1.0  0.66407  0.42526  0.28767  1.0000
  H   H238      1.0  0.49060  0.25450  0.02589  1.0000
  H   H239      1.0  0.45885  0.26960  0.33019  1.0000
  S   S73       1.0  0.39732  0.21517  0.50581  1.0000
  Fe  Fe34      1.0  0.35875  0.21993  0.47865  1.0000
  H   H240      1.0  0.37500  0.24846  0.39924  1.0000
  H   H241      1.0  0.36730  0.27278  0.02396  1.0000
  C   C240      1.0  0.37671  0.21011  0.01831  1.0000
  C   C241      1.0  0.35789  0.19505  0.04876  1.0000
  C   C242      1.0  0.38108  0.16970  0.36059  1.0000
  H   H242      1.0  0.36172  0.16018  0.38081  1.0000
  H   H243      1.0  0.64311  0.31997  0.33258  1.0000
  H   H244      1.0  0.50499  0.21915  0.50271  1.0000
  C   C243      1.0  0.54495  0.26513  0.49451  1.0000
  C   C244      1.0  0.45282  0.26116  0.38816  1.0000
  C   C245      1.0  0.41212  0.20942  0.40585  1.0000
  H   H245      1.0  0.64600  0.36810  0.02650  1.0000
  H   H246      1.0  0.39126  0.15422  0.35979  1.0000
  C   C246      1.0  0.43584  0.23938  0.41541  1.0000
  S   S74       1.0  0.47405  0.29927  0.49320  1.0000
  H   H247      1.0  0.57951  0.31344  0.48560  1.0000
  C   C247      1.0  0.46974  0.23185  0.02214  1.0000
  H   H248      1.0  0.54062  0.33128  0.48359  1.0000
  H   H249      1.0  0.40796  0.17520  0.06908  1.0000
  Fe  Fe35      1.0  0.62385  0.28505  0.50494  1.0000
  C   C248      1.0  0.53279  0.30679  0.48791  1.0000
  C   C249      1.0  0.45020  0.21607  0.05157  1.0000
  S   S75       1.0  0.66192  0.28096  0.47674  1.0000
  C   C250      1.0  0.67421  0.40975  0.28663  1.0000
  C   C251      1.0  0.67024  0.30797  0.04157  1.0000
  H   H250      1.0  0.45543  0.22642  0.07838  1.0000
  C   C252      1.0  0.67019  0.37612  0.01971  1.0000
  C   C253      1.0  0.66783  0.33294  0.33938  1.0000
  S   S76       1.0  0.57190  0.25162  0.49719  1.0000
  H   H251      1.0  0.67538  0.40397  0.25783  1.0000
  C   C254      1.0  0.34353  0.25511  0.03107  1.0000
  Fe  Fe36      1.0  0.37605  0.21747  0.55860  1.0000
  S   S77       1.0  0.40427  0.26956  0.56238  1.0000
  S   S78       1.0  0.36846  0.18394  0.60510  1.0000
  C   C255      1.0  0.52052  0.28820  0.58035  1.0000
  Fe  Fe37      1.0  0.37986  0.19419  0.81366  1.0000
  S   S79       1.0  0.40707  0.16908  0.81362  1.0000
  C   C256      1.0  0.58397  0.30793  0.58338  1.0000
  S   S80       1.0  0.65804  0.32697  0.76367  1.0000
  S   S81       1.0  0.38005  0.14433  0.89560  1.0000
  C   C257      1.0  0.59819  0.36237  0.57411  1.0000
  Fe  Fe38      1.0  0.42055  0.18696  0.87049  1.0000
  S   S82       1.0  0.47029  0.20518  0.89043  1.0000
  H   H252      1.0  0.56971  0.25912  0.58913  1.0000
  S   S83       1.0  0.39582  0.21444  0.86955  1.0000
  C   C258      1.0  0.49769  0.24548  0.88667  1.0000
  C   C259      1.0  0.48794  0.26750  0.88410  1.0000
  H   H253      1.0  0.53758  0.23875  0.88882  1.0000
  H   H254      1.0  0.46327  0.26003  0.88478  1.0000
  H   H255      1.0  0.61066  0.37129  0.60047  1.0000
  C   C260      1.0  0.46229  0.21838  0.98777  1.0000
  H   H256      1.0  0.58784  0.37681  0.56521  1.0000
  C   C261      1.0  0.38882  0.22878  0.65835  1.0000
  H   H257      1.0  0.38011  0.21153  0.95963  1.0000
  C   C262      1.0  0.37659  0.19726  0.65031  1.0000
  C   C263      1.0  0.36905  0.17551  0.67895  1.0000
  C   C264      1.0  0.37288  0.18501  0.71539  1.0000
  H   H258      1.0  0.36632  0.16793  0.73725  1.0000
  H   H259      1.0  0.61583  0.36548  0.55341  1.0000
  H   H260      1.0  0.67072  0.38544  0.72886  1.0000
  S   S84       1.0  0.64421  0.33895  0.86297  1.0000
  H   H261      1.0  0.65534  0.30298  0.98541  1.0000
  S   S85       1.0  0.64284  0.28479  0.56075  1.0000
  S   S86       1.0  0.63649  0.38655  0.80445  1.0000
  Fe  Fe39      1.0  0.62048  0.36746  0.86095  1.0000
  S   S87       1.0  0.56947  0.34981  0.87409  1.0000
  C   C265      1.0  0.66565  0.35657  0.64368  1.0000
  C   C266      1.0  0.54243  0.30961  0.87994  1.0000
  C   C267      1.0  0.55218  0.28759  0.88283  1.0000
  C   C268      1.0  0.52987  0.25565  0.88655  1.0000
  C   C269      1.0  0.51026  0.29945  0.88098  1.0000
  H   H262      1.0  0.57689  0.29516  0.88232  1.0000
  H   H263      1.0  0.50258  0.31640  0.87903  1.0000
  C   C270      1.0  0.53008  0.26622  0.58507  1.0000
  H   H264      1.0  0.51280  0.24151  0.58642  1.0000
  S   S88       1.0  0.67206  0.36938  0.59782  1.0000
  S   S89       1.0  0.34689  0.07809  0.82741  1.0000
  C   C271      1.0  0.43508  0.18939  0.98324  1.0000
  C   C272      1.0  0.38710  0.14418  0.00666  1.0000
  H   H265      1.0  0.64850  0.29343  0.69778  1.0000
  H   H266      1.0  0.40165  0.26261  0.70083  1.0000
  S   S90       1.0  0.38621  0.22854  0.76852  1.0000
  C   C273      1.0  0.65920  0.33834  0.71771  1.0000
  H   H267      1.0  0.36379  0.29648  0.62731  1.0000
  H   H268      1.0  0.49575  0.28068  0.57800  1.0000
  Fe  Fe40      1.0  0.66925  0.33671  0.55392  1.0000
  N   N21       1.0  0.50171  0.26972  0.79343  1.0000
  C   C274      1.0  0.51548  0.25167  0.79438  1.0000
  C   C275      1.0  0.51969  0.30150  0.79007  1.0000
  C   C276      1.0  0.54813  0.26543  0.79230  1.0000
  C   C277      1.0  0.55239  0.31601  0.78805  1.0000
  C   C278      1.0  0.56666  0.29783  0.78917  1.0000
  C   C279      1.0  0.46743  0.25464  0.79505  1.0000
  H   H269      1.0  0.50122  0.22650  0.79759  1.0000
  H   H270      1.0  0.50893  0.31593  0.78996  1.0000
  H   H271      1.0  0.55907  0.25116  0.79380  1.0000
  H   H272      1.0  0.56661  0.34128  0.78686  1.0000
  H   H273      1.0  0.59206  0.30887  0.78822  1.0000
  H   H274      1.0  0.45681  0.24461  0.76821  1.0000
  H   H275      1.0  0.45799  0.23564  0.81595  1.0000
  H   H276      1.0  0.45962  0.27122  0.80280  1.0000
  H   H277      1.0  0.42950  0.17917  0.95636  1.0000
  C   C280      1.0  0.38431  0.21638  0.72336  1.0000
  H   H278      1.0  0.53541  0.33656  0.57182  1.0000
  Fe  Fe41      1.0  0.66241  0.36026  0.80765  1.0000
  H   H279      1.0  0.39471  0.24571  0.63659  1.0000
  C   C281      1.0  0.65427  0.31695  0.69037  1.0000
  C   C282      1.0  0.65744  0.32600  0.65348  1.0000
  H   H280      1.0  0.66143  0.37231  0.96173  1.0000
  H   H281      1.0  0.60875  0.31553  0.58462  1.0000
  H   H282      1.0  0.65423  0.30948  0.63282  1.0000
  C   C283      1.0  0.56201  0.27609  0.58660  1.0000
  C   C284      1.0  0.54314  0.31983  0.57670  1.0000
  N   N22       1.0  0.57443  0.32926  0.57799  1.0000
  Fe  Fe42      1.0  0.36431  0.26881  0.53131  1.0000
  Fe  Fe43      1.0  0.36377  0.12888  0.83850  1.0000
  C   C285      1.0  0.36551  0.19972  0.98299  1.0000
  H   H283      1.0  0.47739  0.23032  0.96467  1.0000
  H   H284      1.0  0.35963  0.15110  0.67291  1.0000
  C   C286      1.0  0.39273  0.23830  0.69478  1.0000
  S   S91       1.0  0.66069  0.40906  0.88779  1.0000
  Fe  Fe44      1.0  0.35394  0.17024  0.88968  1.0000
  C   C287      1.0  0.66997  0.37779  0.67101  1.0000
  C   C288      1.0  0.66676  0.36873  0.70795  1.0000
  S   S92       1.0  0.34598  0.30061  0.54695  1.0000
  H   H285      1.0  0.39275  0.12515  0.00768  1.0000
  H   H286      1.0  0.34890  0.30175  0.66944  1.0000
  C   C289      1.0  0.67477  0.30899  0.00406  1.0000
  H   H287      1.0  0.37601  0.14386  0.97996  1.0000
  N   N23       1.0  0.41571  0.17437  0.01210  1.0000
  C   C290      1.0  0.37406  0.67470  0.03565  1.0000
  S   S93       1.0  0.38896  0.76752  0.47797  1.0000
  C   C291      1.0  0.36165  0.73614  0.34812  1.0000
  C   C292      1.0  0.39917  0.68331  0.38439  1.0000
  H   H288      1.0  0.64467  0.81076  0.32986  1.0000
  H   H289      1.0  0.66047  0.89313  0.33245  1.0000
  Fe  Fe45      1.0  0.62885  0.78582  0.50503  1.0000
  C   C293      1.0  0.43173  0.74673  0.31303  1.0000
  H   H290      1.0  0.39281  0.68580  0.32681  1.0000
  H   H291      1.0  0.35495  0.73937  0.09232  1.0000
  C   C294      1.0  0.66824  0.82898  0.33657  1.0000
  C   C295      1.0  0.65529  0.81557  0.03023  1.0000
  S   S94       1.0  0.40540  0.71510  0.51104  1.0000
  C   C296      1.0  0.51766  0.74370  0.49696  1.0000
  N   N24       1.0  0.34793  0.73336  0.03491  1.0000
  H   H292      1.0  0.58451  0.81380  0.48679  1.0000
  N   N25       1.0  0.42556  0.73042  0.34834  1.0000
  H   H293      1.0  0.45637  0.77203  0.37705  1.0000
  H   H294      1.0  0.44633  0.74552  0.43712  1.0000
  C   C297      1.0  0.40523  0.69892  0.35075  1.0000
  C   C298      1.0  0.44039  0.74703  0.37884  1.0000
  S   S95       1.0  0.57679  0.75195  0.49871  1.0000
  S   S96       1.0  0.36505  0.68027  0.10789  1.0000
  C   C299      1.0  0.61672  0.83119  0.01963  1.0000
  C   C300      1.0  0.49561  0.75374  0.49607  1.0000
  S   S97       1.0  0.35484  0.72707  0.27467  1.0000
  H   H295      1.0  0.39344  0.77161  0.02460  1.0000
  C   C301      1.0  0.41406  0.70007  0.41560  1.0000
  H   H296      1.0  0.37622  0.76062  0.34123  1.0000
  Fe  Fe46      1.0  0.42842  0.76713  0.50893  1.0000
  H   H297      1.0  0.45650  0.75587  0.30503  1.0000
  H   H298      1.0  0.37013  0.74333  0.40580  1.0000
  C   C302      1.0  0.53772  0.80701  0.48802  1.0000
  H   H299      1.0  0.42696  0.76633  0.31452  1.0000
  H   H300      1.0  0.63487  0.82882  0.07281  1.0000
  C   C303      1.0  0.43486  0.73215  0.41292  1.0000
  H   H301      1.0  0.39831  0.68327  0.04315  1.0000
  C   C304      1.0  0.35207  0.66955  0.06269  1.0000
  H   H302      1.0  0.41625  0.73115  0.29114  1.0000
  C   C305      1.0  0.63521  0.82507  0.04382  1.0000
  H   H303      1.0  0.67056  0.81183  0.04860  1.0000
  H   H304      1.0  0.39255  0.73942  0.04993  1.0000
  C   C306      1.0  0.54984  0.76531  0.49418  1.0000
  C   C307      1.0  0.55981  0.79699  0.48937  1.0000
  Fe  Fe47      1.0  0.36446  0.71545  0.48401  1.0000
  C   C308      1.0  0.34700  0.71430  0.32038  1.0000
  H   H305      1.0  0.50980  0.71914  0.50059  1.0000
  H   H306      1.0  0.40886  0.68821  0.44188  1.0000
  C   C309      1.0  0.38131  0.74583  0.02751  1.0000
  C   C310      1.0  0.50560  0.78548  0.49183  1.0000
  S   S98       1.0  0.47880  0.79917  0.49222  1.0000
  C   C311      1.0  0.35815  0.72641  0.38478  1.0000
  H   H307      1.0  0.54559  0.83158  0.48450  1.0000
  H   H308      1.0  0.66190  0.82029  0.39465  1.0000
  H   H309      1.0  0.67325  0.89080  0.39635  1.0000
  H   H310      1.0  0.47101  0.73692  0.49902  1.0000
  S   S99       1.0  0.66571  0.78271  0.47278  1.0000
  H   H311      1.0  0.60155  0.83905  0.03038  1.0000
  H   H312      1.0  0.38210  0.65858  0.38653  1.0000
  S   S100      1.0  0.65239  0.83807  0.50101  1.0000
  H   H313      1.0  0.66689  0.90782  0.02581  1.0000
  S   S101      1.0  0.67599  0.84034  0.26303  1.0000
  Fe  Fe48      1.0  0.38486  0.71853  0.56368  1.0000
  S   S102      1.0  0.41080  0.77078  0.56364  1.0000
  H   H314      1.0  0.53288  0.73847  0.79663  1.0000
  C   C312      1.0  0.38625  0.73335  0.70232  1.0000
  Fe  Fe49      1.0  0.37788  0.68724  0.82018  1.0000
  S   S103      1.0  0.40578  0.66295  0.81757  1.0000
  H   H315      1.0  0.35546  0.76157  0.62061  1.0000
  H   H316      1.0  0.57540  0.81377  0.95510  1.0000
  S   S104      1.0  0.38449  0.64023  0.90199  1.0000
  C   C313      1.0  0.48338  0.77863  0.78778  1.0000
  Fe  Fe50      1.0  0.42272  0.68256  0.87325  1.0000
  S   S105      1.0  0.47433  0.70236  0.88590  1.0000
  S   S106      1.0  0.38495  0.68830  0.61035  1.0000
  S   S107      1.0  0.39694  0.70906  0.87468  1.0000
  C   C314      1.0  0.50029  0.74303  0.88421  1.0000
  C   C315      1.0  0.48931  0.76410  0.88196  1.0000
  H   H317      1.0  0.54133  0.73825  0.88622  1.0000
  H   H318      1.0  0.46440  0.75558  0.88197  1.0000
  H   H319      1.0  0.45535  0.73241  0.59122  1.0000
  S   S108      1.0  0.37958  0.72030  0.77563  1.0000
  H   H320      1.0  0.63936  0.81629  0.94027  1.0000
  H   H321      1.0  0.37800  0.65416  0.67668  1.0000
  C   C316      1.0  0.59897  0.83487  0.95801  1.0000
  H   H322      1.0  0.59621  0.85440  0.96790  1.0000
  C   C317      1.0  0.51918  0.74996  0.79366  1.0000
  H   H323      1.0  0.57637  0.82339  0.80415  1.0000
  C   C318      1.0  0.38184  0.71148  0.72989  1.0000
  H   H324      1.0  0.58683  0.82400  0.56240  1.0000
  C   C319      1.0  0.48643  0.73170  0.79351  1.0000
  C   C320      1.0  0.37919  0.68305  0.72052  1.0000
  S   S109      1.0  0.65037  0.78516  0.55912  1.0000
  S   S110      1.0  0.65961  0.90725  0.88892  1.0000
  S   S111      1.0  0.63686  0.88803  0.80437  1.0000
  Fe  Fe51      1.0  0.61980  0.86714  0.85990  1.0000
  S   S112      1.0  0.56905  0.84832  0.87494  1.0000
  S   S113      1.0  0.64297  0.83831  0.86044  1.0000
  C   C321      1.0  0.54306  0.80775  0.87914  1.0000
  C   C322      1.0  0.55405  0.78669  0.88155  1.0000
  C   C323      1.0  0.53273  0.75447  0.88437  1.0000
  C   C324      1.0  0.51066  0.79637  0.87980  1.0000
  H   H325      1.0  0.57890  0.79510  0.88135  1.0000
  H   H326      1.0  0.50198  0.81253  0.87811  1.0000
  Fe  Fe52      1.0  0.66246  0.86132  0.80628  1.0000
  C   C325      1.0  0.38048  0.67638  0.68377  1.0000
  C   C326      1.0  0.49484  0.77897  0.58404  1.0000
  H   H327      1.0  0.46947  0.78998  0.78595  1.0000
  C   C327      1.0  0.48071  0.74671  0.58888  1.0000
  C   C328      1.0  0.46847  0.74618  0.79049  1.0000
  C   C329      1.0  0.52748  0.79698  0.58065  1.0000
  C   C330      1.0  0.65986  0.82644  0.65269  1.0000
  H   H328      1.0  0.53815  0.82197  0.57629  1.0000
  N   N26       1.0  0.53365  0.78182  0.79133  1.0000
  C   C331      1.0  0.65647  0.81204  0.99279  1.0000
  C   C332      1.0  0.53190  0.75155  0.58639  1.0000
  C   C333      1.0  0.66126  0.83924  0.71672  1.0000
  N   N27       1.0  0.54553  0.78318  0.58159  1.0000
  H   H329      1.0  0.47504  0.70652  0.79677  1.0000
  H   H330      1.0  0.52766  0.82149  0.78686  1.0000
  H   H331      1.0  0.48849  0.70773  0.59322  1.0000
  N   N28       1.0  0.61851  0.82830  0.98289  1.0000
  C   C334      1.0  0.38451  0.69806  0.65619  1.0000
  C   C335      1.0  0.51621  0.79622  0.78821  1.0000
  C   C336      1.0  0.38780  0.72676  0.66558  1.0000
  C   C337      1.0  0.49931  0.73285  0.59006  1.0000
  H   H332      1.0  0.38463  0.73590  0.00218  1.0000
  H   H333      1.0  0.39156  0.74385  0.64460  1.0000
  H   H334      1.0  0.60971  0.84210  0.93059  1.0000
  H   H335      1.0  0.57662  0.80502  0.76222  1.0000
  C   C338      1.0  0.57978  0.80247  0.57893  1.0000
  H   H336      1.0  0.58976  0.78968  0.56510  1.0000
  C   C339      1.0  0.36517  0.67028  0.99871  1.0000
  H   H337      1.0  0.57892  0.78879  0.80579  1.0000
  H   H338      1.0  0.65473  0.80931  0.63203  1.0000
  H   H339      1.0  0.48057  0.78993  0.58201  1.0000
  C   C340      1.0  0.56802  0.80062  0.79072  1.0000
  H   H340      1.0  0.44304  0.73232  0.79074  1.0000
  C   C341      1.0  0.63770  0.81840  0.96938  1.0000
  H   H341      1.0  0.59045  0.80917  0.60650  1.0000
  H   H342      1.0  0.38851  0.75546  0.70949  1.0000
  H   H343      1.0  0.54616  0.74055  0.58648  1.0000
  Fe  Fe53      1.0  0.36483  0.62301  0.84625  1.0000
  H   H344      1.0  0.37570  0.66601  0.74152  1.0000
  H   H345      1.0  0.64431  0.79277  0.69690  1.0000
  H   H346      1.0  0.38254  0.67551  0.97792  1.0000
  Fe  Fe54      1.0  0.35707  0.66499  0.89855  1.0000
  C   C342      1.0  0.65403  0.81713  0.68948  1.0000
  S   S114      1.0  0.34967  0.79781  0.54474  1.0000
  S   S115      1.0  0.34736  0.57181  0.83677  1.0000
  S   S116      1.0  0.65631  0.82707  0.76269  1.0000
  H   H347      1.0  0.67531  0.89918  0.96183  1.0000
  Fe  Fe55      1.0  0.36877  0.76592  0.53289  1.0000
  C   C343      1.0  0.67395  0.87068  0.70701  1.0000
  C   C344      1.0  0.67316  0.85799  0.64300  1.0000
  H   H348      1.0  0.67269  0.80559  0.98176  1.0000
  Fe  Fe56      1.0  0.86088  0.22047  0.47802  1.0000
  S   S117      1.0  0.88632  0.27246  0.47192  1.0000
  S   S118      1.0  0.83179  0.18760  0.43316  1.0000
  H   H349      1.0  0.74055  0.43002  0.38499  1.0000
  H   H350      1.0  0.79475  0.09783  0.14080  1.0000
  H   H351      1.0  0.75924  0.32086  0.07942  1.0000
  Fe  Fe57      1.0  0.83322  0.17795  0.14406  1.0000
  S   S119      1.0  0.78110  0.15154  0.13704  1.0000
  S   S120      1.0  0.86701  0.18158  0.10071  1.0000
  Fe  Fe58      1.0  0.82901  0.19599  0.22209  1.0000
  S   S121      1.0  0.77640  0.17011  0.22103  1.0000
  S   S122      1.0  0.85768  0.22885  0.26721  1.0000
  Fe  Fe59      1.0  0.78081  0.13250  0.19303  1.0000
  S   S123      1.0  0.74669  0.08097  0.20085  1.0000
  Fe  Fe60      1.0  0.78188  0.19163  0.16533  1.0000
  S   S124      1.0  0.75066  0.21049  0.14667  1.0000
  S   S125      1.0  0.83323  0.15660  0.19867  1.0000
  S   S126      1.0  0.83420  0.21984  0.16783  1.0000
  C   C345      1.0  0.73110  0.44515  0.28340  1.0000
  S   S127      1.0  0.72176  0.36145  0.43067  1.0000
  Fe  Fe61      1.0  0.76300  0.37220  0.17277  1.0000
  S   S128      1.0  0.71058  0.34318  0.17066  1.0000
  S   S129      1.0  0.79645  0.35432  0.16319  1.0000
  Fe  Fe62      1.0  0.76211  0.43175  0.19053  1.0000
  S   S130      1.0  0.70963  0.40725  0.18974  1.0000
  S   S131      1.0  0.79401  0.48252  0.20501  1.0000
  Fe  Fe63      1.0  0.71185  0.36897  0.22083  1.0000
  Fe  Fe64      1.0  0.71314  0.38392  0.13968  1.0000
  S   S132      1.0  0.76425  0.39507  0.22550  1.0000
  S   S133      1.0  0.76571  0.41133  0.13786  1.0000
  C   C346      1.0  0.74913  0.49982  0.19549  1.0000
  Fe  Fe65      1.0  0.68782  0.33336  0.47566  1.0000
  C   C347      1.0  0.81718  0.22672  0.06257  1.0000
  H   H352      1.0  0.74079  0.39887  0.06002  1.0000
  C   C348      1.0  0.70914  0.35374  0.38507  1.0000
  C   C349      1.0  0.73146  0.36660  0.35719  1.0000
  C   C350      1.0  0.72199  0.36304  0.32049  1.0000
  C   C351      1.0  0.75855  0.04108  0.11578  1.0000
  H   H353      1.0  0.75614  0.37993  0.36402  1.0000
  H   H354      1.0  0.73933  0.37354  0.29927  1.0000
  C   C352      1.0  0.94761  0.25722  0.40761  1.0000
  H   H355      1.0  0.82973  0.09586  0.14452  1.0000
  H   H356      1.0  0.79575  0.23637  0.43488  1.0000
  C   C353      1.0  0.76014  0.05437  0.20736  1.0000
  C   C354      1.0  0.79157  0.06439  0.21541  1.0000
  C   C355      1.0  0.80171  0.04253  0.21879  1.0000
  H   H357      1.0  0.73314  0.47600  0.18776  1.0000
  H   H358      1.0  0.94734  0.25885  0.33497  1.0000
  H   H359      1.0  0.80803  0.08893  0.21914  1.0000
  H   H360      1.0  0.82605  0.05038  0.22501  1.0000
  C   C356      1.0  0.76373  0.25059  0.15046  1.0000
  C   C357      1.0  0.74162  0.26051  0.15080  1.0000
  C   C358      1.0  0.75128  0.29225  0.15473  1.0000
  C   C359      1.0  0.78321  0.31436  0.15736  1.0000
  C   C360      1.0  0.80533  0.30450  0.15616  1.0000
  C   C361      1.0  0.79563  0.27268  0.15323  1.0000
  H   H361      1.0  0.71689  0.24348  0.14859  1.0000
  H   H362      1.0  0.73402  0.29952  0.15575  1.0000
  H   H363      1.0  0.83007  0.32152  0.15815  1.0000
  H   H364      1.0  0.81288  0.26537  0.15278  1.0000
  C   C362      1.0  0.85395  0.17147  0.05541  1.0000
  C   C363      1.0  0.82258  0.16015  0.04577  1.0000
  H   H365      1.0  0.00485  0.22110  0.49014  1.0000
  H   H366      1.0  0.80560  0.15626  0.06636  1.0000
  H   H367      1.0  0.90003  0.18502  0.03548  1.0000
  C   C364      1.0  0.99179  0.25664  0.48851  1.0000
  H   H368      1.0  0.86026  0.24321  0.09304  1.0000
  C   C365      1.0  0.74039  0.00871  0.11138  1.0000
  C   C366      1.0  0.75228  0.33891  0.07643  1.0000
  H   H369      1.0  0.74724  0.05503  0.11407  1.0000
  N   N29       1.0  0.72535  0.32817  0.05163  1.0000
  C   C367      1.0  0.84937  0.23842  0.06628  1.0000
  C   C368      1.0  0.83665  0.20038  0.38730  1.0000
  C   C369      1.0  0.81928  0.17885  0.36006  1.0000
  C   C370      1.0  0.82468  0.18757  0.32303  1.0000
  C   C371      1.0  0.84754  0.21794  0.31312  1.0000
  C   C372      1.0  0.86414  0.23977  0.34036  1.0000
  C   C373      1.0  0.85876  0.23103  0.37734  1.0000
  H   H370      1.0  0.80211  0.15510  0.36761  1.0000
  H   H371      1.0  0.81177  0.17056  0.30223  1.0000
  H   H372      1.0  0.88183  0.26331  0.33281  1.0000
  H   H373      1.0  0.87230  0.24780  0.39801  1.0000
  N   N30       1.0  0.77308  0.25719  0.24386  1.0000
  C   C374      1.0  0.80046  0.25680  0.24855  1.0000
  C   C375      1.0  0.77329  0.28491  0.24277  1.0000
  C   C376      1.0  0.82916  0.28471  0.25088  1.0000
  C   C377      1.0  0.80157  0.31327  0.24506  1.0000
  C   C378      1.0  0.82967  0.31310  0.24886  1.0000
  C   C379      1.0  0.74324  0.22768  0.24155  1.0000
  H   H374      1.0  0.80035  0.23488  0.25021  1.0000
  H   H375      1.0  0.75164  0.28532  0.23904  1.0000
  H   H376      1.0  0.85082  0.28418  0.25398  1.0000
  H   H377      1.0  0.74696  0.34392  0.10392  1.0000
  H   H378      1.0  0.85179  0.33496  0.24991  1.0000
  C   C380      1.0  0.86742  0.24288  0.03530  1.0000
  H   H379      1.0  0.72556  0.23058  0.22550  1.0000
  H   H380      1.0  0.73403  0.21879  0.26927  1.0000
  N   N31       1.0  0.77753  0.26283  0.45838  1.0000
  C   C381      1.0  0.74561  0.24785  0.46185  1.0000
  C   C382      1.0  0.79415  0.29414  0.45048  1.0000
  C   C383      1.0  0.72956  0.26435  0.45799  1.0000
  C   C384      1.0  0.77881  0.31133  0.44627  1.0000
  C   C385      1.0  0.74631  0.29629  0.45009  1.0000
  C   C386      1.0  0.90722  0.20265  0.39751  1.0000
  H   H381      1.0  0.97022  0.25798  0.41292  1.0000
  C   C387      1.0  0.69591  0.31756  0.06513  1.0000
  H   H382      1.0  0.68832  0.40395  0.35575  1.0000
  H   H383      1.0  0.79205  0.33628  0.44090  1.0000
  H   H384      1.0  0.69223  0.31769  0.09414  1.0000
  C   C388      1.0  0.89076  0.18250  0.33697  1.0000
  H   H385      1.0  0.90451  0.19893  0.42675  1.0000
  C   C389      1.0  0.88828  0.17781  0.37463  1.0000
  N   N32       1.0  0.92787  0.23145  0.38325  1.0000
  C   C390      1.0  0.93095  0.23607  0.34632  1.0000
  S   S134      1.0  0.97641  0.30311  0.48760  1.0000
  H   H386      1.0  0.71456  0.01455  0.19697  1.0000
  C   C391      1.0  0.80859  0.08887  0.12724  1.0000
  C   C392      1.0  0.76450  0.45491  0.33598  1.0000
  H   H387      1.0  0.78131  0.47589  0.28294  1.0000
  H   H388      1.0  0.77255  0.36102  0.06617  1.0000
  N   N33       1.0  0.78992  0.05485  0.12345  1.0000
  H   H389      1.0  0.95252  0.28005  0.39583  1.0000
  H   H390      1.0  0.87093  0.15545  0.38615  1.0000
  H   H391      1.0  0.93585  0.25462  0.43406  1.0000
  C   C393      1.0  0.80405  0.03718  0.12647  1.0000
  H   H392      1.0  0.81790  0.25979  0.47323  1.0000
  C   C394      1.0  0.79392  0.24507  0.46186  1.0000
  S   S135      1.0  0.90174  0.21946  0.50425  1.0000
  Fe  Fe66      1.0  0.92554  0.27154  0.50266  1.0000
  H   H393      1.0  0.74623  0.20984  0.22713  1.0000
  H   H394      1.0  0.80172  0.33523  0.24266  1.0000
  H   H395      1.0  0.78156  0.22489  0.48096  1.0000
  H   H396      1.0  0.73420  0.30947  0.44756  1.0000
  H   H397      1.0  0.81617  0.10040  0.10007  1.0000
  C   C395      1.0  0.70858  0.42007  0.33977  1.0000
  H   H398      1.0  0.81953  0.30615  0.44852  1.0000
  C   C396      1.0  0.76100  0.46024  0.29922  1.0000
  C   C397      1.0  0.72356  0.39342  0.03870  1.0000
  H   H399      1.0  0.73242  0.22316  0.46867  1.0000
  H   H400      1.0  0.82882  0.04796  0.13303  1.0000
  C   C398      1.0  0.73814  0.43485  0.35651  1.0000
  C   C399      1.0  0.91231  0.21175  0.32264  1.0000
  H   H401      1.0  0.91372  0.21584  0.29338  1.0000
  H   H402      1.0  0.96696  0.24008  0.48902  1.0000
  N   N34       1.0  0.70544  0.42497  0.30353  1.0000
  C   C400      1.0  0.73892  0.02242  0.20314  1.0000
  C   C401      1.0  0.87572  0.17640  0.02819  1.0000
  H   H403      1.0  0.78761  0.46621  0.34847  1.0000
  C   C402      1.0  0.69232  0.38294  0.04764  1.0000
  H   H404      1.0  0.87539  0.16377  0.31892  1.0000
  C   C403      1.0  0.69010  0.34647  0.31151  1.0000
  H   H405      1.0  0.80280  0.22271  0.08648  1.0000
  H   H406      1.0  0.70439  0.25259  0.46214  1.0000
  C   C404      1.0  0.00259  0.28868  0.48729  1.0000
  C   C405      1.0  0.67729  0.33652  0.37611  1.0000
  S   S136      1.0  0.67719  0.34360  0.26605  1.0000
  H   H407      1.0  0.89229  0.25129  0.03863  1.0000
  S   S137      1.0  0.67945  0.37522  0.09313  1.0000
  H   H408      1.0  0.72865  0.44960  0.25486  1.0000
  C   C406      1.0  0.78061  0.01064  0.21362  1.0000
  C   C407      1.0  0.80347  0.21969  0.02799  1.0000
  H   H409      1.0  0.77839  0.21013  0.02489  1.0000
  Fe  Fe67      1.0  0.88197  0.22325  0.55740  1.0000
  S   S138      1.0  0.90829  0.27559  0.55731  1.0000
  S   S139      1.0  0.88684  0.19459  0.60299  1.0000
  C   C408      1.0  0.73567  0.36308  0.66349  1.0000
  H   H410      1.0  0.83799  0.06681  0.90625  1.0000
  Fe  Fe68      1.0  0.68341  0.28609  0.53228  1.0000
  H   H411      1.0  0.72152  0.33960  0.75064  1.0000
  H   H412      1.0  0.00372  0.31299  0.87248  1.0000
  H   H413      1.0  0.85952  0.22559  0.94675  1.0000
  H   H414      1.0  0.88319  0.26599  0.95970  1.0000
  N   N35       1.0  0.73127  0.34465  0.69360  1.0000
  H   H415      1.0  0.73531  0.36566  0.60476  1.0000
  S   S140      1.0  0.72032  0.38640  0.92890  1.0000
  C   C409      1.0  0.79285  0.01604  0.81204  1.0000
  C   C410      1.0  0.76137  0.49268  0.81802  1.0000
  C   C411      1.0  0.72532  0.32028  0.62447  1.0000
  S   S141      1.0  0.69892  0.47677  0.81840  1.0000
  S   S142      1.0  0.70673  0.40072  0.82958  1.0000
  Fe  Fe69      1.0  0.87529  0.18886  0.81249  1.0000
  S   S143      1.0  0.90330  0.16509  0.80604  1.0000
  S   S144      1.0  0.86831  0.21685  0.76780  1.0000
  Fe  Fe70      1.0  0.85711  0.16471  0.89088  1.0000
  S   S145      1.0  0.88420  0.13952  0.89017  1.0000
  S   S146      1.0  0.82340  0.15807  0.93590  1.0000
  Fe  Fe71      1.0  0.92161  0.18306  0.86203  1.0000
  S   S147      1.0  0.97339  0.20192  0.87286  1.0000
  Fe  Fe72      1.0  0.86322  0.12426  0.83448  1.0000
  S   S148      1.0  0.84445  0.07480  0.81538  1.0000
  S   S149      1.0  0.89594  0.20959  0.86705  1.0000
  S   S150      1.0  0.83381  0.14675  0.83677  1.0000
  H   H416      1.0  0.81135  0.21837  0.97078  1.0000
  H   H417      1.0  0.72821  0.45893  0.88528  1.0000
  H   H418      1.0  0.89280  0.23695  0.97550  1.0000
  C   C412      1.0  0.80375  0.04796  0.81647  1.0000
  C   C413      1.0  0.78213  0.05784  0.82191  1.0000
  C   C414      1.0  0.74991  0.03597  0.82321  1.0000
  H   H419      1.0  0.75321  0.46803  0.81646  1.0000
  C   C415      1.0  0.73567  0.35793  0.73000  1.0000
  H   H420      1.0  0.79008  0.08224  0.82541  1.0000
  H   H421      1.0  0.73333  0.04380  0.82762  1.0000
  H   H422      1.0  0.98687  0.20841  0.79220  1.0000
  C   C416      1.0  0.98980  0.26415  0.87357  1.0000
  S   S151      1.0  0.84806  0.30462  0.53331  1.0000
  H   H423      1.0  0.96501  0.25619  0.87240  1.0000
  H   H424      1.0  0.72758  0.37520  0.73078  1.0000
  C   C417      1.0  0.70981  0.38769  0.97413  1.0000
  H   H425      1.0  0.76079  0.36952  0.73796  1.0000
  C   C418      1.0  0.79683  0.31183  0.53765  1.0000
  C   C419      1.0  0.76211  0.04837  0.91532  1.0000
  H   H426      1.0  0.75636  0.31754  0.53717  1.0000
  H   H427      1.0  0.72081  0.29977  0.71372  1.0000
  C   C420      1.0  0.72106  0.30171  0.65526  1.0000
  S   S152      1.0  0.83832  0.21900  0.53141  1.0000
  N   N36       1.0  0.85376  0.23570  0.00152  1.0000
  C   C421      1.0  0.73974  0.50308  0.81823  1.0000
  H   H428      1.0  0.81298  0.33612  0.53110  1.0000
  C   C422      1.0  0.83524  0.16086  0.98176  1.0000
  H   H429      1.0  0.75323  0.33733  0.00414  1.0000
  C   C423      1.0  0.80806  0.29095  0.54149  1.0000
  H   H430      1.0  0.88350  0.17562  0.97050  1.0000
  C   C424      1.0  0.88471  0.20370  0.64858  1.0000
  C   C425      1.0  0.89227  0.18883  0.67647  1.0000
  C   C426      1.0  0.88818  0.19339  0.71316  1.0000
  C   C427      1.0  0.87659  0.21297  0.72223  1.0000
  C   C428      1.0  0.86987  0.22853  0.69433  1.0000
  C   C429      1.0  0.87389  0.22392  0.65757  1.0000
  H   H431      1.0  0.90063  0.17315  0.66965  1.0000
  H   H432      1.0  0.89335  0.18122  0.73428  1.0000
  H   H433      1.0  0.86092  0.24374  0.70114  1.0000
  H   H434      1.0  0.86797  0.23547  0.63623  1.0000
  H   H435      1.0  0.80942  0.00823  0.80754  1.0000
  H   H436      1.0  0.79556  0.24343  0.55361  1.0000
  H   H437      1.0  0.72276  0.31060  0.59758  1.0000
  C   C430      1.0  0.74362  0.26994  0.54910  1.0000
  C   C431      1.0  0.72425  0.31438  0.68987  1.0000
  H   H438      1.0  0.96404  0.26531  0.55938  1.0000
  C   C432      1.0  0.74722  0.46988  0.90596  1.0000
  S   S153      1.0  0.71148  0.33822  0.52981  1.0000
  H   H439      1.0  0.76610  0.46542  0.89736  1.0000
  C   C433      1.0  0.82225  0.22447  0.99753  1.0000
  C   C434      1.0  0.86641  0.17104  0.99141  1.0000
  C   C435      1.0  0.73226  0.39574  0.00198  1.0000
  C   C436      1.0  0.70472  0.31916  0.99056  1.0000
  C   C437      1.0  0.81266  0.05265  0.90847  1.0000
  H   H440      1.0  0.81183  0.00957  0.89979  1.0000
  C   C438      1.0  0.78708  0.25963  0.55010  1.0000
  C   C439      1.0  0.67889  0.37855  0.98302  1.0000
  H   H441      1.0  0.73879  0.22492  0.56059  1.0000
  H   H442      1.0  0.74794  0.05922  0.91878  1.0000
  C   C440      1.0  0.76471  0.30133  0.54110  1.0000
  H   H443      1.0  0.71524  0.27763  0.65215  1.0000
  N   N37       1.0  0.75831  0.50336  0.90832  1.0000
  C   C441      1.0  0.97321  0.25339  0.57738  1.0000
  N   N38       1.0  0.82707  0.10656  0.71225  1.0000
  C   C442      1.0  0.82604  0.11654  0.67748  1.0000
  C   C443      1.0  0.81938  0.11834  0.74112  1.0000
  C   C444      1.0  0.81675  0.13864  0.67098  1.0000
  C   C445      1.0  0.81023  0.14064  0.73564  1.0000
  C   C446      1.0  0.80887  0.15077  0.70031  1.0000
  C   C447      1.0  0.83726  0.08378  0.71924  1.0000
  H   H444      1.0  0.83299  0.10798  0.65455  1.0000
  H   H445      1.0  0.82080  0.11079  0.76862  1.0000
  H   H446      1.0  0.81698  0.14730  0.64351  1.0000
  H   H447      1.0  0.80525  0.15083  0.75869  1.0000
  H   H448      1.0  0.80291  0.16888  0.69582  1.0000
  H   H449      1.0  0.85960  0.09482  0.73503  1.0000
  H   H450      1.0  0.81933  0.06373  0.73559  1.0000
  H   H451      1.0  0.84094  0.07445  0.69371  1.0000
  C   C448      1.0  0.79768  0.02022  0.90461  1.0000
  H   H452      1.0  0.67632  0.40150  0.66365  1.0000
  C   C449      1.0  0.00003  0.24246  0.87492  1.0000
  C   C450      1.0  0.73263  0.35116  0.62851  1.0000
  C   C451      1.0  0.79472  0.06676  0.91391  1.0000
  H   H453      1.0  0.98792  0.25585  0.78980  1.0000
  H   H454      1.0  0.80604  0.09196  0.91640  1.0000
  H   H455      1.0  0.74082  0.38695  0.66634  1.0000
  C   C452      1.0  0.75497  0.24921  0.55412  1.0000
  H   H456      1.0  0.73804  0.45810  0.93270  1.0000
  H   H457      1.0  0.70865  0.32116  0.96136  1.0000
  S   S154      1.0  0.70296  0.25571  0.55193  1.0000
  C   C453      1.0  0.74787  0.01602  0.91116  1.0000
  H   H458      1.0  0.96368  0.22948  0.56657  1.0000
  H   H459      1.0  0.96395  0.25146  0.60529  1.0000
  N   N39       1.0  0.00763  0.27074  0.57782  1.0000
  H   H460      1.0  0.78911  0.14690  0.00175  1.0000
  Fe  Fe73      1.0  0.68596  0.38222  0.88487  1.0000
  Fe  Fe74      1.0  0.67926  0.42546  0.83138  1.0000
  C   C454      1.0  0.87328  0.24147  0.96931  1.0000
  H   H461      1.0  0.75625  0.40299  0.99517  1.0000
  Fe  Fe75      1.0  0.86635  0.27132  0.52689  1.0000
  C   C455      1.0  0.81328  0.15485  0.00908  1.0000
  H   H462      1.0  0.71208  0.49657  0.90505  1.0000
  C   C456      1.0  0.72988  0.32858  0.01490  1.0000
  Fe  Fe76      1.0  0.86662  0.71503  0.48772  1.0000
  S   S155      1.0  0.89151  0.76673  0.47863  1.0000
  S   S156      1.0  0.83805  0.68002  0.44456  1.0000
  C   C457      1.0  0.76870  0.68097  0.45697  1.0000
  C   C458      1.0  0.71963  0.79839  0.23785  1.0000
  H   H463      1.0  0.78181  0.67727  0.47956  1.0000
  Fe  Fe77      1.0  0.83224  0.68240  0.15247  1.0000
  S   S157      1.0  0.78012  0.65600  0.14616  1.0000
  S   S158      1.0  0.86679  0.69190  0.10736  1.0000
  Fe  Fe78      1.0  0.82863  0.69320  0.23328  1.0000
  S   S159      1.0  0.77584  0.66703  0.23341  1.0000
  S   S160      1.0  0.86076  0.72268  0.27861  1.0000
  Fe  Fe79      1.0  0.78033  0.63233  0.19886  1.0000
  S   S161      1.0  0.74659  0.58013  0.20015  1.0000
  Fe  Fe80      1.0  0.78033  0.69290  0.18086  1.0000
  S   S162      1.0  0.74859  0.71168  0.16370  1.0000
  S   S163      1.0  0.83286  0.65643  0.20297  1.0000
  S   S164      1.0  0.83269  0.72139  0.18280  1.0000
  H   H464      1.0  0.76925  0.70016  0.08950  1.0000
  S   S165      1.0  0.72103  0.86666  0.42729  1.0000
  Fe  Fe81      1.0  0.76364  0.87564  0.17360  1.0000
  S   S166      1.0  0.71131  0.84849  0.16597  1.0000
  S   S167      1.0  0.79660  0.85640  0.17239  1.0000
  Fe  Fe82      1.0  0.76338  0.93446  0.19744  1.0000
  S   S168      1.0  0.71120  0.91132  0.19272  1.0000
  S   S169      1.0  0.79441  0.98403  0.21628  1.0000
  Fe  Fe83      1.0  0.71033  0.86977  0.21911  1.0000
  Fe  Fe84      1.0  0.71758  0.89284  0.14012  1.0000
  S   S170      1.0  0.76215  0.89430  0.22813  1.0000
  S   S171      1.0  0.77020  0.91855  0.14329  1.0000
  H   H465      1.0  0.74242  0.54874  0.12021  1.0000
  C   C459      1.0  0.72173  0.88636  0.03994  1.0000
  H   H466      1.0  0.78019  0.83871  0.25029  1.0000
  H   H467      1.0  0.73430  0.88225  0.06172  1.0000
  C   C460      1.0  0.70827  0.85798  0.38196  1.0000
  C   C461      1.0  0.72883  0.87608  0.35409  1.0000
  C   C462      1.0  0.71919  0.87066  0.31757  1.0000
  C   C463      1.0  0.95440  0.76927  0.40374  1.0000
  H   H468      1.0  0.75230  0.89451  0.36078  1.0000
  H   H469      1.0  0.73516  0.88503  0.29650  1.0000
  C   C464      1.0  0.82555  0.55382  0.13218  1.0000
  C   C465      1.0  0.84733  0.60964  0.13046  1.0000
  H   H470      1.0  0.77622  0.52656  0.12094  1.0000
  C   C466      1.0  0.75981  0.55308  0.20354  1.0000
  C   C467      1.0  0.79061  0.56219  0.21379  1.0000
  C   C468      1.0  0.80053  0.54008  0.21518  1.0000
  H   H471      1.0  0.73269  0.97628  0.20159  1.0000
  C   C469      1.0  0.76159  0.57106  0.10873  1.0000
  H   H472      1.0  0.80673  0.58620  0.22081  1.0000
  H   H473      1.0  0.82441  0.54729  0.22308  1.0000
  C   C470      1.0  0.76119  0.75152  0.16901  1.0000
  C   C471      1.0  0.74230  0.76323  0.15548  1.0000
  C   C472      1.0  0.75266  0.79530  0.15691  1.0000
  C   C473      1.0  0.78203  0.81585  0.17190  1.0000
  C   C474      1.0  0.80074  0.80410  0.18586  1.0000
  C   C475      1.0  0.79029  0.77200  0.18464  1.0000
  H   H474      1.0  0.71978  0.74747  0.14329  1.0000
  H   H475      1.0  0.73821  0.80417  0.14574  1.0000
  H   H476      1.0  0.82350  0.81989  0.19750  1.0000
  H   H477      1.0  0.80497  0.76320  0.19527  1.0000
  C   C476      1.0  0.85396  0.68052  0.06225  1.0000
  H   H478      1.0  0.69515  0.79391  0.23754  1.0000
  H   H479      1.0  0.97627  0.79244  0.40354  1.0000
  H   H480      1.0  0.80473  0.66024  0.07363  1.0000
  C   C477      1.0  0.81763  0.60494  0.12154  1.0000
  C   C478      1.0  0.83079  0.74150  0.09038  1.0000
  C   C479      1.0  0.84026  0.79893  0.11169  1.0000
  H   H481      1.0  0.72922  0.70315  0.46366  1.0000
  C   C480      1.0  0.97127  0.69637  0.43654  1.0000
  C   C481      1.0  0.99028  0.74910  0.41484  1.0000
  C   C482      1.0  0.71726  0.79966  0.30431  1.0000
  H   H482      1.0  0.77560  0.67495  0.43098  1.0000
  C   C483      1.0  0.84370  0.69220  0.39849  1.0000
  C   C484      1.0  0.82535  0.67106  0.37138  1.0000
  C   C485      1.0  0.82990  0.68019  0.33441  1.0000
  C   C486      1.0  0.85305  0.71046  0.32448  1.0000
  C   C487      1.0  0.87116  0.73162  0.35165  1.0000
  C   C488      1.0  0.86637  0.72261  0.38851  1.0000
  H   H483      1.0  0.80774  0.64747  0.37890  1.0000
  H   H484      1.0  0.81587  0.66372  0.31358  1.0000
  H   H485      1.0  0.88894  0.75512  0.34402  1.0000
  H   H486      1.0  0.88041  0.73916  0.40903  1.0000
  N   N40       1.0  0.77642  0.71365  0.45578  1.0000
  C   C489      1.0  0.75342  0.72117  0.45930  1.0000
  C   C490      1.0  0.80700  0.73657  0.45135  1.0000
  C   C491      1.0  0.76084  0.75238  0.45817  1.0000
  C   C492      1.0  0.81532  0.76802  0.45065  1.0000
  C   C493      1.0  0.79203  0.77590  0.45392  1.0000
  H   H487      1.0  0.82518  0.73056  0.44880  1.0000
  C   C494      1.0  0.75454  0.99048  0.11478  1.0000
  H   H488      1.0  0.83978  0.78618  0.44871  1.0000
  H   H489      1.0  0.79832  0.80024  0.45459  1.0000
  H   H490      1.0  0.77607  0.72062  0.04610  1.0000
  N   N41       1.0  0.73468  0.81021  0.27319  1.0000
  C   C495      1.0  0.76627  0.83077  0.27498  1.0000
  H   H491      1.0  0.93847  0.77109  0.42332  1.0000
  H   H492      1.0  0.86708  0.63321  0.13319  1.0000
  C   C496      1.0  0.78657  0.00476  0.12242  1.0000
  H   H493      1.0  0.74060  0.96527  0.11209  1.0000
  H   H494      1.0  0.77417  0.84129  0.36661  1.0000
  S   S172      1.0  0.69031  0.89809  0.09329  1.0000
  H   H495      1.0  0.75911  0.57131  0.07867  1.0000
  C   C497      1.0  0.86502  0.79294  0.11391  1.0000
  H   H496      1.0  0.92122  0.66919  0.44491  1.0000
  C   C498      1.0  0.87621  0.68721  0.03499  1.0000
  H   H497      1.0  0.79175  0.78044  0.09786  1.0000
  C   C499      1.0  0.82211  0.66553  0.05300  1.0000
  N   N42       1.0  0.80645  0.74727  0.08907  1.0000
  C   C500      1.0  0.73127  0.81042  0.33837  1.0000
  H   H498      1.0  0.82728  0.71908  0.08233  1.0000
  C   C501      1.0  0.74916  0.00066  0.20584  1.0000
  H   H499      1.0  0.88768  0.81046  0.12442  1.0000
  H   H500      1.0  0.79766  0.99073  0.12621  1.0000
  C   C502      1.0  0.77567  0.72290  0.07607  1.0000
  H   H501      1.0  0.73646  0.95084  0.26058  1.0000
  S   S173      1.0  0.98154  0.79772  0.49110  1.0000
  H   H502      1.0  0.90087  0.69874  0.04200  1.0000
  Fe  Fe85      1.0  0.93141  0.76750  0.50967  1.0000
  C   C503      1.0  0.00737  0.78304  0.49575  1.0000
  C   C504      1.0  0.68882  0.84721  0.30865  1.0000
  C   C505      1.0  0.72709  0.94391  0.28785  1.0000
  H   H503      1.0  0.87402  0.58715  0.14357  1.0000
  H   H504      1.0  0.74269  0.75832  0.46214  1.0000
  H   H505      1.0  0.80591  0.85907  0.30974  1.0000
  C   C506      1.0  0.73904  0.52177  0.19485  1.0000
  H   H506      1.0  0.77064  0.97615  0.31378  1.0000
  C   C507      1.0  0.76328  0.83210  0.34041  1.0000
  H   H507      1.0  0.84342  0.82113  0.12051  1.0000
  N   N43       1.0  0.79244  0.57542  0.11856  1.0000
  C   C508      1.0  0.99617  0.72526  0.42549  1.0000
  H   H508      1.0  0.71719  0.80277  0.36291  1.0000
  H   H509      1.0  0.81486  0.62510  0.11733  1.0000
  C   C509      1.0  0.85122  0.58386  0.13604  1.0000
  C   C510      1.0  0.81099  0.77575  0.09890  1.0000
  C   C511      1.0  0.86038  0.76414  0.10288  1.0000
  C   C512      1.0  0.93577  0.71578  0.42522  1.0000
  H   H510      1.0  0.74329  0.66456  0.46123  1.0000
  C   C513      1.0  0.69991  0.89546  0.04805  1.0000
  H   H511      1.0  0.97567  0.67797  0.44567  1.0000
  C   C514      1.0  0.79617  0.55001  0.12315  1.0000
  H   H512      1.0  0.91202  0.71178  0.42516  1.0000
  C   C515      1.0  0.78099  0.84225  0.30856  1.0000
  N   N44       1.0  0.96040  0.74425  0.41517  1.0000
  H   H513      1.0  0.71961  0.77654  0.23158  1.0000
  H   H514      1.0  0.75683  0.72795  0.08315  1.0000
  H   H515      1.0  0.75834  0.58975  0.12043  1.0000
  Fe  Fe86      1.0  0.69109  0.83509  0.47315  1.0000
  C   C516      1.0  0.68378  0.90074  0.01963  1.0000
  H   H516      1.0  0.82808  0.53352  0.13723  1.0000
  C   C517      1.0  0.99700  0.75270  0.50870  1.0000
  H   H517      1.0  0.94356  0.76452  0.37615  1.0000
  C   C518      1.0  0.94082  0.69150  0.43630  1.0000
  C   C519      1.0  0.67795  0.83428  0.37321  1.0000
  H   H518      1.0  0.87931  0.75896  0.10470  1.0000
  H   H519      1.0  0.69219  0.78348  0.30282  1.0000
  H   H520      1.0  0.73228  0.81580  0.21590  1.0000
  C   C520      1.0  0.73419  0.94859  0.35301  1.0000
  S   S174      1.0  0.90796  0.71556  0.51427  1.0000
  H   H521      1.0  0.74938  0.95955  0.37627  1.0000
  H   H522      1.0  0.68060  0.92997  0.40372  1.0000
  C   C521      1.0  0.74636  0.95808  0.31788  1.0000
  C   C522      1.0  0.69122  0.91605  0.39494  1.0000
  H   H523      1.0  0.70995  0.91930  0.41467  1.0000
  N   N45       1.0  0.70373  0.92542  0.35797  1.0000
  H   H524      1.0  0.71538  0.99774  0.10615  1.0000
  C   C523      1.0  0.77997  0.50895  0.20554  1.0000
  C   C524      1.0  0.69594  0.92063  0.29312  1.0000
  H   H525      1.0  0.71515  0.51459  0.18697  1.0000
  C   C525      1.0  0.68452  0.91173  0.32861  1.0000
  H   H526      1.0  0.68094  0.90893  0.26993  1.0000
  Fe  Fe87      1.0  0.88879  0.72143  0.56671  1.0000
  S   S175      1.0  0.91485  0.77378  0.56365  1.0000
  S   S176      1.0  0.89537  0.69515  0.61363  1.0000
  C   C526      1.0  0.80327  0.80975  0.53480  1.0000
  H   H527      1.0  0.69016  0.90445  0.66287  1.0000
  N   N46       1.0  0.84459  0.61179  0.72307  1.0000
  S   S177      1.0  0.70853  0.75507  0.54269  1.0000
  H   H528      1.0  0.83259  0.61318  0.77809  1.0000
  H   H529      1.0  0.96938  0.80192  0.92359  1.0000
  Fe  Fe88      1.0  0.87219  0.76779  0.53317  1.0000
  H   H530      1.0  0.80531  0.64255  0.76363  1.0000
  H   H531      1.0  0.84475  0.57155  0.74344  1.0000
  C   C527      1.0  0.86148  0.59536  0.73284  1.0000
  C   C528      1.0  0.99153  0.76194  0.85800  1.0000
  C   C529      1.0  0.72657  0.88159  0.00354  1.0000
  H   H532      1.0  0.94817  0.74618  0.94124  1.0000
  C   C530      1.0  0.00097  0.79274  0.58654  1.0000
  S   S178      1.0  0.70668  0.90055  0.83061  1.0000
  Fe  Fe89      1.0  0.87395  0.68630  0.82054  1.0000
  S   S179      1.0  0.90280  0.66325  0.81462  1.0000
  S   S180      1.0  0.86392  0.71158  0.77509  1.0000
  Fe  Fe90      1.0  0.85658  0.66341  0.89943  1.0000
  S   S181      1.0  0.88460  0.63919  0.89930  1.0000
  S   S182      1.0  0.82202  0.65511  0.94402  1.0000
  Fe  Fe91      1.0  0.92129  0.68252  0.87011  1.0000
  S   S183      1.0  0.97272  0.70247  0.88432  1.0000
  Fe  Fe92      1.0  0.86343  0.62252  0.84402  1.0000
  S   S184      1.0  0.84533  0.57263  0.82681  1.0000
  S   S185      1.0  0.89471  0.70825  0.87463  1.0000
  S   S186      1.0  0.83320  0.64408  0.84578  1.0000
  C   C531      1.0  0.83079  0.61923  0.75003  1.0000
  S   S187      1.0  0.69859  0.97736  0.82473  1.0000
  S   S188      1.0  0.84454  0.71562  0.54062  1.0000
  C   C532      1.0  0.80465  0.54638  0.82247  1.0000
  C   C533      1.0  0.78302  0.55676  0.82210  1.0000
  C   C534      1.0  0.75074  0.53521  0.81962  1.0000
  H   H533      1.0  0.75242  0.96949  0.81097  1.0000
  C   C535      1.0  0.98485  0.79424  0.93487  1.0000
  H   H534      1.0  0.79096  0.58130  0.82403  1.0000
  H   H535      1.0  0.73413  0.54341  0.81966  1.0000
  C   C536      1.0  0.77880  0.56669  0.91398  1.0000
  H   H536      1.0  0.71926  0.76776  0.63069  1.0000
  C   C537      1.0  0.86674  0.67926  0.99858  1.0000
  H   H537      1.0  0.96694  0.75397  0.85340  1.0000
  C   C538      1.0  0.82664  0.63545  0.67840  1.0000
  H   H538      1.0  0.85394  0.61421  0.66609  1.0000
  C   C539      1.0  0.70961  0.88583  0.97519  1.0000
  H   H539      1.0  0.72988  0.55285  0.91020  1.0000
  H   H540      1.0  0.99046  0.80679  0.57912  1.0000
  C   C540      1.0  0.74683  0.54502  0.91107  1.0000
  H   H541      1.0  0.74295  0.87386  0.99740  1.0000
  H   H542      1.0  0.76343  0.81649  0.52999  1.0000
  H   H543      1.0  0.00661  0.80994  0.84424  1.0000
  H   H544      1.0  0.87902  0.60811  0.75465  1.0000
  H   H545      1.0  0.82537  0.57312  0.91532  1.0000
  C   C541      1.0  0.84253  0.61949  0.68753  1.0000
  C   C542      1.0  0.83492  0.66470  0.98933  1.0000
  Fe  Fe93      1.0  0.67939  0.92557  0.83332  1.0000
  C   C543      1.0  0.81297  0.64360  0.70587  1.0000
  H   H546      1.0  0.88401  0.68460  0.97766  1.0000
  C   C544      1.0  0.89001  0.70371  0.65828  1.0000
  C   C545      1.0  0.90049  0.69264  0.68746  1.0000
  C   C546      1.0  0.89359  0.69598  0.72344  1.0000
  C   C547      1.0  0.87612  0.71039  0.73053  1.0000
  C   C548      1.0  0.86659  0.72248  0.70134  1.0000
  C   C549      1.0  0.87353  0.71918  0.66524  1.0000
  H   H547      1.0  0.91342  0.68083  0.68223  1.0000
  H   H548      1.0  0.90144  0.68701  0.74558  1.0000
  H   H549      1.0  0.85320  0.73381  0.70665  1.0000
  H   H550      1.0  0.86539  0.72782  0.64285  1.0000
  C   C550      1.0  0.67989  0.88000  0.67022  1.0000
  Fe  Fe94      1.0  0.68954  0.78690  0.52671  1.0000
  H   H551      1.0  0.82624  0.64274  0.65041  1.0000
  H   H552      1.0  0.74441  0.82796  0.74327  1.0000
  S   S189      1.0  0.71365  0.87632  0.93037  1.0000
  C   C551      1.0  0.79170  0.75699  0.54769  1.0000
  H   H553      1.0  0.76501  0.96144  0.88680  1.0000
  H   H554      1.0  0.95765  0.75350  0.60582  1.0000
  H   H555      1.0  0.74026  0.86178  0.60912  1.0000
  H   H556      1.0  0.78689  0.59148  0.91555  1.0000
  C   C552      1.0  0.00072  0.74102  0.87094  1.0000
  H   H557      1.0  0.79947  0.74034  0.55233  1.0000
  C   C553      1.0  0.75956  0.74724  0.54914  1.0000
  Fe  Fe95      1.0  0.68442  0.88011  0.88481  1.0000
  C   C554      1.0  0.81494  0.63538  0.74193  1.0000
  C   C555      1.0  0.74914  0.76857  0.54262  1.0000
  H   H558      1.0  0.87423  0.59333  0.70936  1.0000
  H   H559      1.0  0.73206  0.81100  0.58708  1.0000
  H   H560      1.0  0.78803  0.64650  0.00953  1.0000
  C   C556      1.0  0.80041  0.55638  0.91409  1.0000
  C   C557      1.0  0.78970  0.52444  0.91139  1.0000
  H   H561      1.0  0.98180  0.72129  0.62089  1.0000
  C   C558      1.0  0.81366  0.78832  0.54049  1.0000
  C   C559      1.0  0.99612  0.74465  0.60961  1.0000
  C   C560      1.0  0.77111  0.79987  0.53536  1.0000
  H   H562      1.0  0.70194  0.80725  0.74013  1.0000
  H   H563      1.0  0.80186  0.65725  0.69943  1.0000
  C   C561      1.0  0.76059  0.99405  0.81404  1.0000
  H   H564      1.0  0.98435  0.72854  0.96388  1.0000
  H   H565      1.0  0.74268  0.72299  0.55484  1.0000
  N   N47       1.0  0.72594  0.82265  0.68963  1.0000
  C   C562      1.0  0.73323  0.84675  0.66554  1.0000
  C   C563      1.0  0.72110  0.79460  0.67759  1.0000
  C   C564      1.0  0.73538  0.84291  0.62827  1.0000
  C   C565      1.0  0.72324  0.79003  0.64049  1.0000
  C   C566      1.0  0.73045  0.81439  0.61582  1.0000
  C   C567      1.0  0.72400  0.82686  0.72873  1.0000
  H   H566      1.0  0.73659  0.86887  0.67486  1.0000
  H   H567      1.0  0.71545  0.77555  0.69669  1.0000
  H   H568      1.0  0.74499  0.95682  0.92931  1.0000
  S   S190      1.0  0.71745  0.83913  0.52504  1.0000
  S   S191      1.0  0.85404  0.80144  0.53686  1.0000
  H   H569      1.0  0.72797  0.95942  0.88637  1.0000
  H   H570      1.0  0.72348  0.84857  0.73435  1.0000
  H   H571      1.0  0.82018  0.83403  0.52921  1.0000
  C   C568      1.0  0.79372  0.51430  0.81988  1.0000
  C   C569      1.0  0.97293  0.76299  0.94481  1.0000
  C   C570      1.0  0.75023  0.96839  0.90203  1.0000
  C   C571      1.0  0.99327  0.75308  0.95769  1.0000
  C   C572      1.0  0.98251  0.76278  0.60117  1.0000
  C   C573      1.0  0.68854  0.89589  0.98332  1.0000
  H   H572      1.0  0.80676  0.51677  0.91075  1.0000
  S   S192      1.0  0.68334  0.87096  0.59759  1.0000
  H   H573      1.0  0.67968  0.88790  0.72786  1.0000
  C   C574      1.0  0.73692  0.51324  0.90830  1.0000
  H   H574      1.0  0.81032  0.50609  0.81989  1.0000
  C   C575      1.0  0.81267  0.65776  0.01664  1.0000
  H   H575      1.0  0.72245  0.00194  0.91123  1.0000
  H   H576      1.0  0.97298  0.73801  0.51699  1.0000
  Fe  Fe96      1.0  0.67640  0.83718  0.55313  1.0000
  C   C576      1.0  0.73903  0.00400  0.81987  1.0000
  N   N48       1.0  0.76566  0.00240  0.90567  1.0000
