data_image0
_chemical_formula_structural       HSH2CSFeSH2SFeS2H2Fe3HFeCNHC2NC3H4C4SCH2SH2SC2SH2SH2C2SH3CSC3HC4H4C2HC2SHCHCH2S2CH2CFeSHS2FeS2FeSFeNFeS3C9H3C7NH2CH5CHCH3CHSHFeSHFeH5C2H5FeCH4FeS2FeS2FeSFeS4FeS2FeS2FeSFeS3C9H4C8H6C2HCH5SCH2NC9H7SCSHC4H2CH2C2HCHC2HCHC3H2CH3N2C6H8NCHCHC3H6C3NCNC5HCHC2H6CSC4H5CH4C4SFeS2FeS2FeSFeS4FeS2FeS2FeSFeS3C2HC6H4C8H5C3H4CH3C3H2NC6H3C4SH2CFeC2H2NC2H3C2H3C3SC3H5CSHFeC3HCHC4NCHCH2CH3CH5CHCNCHNHCH3C2FeS2FeSHFeSFeS2C2FeHSHC2HFeSCSC7H4C6H4CSC4H4CHC2NCHC2S3CH2NCH3NC6H9CHC4H2FeH2SH2FeS2FeSCFeSFeHSH2FeS2H4FeSCSHC6H4C6H3C2H2NH2C4SHCHNCH3CH4CH2CHSCHSCNHCHCH3C3H2NC3H2C3HC4HC2H4C2H2CH2SFeHSFeS2FeHFeS3FeS2CHFeCFeSHSH2C6H4C6H4C2H4NCH3C2HSHSC2H4CH2NC3HCH3FeCSCNHC2H2CHSC3HC2SHSCNCFeH2CH2FeSC2H2C2HNHNFeCSFeS2FeHFeS3FeS2FeSFeSFeSCSC8H4C6H4CHCH2CHC3H5CNH4C4HCNCH4CHSH2NC6H7SHCNHCHC3H5CHC2HC2H2CFeS2FeS2FeSFeS4FeS2FeS2FeSFeS4HC6H4CH2CHC5H3C6H4C6H4C6H4NC4HCHC2H2SHCHNC6H2FeHSH2FeC3H3CHFeCH2CHCSHCNC6H7C2H3CHCH4NH2NH2CH4FeS2FeS2FeSFeS3HFeS2FeS2FeSFeS3CHC6H7CFeH2SCHCH2C6H4C6H4C6H4CHNC2HC2HNC2H2NH3C2H2CH4C6H4CH2C2H2CH2C2H2SH2CH5C4H2NC2H3SC8HNSH2CSC4HCNFeSFeHSCSCHS2CHFeS2FeSFeHSC7H4C6H4CNH2CH3C3H2CSCHCFeCH2SHCHCHCH2CHC4NC2H3CH3CHSFeCSCSCHCSHCFeS2FeSNFeS2C6H4C6H5FeHSC4HCHFeH2CH2S2FeH3CHNCHNHCH
_chemical_formula_sum              "H576 S192 C576 Fe96 N48"
_cell_length_a       53.0367
_cell_length_b       52.8188
_cell_length_c       43.0462
_cell_angle_alpha    90.0593
_cell_angle_beta     90.0045
_cell_angle_gamma    120.029

_space_group_name_H-M_alt    "P 1"
_space_group_IT_number       1

loop_
  _space_group_symop_operation_xyz
  'x, y, z'

loop_
  _atom_site_type_symbol
  _atom_site_label
  _atom_site_symmetry_multiplicity
  _atom_site_fract_x
  _atom_site_fract_y
  _atom_site_fract_z
  _atom_site_occupancy
  H   H1        1.0  0.47266  0.20969  0.03375  1.0000
  S   S1        1.0  0.46343  0.11623  0.42413  1.0000
  H   H2        1.0  0.40663  0.07036  0.39891  1.0000
  H   H3        1.0  0.44305  0.24003  0.00995  1.0000
  C   C1        1.0  0.38213  0.10829  0.40142  1.0000
  S   S2        1.0  0.42240  0.15293  0.04870  1.0000
  Fe  Fe1       1.0  0.45688  0.15440  0.43465  1.0000
  S   S3        1.0  0.44177  0.17828  0.40069  1.0000
  H   H4        1.0  0.40197  0.18988  0.01994  1.0000
  H   H5        1.0  0.34979  0.04552  0.44192  1.0000
  S   S4        1.0  0.46335  0.11458  0.01681  1.0000
  Fe  Fe2       1.0  0.46804  0.27569  0.23582  1.0000
  S   S5        1.0  0.43366  0.26443  0.19849  1.0000
  S   S6        1.0  0.47676  0.24662  0.26948  1.0000
  H   H6        1.0  0.39676  0.11855  0.38192  1.0000
  H   H7        1.0  0.37051  0.03967  0.39573  1.0000
  Fe  Fe3       1.0  0.43953  0.30977  0.20681  1.0000
  Fe  Fe4       1.0  0.44368  0.14306  0.00823  1.0000
  Fe  Fe5       1.0  0.47124  0.28789  0.16513  1.0000
  H   H8        1.0  0.49626  0.27599  0.34591  1.0000
  Fe  Fe6       1.0  0.43642  0.09414  0.46681  1.0000
  C   C2        1.0  0.49841  0.22179  0.14778  1.0000
  N   N1        1.0  0.04096  0.31908  0.34479  1.0000
  H   H9        1.0  0.21040  0.32812  0.12063  1.0000
  C   C3        1.0  0.43835  0.18749  0.06721  1.0000
  C   C4        1.0  0.46300  0.21176  0.05499  1.0000
  N   N2        1.0  0.37340  0.08003  0.40948  1.0000
  C   C5        1.0  0.46322  0.24204  0.09813  1.0000
  C   C6        1.0  0.43842  0.21784  0.11028  1.0000
  C   C7        1.0  0.42593  0.19071  0.09471  1.0000
  H   H10       1.0  0.00099  0.30229  0.36990  1.0000
  H   H11       1.0  0.03273  0.31957  0.26690  1.0000
  H   H12       1.0  0.42892  0.22001  0.13165  1.0000
  H   H13       1.0  0.40672  0.17208  0.10422  1.0000
  C   C8        1.0  0.45204  0.19718  0.36410  1.0000
  C   C9        1.0  0.43618  0.21012  0.35267  1.0000
  C   C10       1.0  0.44313  0.22506  0.32385  1.0000
  C   C11       1.0  0.46609  0.22723  0.30575  1.0000
  S   S7        1.0  0.47109  0.31892  0.24642  1.0000
  C   C12       1.0  0.47511  0.19952  0.34608  1.0000
  H   H14       1.0  0.41828  0.20856  0.36623  1.0000
  H   H15       1.0  0.43064  0.23479  0.31561  1.0000
  S   S8        1.0  0.48234  0.17742  0.98286  1.0000
  H   H16       1.0  0.46142  0.17903  0.15591  1.0000
  H   H17       1.0  0.46933  0.15767  0.10821  1.0000
  S   S9        1.0  0.47488  0.33213  0.17122  1.0000
  C   C13       1.0  0.47987  0.19229  0.14097  1.0000
  C   C14       1.0  0.47519  0.23893  0.07025  1.0000
  S   S10       1.0  0.48083  0.27632  0.11719  1.0000
  H   H18       1.0  0.34851  0.12500  0.45841  1.0000
  H   H19       1.0  0.38379  0.06758  0.36632  1.0000
  S   S11       1.0  0.42706  0.13091  0.47553  1.0000
  H   H20       1.0  0.48759  0.18975  0.35429  1.0000
  H   H21       1.0  0.38512  0.03338  0.01654  1.0000
  C   C15       1.0  0.39937  0.01177  0.98460  1.0000
  C   C16       1.0  0.37290  0.12467  0.41859  1.0000
  S   S12       1.0  0.40066  0.04575  0.46296  1.0000
  H   H22       1.0  0.03304  0.32280  0.39264  1.0000
  H   H23       1.0  0.33346  0.07375  0.47332  1.0000
  H   H24       1.0  0.48966  0.16947  0.05500  1.0000
  C   C17       1.0  0.48199  0.21435  0.31720  1.0000
  S   S13       1.0  0.49684  0.17692  0.46506  1.0000
  C   C18       1.0  0.25092  0.32841  0.12670  1.0000
  C   C19       1.0  0.02372  0.30688  0.37312  1.0000
  C   C20       1.0  0.38278  0.01266  0.00944  1.0000
  H   H25       1.0  0.24452  0.31642  0.14844  1.0000
  C   C21       1.0  0.48447  0.18036  0.11396  1.0000
  C   C22       1.0  0.34671  0.08353  0.45283  1.0000
  C   C23       1.0  0.41010  0.19658  0.99649  1.0000
  C   C24       1.0  0.35518  0.11222  0.44451  1.0000
  H   H26       1.0  0.44997  0.01369  0.02229  1.0000
  H   H27       1.0  0.41559  0.00339  0.06554  1.0000
  H   H28       1.0  0.38021  0.14721  0.41226  1.0000
  H   H29       1.0  0.02333  0.28637  0.37962  1.0000
  C   C25       1.0  0.38404  0.06361  0.39162  1.0000
  C   C26       1.0  0.35603  0.06764  0.43492  1.0000
  H   H30       1.0  0.47594  0.30872  0.35490  1.0000
  C   C27       1.0  0.43318  0.22471  0.99085  1.0000
  C   C28       1.0  0.04370  0.32396  0.28920  1.0000
  S   S14       1.0  0.40517  0.32352  0.21580  1.0000
  H   H31       1.0  0.49433  0.25759  0.06068  1.0000
  C   C29       1.0  0.02747  0.31260  0.31642  1.0000
  H   H32       1.0  0.49438  0.23166  0.16794  1.0000
  C   C30       1.0  0.49350  0.31486  0.33836  1.0000
  H   H33       1.0  0.00390  0.29956  0.31475  1.0000
  H   H34       1.0  0.29395  0.33363  0.12683  1.0000
  S   S15       1.0  0.46307  0.31039  0.74639  1.0000
  S   S16       1.0  0.48205  0.12494  0.94265  1.0000
  C   C31       1.0  0.43018  0.18252  0.70337  1.0000
  H   H35       1.0  0.45394  0.16280  0.68457  1.0000
  H   H36       1.0  0.38147  0.19325  0.66295  1.0000
  C   C32       1.0  0.40943  0.19069  0.69726  1.0000
  Fe  Fe7       1.0  0.46090  0.15291  0.93878  1.0000
  S   S17       1.0  0.46856  0.18591  0.89930  1.0000
  H   H37       1.0  0.36772  0.14701  0.61642  1.0000
  S   S18       1.0  0.42014  0.11973  0.96428  1.0000
  S   S19       1.0  0.47472  0.11279  0.49904  1.0000
  Fe  Fe8       1.0  0.44792  0.26286  0.73736  1.0000
  S   S20       1.0  0.41415  0.25981  0.70284  1.0000
  S   S21       1.0  0.43269  0.22385  0.77151  1.0000
  Fe  Fe9       1.0  0.46777  0.15131  0.50485  1.0000
  S   S22       1.0  0.46468  0.32068  0.67047  1.0000
  Fe  Fe10      1.0  0.43207  0.30816  0.70898  1.0000
  N   N3        1.0  0.40432  0.17271  0.64506  1.0000
  Fe  Fe11      1.0  0.44891  0.27232  0.66645  1.0000
  S   S23       1.0  0.43487  0.24967  0.61935  1.0000
  S   S24       1.0  0.47779  0.16997  0.55403  1.0000
  S   S25       1.0  0.48160  0.27266  0.70005  1.0000
  C   C33       1.0  0.39690  0.18594  0.66773  1.0000
  C   C34       1.0  0.38973  0.16663  0.61481  1.0000
  C   C35       1.0  0.46811  0.19472  0.57034  1.0000
  C   C36       1.0  0.43076  0.21268  0.93644  1.0000
  C   C37       1.0  0.46936  0.22400  0.61509  1.0000
  C   C38       1.0  0.45019  0.23089  0.60009  1.0000
  C   C39       1.0  0.44080  0.22040  0.56979  1.0000
  C   C40       1.0  0.44973  0.20241  0.55492  1.0000
  C   C41       1.0  0.39492  0.16426  0.91653  1.0000
  H   H38       1.0  0.44042  0.18674  0.72612  1.0000
  H   H39       1.0  0.42603  0.22572  0.55799  1.0000
  H   H40       1.0  0.44194  0.19407  0.53182  1.0000
  C   C42       1.0  0.45876  0.19568  0.86308  1.0000
  C   C43       1.0  0.47550  0.22456  0.85197  1.0000
  C   C44       1.0  0.46813  0.23361  0.82407  1.0000
  C   C45       1.0  0.44369  0.21390  0.80680  1.0000
  C   C46       1.0  0.42696  0.18502  0.81795  1.0000
  C   C47       1.0  0.43443  0.17593  0.84571  1.0000
  C   C48       1.0  0.43769  0.16908  0.68011  1.0000
  N   N4        1.0  0.40791  0.18523  0.94214  1.0000
  H   H41       1.0  0.40804  0.16947  0.80492  1.0000
  H   H42       1.0  0.42136  0.15359  0.85356  1.0000
  C   C49       1.0  0.40845  0.01717  0.51375  1.0000
  H   H43       1.0  0.43931  0.21904  0.91307  1.0000
  H   H44       1.0  0.48134  0.25586  0.81599  1.0000
  H   H45       1.0  0.42537  0.03847  0.52146  1.0000
  H   H46       1.0  0.40239  0.16293  0.59658  1.0000
  H   H47       1.0  0.37162  0.14826  0.92103  1.0000
  C   C50       1.0  0.47817  0.20588  0.60030  1.0000
  H   H48       1.0  0.38771  0.18566  0.60712  1.0000
  C   C51       1.0  0.42418  0.16396  0.65101  1.0000
  H   H49       1.0  0.47673  0.23195  0.63841  1.0000
  H   H50       1.0  0.39606  0.17563  0.89439  1.0000
  H   H51       1.0  0.43018  0.15357  0.63298  1.0000
  C   C52       1.0  0.39339  0.01470  0.48616  1.0000
  H   H52       1.0  0.40324  0.20087  0.71530  1.0000
  S   S26       1.0  0.42540  0.04392  0.96435  1.0000
  H   H53       1.0  0.40225  0.33306  0.65015  1.0000
  Fe  Fe12      1.0  0.49465  0.32015  0.70694  1.0000
  S   S27       1.0  0.40572  0.33113  0.71849  1.0000
  H   H54       1.0  0.40693  0.15223  0.91336  1.0000
  Fe  Fe13      1.0  0.44274  0.09325  0.97134  1.0000
  H   H55       1.0  0.49248  0.20014  0.61237  1.0000
  H   H56       1.0  0.22030  0.33127  0.56317  1.0000
  H   H57       1.0  0.25886  0.32521  0.58938  1.0000
  H   H58       1.0  0.01868  0.32366  0.87408  1.0000
  H   H59       1.0  0.46215  0.25437  0.95605  1.0000
  C   C53       1.0  0.44379  0.23279  0.96068  1.0000
  C   C54       1.0  0.39798  0.17683  0.97182  1.0000
  H   H60       1.0  0.49441  0.24014  0.86500  1.0000
  H   H61       1.0  0.38067  0.15471  0.97665  1.0000
  H   H62       1.0  0.13304  0.50292  0.47096  1.0000
  H   H63       1.0  0.08652  0.58903  0.26861  1.0000
  H   H64       1.0  0.00517  0.35852  0.39959  1.0000
  Fe  Fe14      1.0  0.15479  0.63923  0.29768  1.0000
  C   C55       1.0  0.17719  0.51631  0.45737  1.0000
  H   H65       1.0  0.08121  0.34160  0.36940  1.0000
  H   H66       1.0  0.25132  0.46281  0.45618  1.0000
  H   H67       1.0  0.39396  0.44899  0.11346  1.0000
  H   H68       1.0  0.22578  0.51482  0.42167  1.0000
  Fe  Fe15      1.0  0.35223  0.47938  0.13249  1.0000
  S   S28       1.0  0.35069  0.45242  0.17312  1.0000
  S   S29       1.0  0.39466  0.52032  0.12028  1.0000
  Fe  Fe16      1.0  0.29041  0.43456  0.11012  1.0000
  S   S30       1.0  0.28497  0.40384  0.14986  1.0000
  S   S31       1.0  0.25153  0.41876  0.07605  1.0000
  Fe  Fe17      1.0  0.30501  0.44447  0.17974  1.0000
  S   S32       1.0  0.29543  0.45240  0.22934  1.0000
  Fe  Fe18      1.0  0.33121  0.41426  0.14048  1.0000
  S   S33       1.0  0.35140  0.38522  0.13107  1.0000
  S   S34       1.0  0.30812  0.47455  0.14094  1.0000
  S   S35       1.0  0.33495  0.44179  0.09876  1.0000
  S   S36       1.0  0.14226  0.59185  0.28907  1.0000
  Fe  Fe19      1.0  0.17475  0.43120  0.41576  1.0000
  S   S37       1.0  0.14385  0.39459  0.38378  1.0000
  S   S38       1.0  0.18812  0.42180  0.46375  1.0000
  Fe  Fe20      1.0  0.17014  0.47692  0.37566  1.0000
  S   S39       1.0  0.13925  0.44426  0.34122  1.0000
  S   S40       1.0  0.18882  0.52607  0.37544  1.0000
  Fe  Fe21      1.0  0.11632  0.41599  0.38233  1.0000
  S   S41       1.0  0.06716  0.39003  0.39084  1.0000
  Fe  Fe22      1.0  0.16870  0.42501  0.34432  1.0000
  S   S42       1.0  0.17391  0.40762  0.29786  1.0000
  S   S43       1.0  0.14514  0.45034  0.41697  1.0000
  S   S44       1.0  0.20168  0.46000  0.37598  1.0000
  C   C56       1.0  0.04251  0.38167  0.33175  1.0000
  C   C57       1.0  0.03787  0.37774  0.36381  1.0000
  C   C58       1.0  0.24068  0.35088  0.08341  1.0000
  C   C59       1.0  0.15476  0.57373  0.31394  1.0000
  C   C60       1.0  0.14293  0.54334  0.31105  1.0000
  C   C61       1.0  0.15270  0.52831  0.33014  1.0000
  C   C62       1.0  0.17475  0.54369  0.35197  1.0000
  C   C63       1.0  0.18649  0.57404  0.35492  1.0000
  C   C64       1.0  0.17641  0.58899  0.33617  1.0000
  H   H69       1.0  0.12611  0.53137  0.29397  1.0000
  H   H70       1.0  0.14319  0.50491  0.32785  1.0000
  H   H71       1.0  0.20353  0.58615  0.37174  1.0000
  H   H72       1.0  0.18566  0.61238  0.33862  1.0000
  C   C65       1.0  0.04249  0.63887  0.32381  1.0000
  C   C66       1.0  0.04327  0.62546  0.35155  1.0000
  C   C67       1.0  0.26132  0.43857  0.24811  1.0000
  C   C68       1.0  0.23495  0.42085  0.23277  1.0000
  C   C69       1.0  0.20835  0.41107  0.24853  1.0000
  C   C70       1.0  0.20787  0.41915  0.27959  1.0000
  C   C71       1.0  0.23422  0.43681  0.29493  1.0000
  C   C72       1.0  0.26079  0.44633  0.27927  1.0000
  H   H73       1.0  0.23506  0.41467  0.20882  1.0000
  H   H74       1.0  0.18805  0.39731  0.23653  1.0000
  H   H75       1.0  0.23417  0.44307  0.31885  1.0000
  H   H76       1.0  0.28110  0.45991  0.29135  1.0000
  H   H77       1.0  0.38577  0.35855  0.11665  1.0000
  H   H78       1.0  0.30883  0.36228  0.07823  1.0000
  C   C73       1.0  0.26284  0.45433  0.02326  1.0000
  C   C74       1.0  0.24273  0.42967  0.03996  1.0000
  H   H79       1.0  0.08408  0.56048  0.31535  1.0000
  C   C75       1.0  0.39081  0.34098  0.19181  1.0000
  H   H80       1.0  0.34942  0.37418  0.19863  1.0000
  H   H81       1.0  0.28466  0.46775  0.03225  1.0000
  H   H82       1.0  0.44175  0.62292  0.07999  1.0000
  H   H83       1.0  0.29261  0.40095  0.04902  1.0000
  H   H84       1.0  0.22840  0.54883  0.43297  1.0000
  S   S45       1.0  0.13516  0.64810  0.33938  1.0000
  C   C76       1.0  0.36603  0.36818  0.15533  1.0000
  H   H85       1.0  0.17834  0.53256  0.44109  1.0000
  H   H86       1.0  0.42287  0.41862  0.14098  1.0000
  N   N5        1.0  0.20022  0.51166  0.46072  1.0000
  C   C77       1.0  0.04347  0.53443  0.33922  1.0000
  C   C78       1.0  0.27739  0.37767  0.04310  1.0000
  C   C79       1.0  0.45514  0.58353  0.19518  1.0000
  C   C80       1.0  0.46485  0.58524  0.16462  1.0000
  C   C81       1.0  0.44620  0.56549  0.14200  1.0000
  C   C82       1.0  0.41778  0.54376  0.14974  1.0000
  C   C83       1.0  0.40818  0.54167  0.18039  1.0000
  C   C84       1.0  0.42680  0.56155  0.20298  1.0000
  C   C85       1.0  0.41750  0.46271  0.11895  1.0000
  H   H87       1.0  0.45381  0.56725  0.11834  1.0000
  H   H88       1.0  0.38627  0.52504  0.18662  1.0000
  H   H89       1.0  0.41909  0.56010  0.22655  1.0000
  H   H90       1.0  0.42136  0.49531  0.16815  1.0000
  H   H91       1.0  0.28840  0.36966  0.02723  1.0000
  H   H92       1.0  0.13061  0.44290  0.00977  1.0000
  H   H93       1.0  0.25875  0.37685  0.03032  1.0000
  S   S46       1.0  0.14008  0.66165  0.26358  1.0000
  C   C86       1.0  0.44437  0.62824  0.10454  1.0000
  S   S47       1.0  0.47707  0.60944  0.22366  1.0000
  H   H94       1.0  0.06083  0.60163  0.26438  1.0000
  C   C87       1.0  0.01717  0.60674  0.36758  1.0000
  C   C88       1.0  0.01516  0.63293  0.31229  1.0000
  C   C89       1.0  0.37412  0.35203  0.20556  1.0000
  C   C90       1.0  0.42651  0.47124  0.20529  1.0000
  H   H95       1.0  0.05115  0.52184  0.35190  1.0000
  H   H96       1.0  0.08663  0.61518  0.29564  1.0000
  C   C91       1.0  0.01868  0.36840  0.31103  1.0000
  H   H97       1.0  0.18308  0.45999  0.00122  1.0000
  H   H98       1.0  0.02255  0.37093  0.28626  1.0000
  C   C92       1.0  0.14418  0.46308  0.99724  1.0000
  C   C93       1.0  0.00908  0.36154  0.37484  1.0000
  H   H99       1.0  0.39951  0.57484  0.09524  1.0000
  C   C94       1.0  0.25474  0.46174  0.99478  1.0000
  H   H100      1.0  0.06446  0.39421  0.32288  1.0000
  C   C95       1.0  0.06194  0.55619  0.31839  1.0000
  C   C96       1.0  0.42351  0.47655  0.17405  1.0000
  H   H101      1.0  0.42416  0.48598  0.11454  1.0000
  C   C97       1.0  0.42448  0.43382  0.15890  1.0000
  H   H102      1.0  0.43007  0.45676  0.10285  1.0000
  C   C98       1.0  0.42763  0.42788  0.18987  1.0000
  C   C99       1.0  0.47401  0.65917  0.14643  1.0000
  C   C100      1.0  0.42850  0.44666  0.21319  1.0000
  H   H103      1.0  0.01821  0.59678  0.38914  1.0000
  H   H104      1.0  0.42682  0.48588  0.22320  1.0000
  C   C101      1.0  0.17360  0.47264  0.99248  1.0000
  H   H105      1.0  0.38307  0.57103  0.13223  1.0000
  H   H106      1.0  0.06401  0.62979  0.36086  1.0000
  H   H107      1.0  0.40772  0.33533  0.14860  1.0000
  N   N6        1.0  0.26790  0.36016  0.07162  1.0000
  N   N7        1.0  0.20281  0.48421  0.26940  1.0000
  C   C102      1.0  0.20407  0.50075  0.29448  1.0000
  C   C103      1.0  0.22784  0.48723  0.25671  1.0000
  C   C104      1.0  0.23082  0.52017  0.30822  1.0000
  C   C105      1.0  0.25495  0.50633  0.26994  1.0000
  C   C106      1.0  0.25637  0.52277  0.29597  1.0000
  C   C107      1.0  0.17458  0.46419  0.25518  1.0000
  H   H108      1.0  0.18435  0.49894  0.30416  1.0000
  H   H109      1.0  0.22694  0.47424  0.23673  1.0000
  H   H110      1.0  0.23160  0.53302  0.32829  1.0000
  H   H111      1.0  0.27460  0.50783  0.26033  1.0000
  H   H112      1.0  0.27723  0.53747  0.30663  1.0000
  H   H113      1.0  0.16833  0.47626  0.23871  1.0000
  H   H114      1.0  0.17524  0.44607  0.24270  1.0000
  H   H115      1.0  0.15746  0.45361  0.27325  1.0000
  N   N8        1.0  0.05233  0.57202  0.30221  1.0000
  C   C108      1.0  0.02475  0.56727  0.30669  1.0000
  H   H116      1.0  0.01745  0.58047  0.29461  1.0000
  C   C109      1.0  0.38257  0.35699  0.14155  1.0000
  H   H117      1.0  0.19860  0.39348  0.04005  1.0000
  C   C110      1.0  0.20636  0.42004  0.99907  1.0000
  C   C111      1.0  0.01522  0.52930  0.34378  1.0000
  C   C112      1.0  0.39523  0.58711  0.11353  1.0000
  H   H118      1.0  0.40895  0.60501  0.17252  1.0000
  H   H119      1.0  0.43032  0.44194  0.23735  1.0000
  H   H120      1.0  0.48654  0.60211  0.15825  1.0000
  H   H121      1.0  0.42860  0.40838  0.19575  1.0000
  H   H122      1.0  0.18457  0.40658  0.99002  1.0000
  H   H123      1.0  0.37045  0.34987  0.23039  1.0000
  C   C113      1.0  0.21447  0.41261  0.02753  1.0000
  C   C114      1.0  0.07248  0.59551  0.28159  1.0000
  C   C115      1.0  0.36206  0.36578  0.18756  1.0000
  N   N9        1.0  0.42256  0.45795  0.15134  1.0000
  C   C116      1.0  0.45173  0.64219  0.16722  1.0000
  N   N10       1.0  0.42262  0.61160  0.12511  1.0000
  C   C117      1.0  0.22656  0.52823  0.44195  1.0000
  C   C118      1.0  0.39515  0.34383  0.15963  1.0000
  C   C119      1.0  0.23179  0.33491  0.11110  1.0000
  C   C120      1.0  0.08752  0.34787  0.32011  1.0000
  C   C121      1.0  0.27864  0.33803  0.11458  1.0000
  H   H124      1.0  0.01422  0.64319  0.29090  1.0000
  C   C122      1.0  0.42593  0.61842  0.15608  1.0000
  H   H125      1.0  0.38124  0.59529  0.10385  1.0000
  C   C123      1.0  0.07392  0.34174  0.29114  1.0000
  C   C124      1.0  0.28691  0.35419  0.08699  1.0000
  H   H126      1.0  0.22586  0.35634  0.07178  1.0000
  H   H127      1.0  0.11100  0.36191  0.32184  1.0000
  H   H128      1.0  0.45476  0.64694  0.19192  1.0000
  H   H129      1.0  0.24640  0.53411  0.45586  1.0000
  H   H130      1.0  0.08679  0.35104  0.27029  1.0000
  H   H131      1.0  0.10911  0.47152  0.98782  1.0000
  C   C125      1.0  0.15144  0.49956  0.47414  1.0000
  S   S48       1.0  0.07471  0.66302  0.30263  1.0000
  C   C126      1.0  0.13215  0.47914  0.98501  1.0000
  C   C127      1.0  0.47042  0.65220  0.11490  1.0000
  C   C128      1.0  0.00579  0.54588  0.32753  1.0000
  C   C129      1.0  0.22646  0.44472  0.98237  1.0000
  H   H132      1.0  0.00071  0.51269  0.36008  1.0000
  H   H133      1.0  0.49519  0.35495  0.32465  1.0000
  H   H134      1.0  0.27058  0.48088  0.98224  1.0000
  H   H135      1.0  0.48789  0.66530  0.09874  1.0000
  H   H136      1.0  0.49247  0.66198  0.29573  1.0000
  C   C130      1.0  0.07060  0.33620  0.34686  1.0000
  H   H137      1.0  0.18665  0.55375  0.94198  1.0000
  H   H138      1.0  0.46420  0.36959  0.75165  1.0000
  H   H139      1.0  0.21859  0.55349  0.95557  1.0000
  H   H140      1.0  0.06235  0.65557  0.86252  1.0000
  C   C131      1.0  0.01161  0.59945  0.81902  1.0000
  C   C132      1.0  0.25107  0.37102  0.53995  1.0000
  C   C133      1.0  0.14379  0.52027  0.79125  1.0000
  C   C134      1.0  0.46202  0.39831  0.70273  1.0000
  S   S49       1.0  0.48374  0.64148  0.65409  1.0000
  Fe  Fe23      1.0  0.34794  0.47952  0.66121  1.0000
  S   S50       1.0  0.33096  0.43595  0.68472  1.0000
  S   S51       1.0  0.38159  0.51513  0.69265  1.0000
  Fe  Fe24      1.0  0.30665  0.45172  0.60497  1.0000
  S   S52       1.0  0.28734  0.40652  0.62538  1.0000
  S   S53       1.0  0.29813  0.46200  0.55508  1.0000
  Fe  Fe25      1.0  0.28687  0.42812  0.67060  1.0000
  S   S54       1.0  0.25072  0.40602  0.70641  1.0000
  Fe  Fe26      1.0  0.33329  0.41832  0.63833  1.0000
  S   S55       1.0  0.35321  0.38943  0.62712  1.0000
  S   S56       1.0  0.30344  0.47269  0.64975  1.0000
  S   S57       1.0  0.35298  0.46242  0.61518  1.0000
  S   S58       1.0  0.19776  0.63285  0.81292  1.0000
  Fe  Fe27      1.0  0.18166  0.44698  0.90993  1.0000
  S   S59       1.0  0.16565  0.41550  0.86906  1.0000
  S   S60       1.0  0.21746  0.45583  0.94652  1.0000
  Fe  Fe28      1.0  0.15224  0.48043  0.88318  1.0000
  S   S61       1.0  0.13460  0.45179  0.84121  1.0000
  S   S62       1.0  0.14117  0.51602  0.89234  1.0000
  Fe  Fe29      1.0  0.12239  0.41473  0.87436  1.0000
  S   S63       1.0  0.07684  0.37359  0.87380  1.0000
  Fe  Fe30      1.0  0.17858  0.45493  0.83865  1.0000
  S   S64       1.0  0.20567  0.47236  0.79431  1.0000
  S   S65       1.0  0.13775  0.44340  0.91717  1.0000
  S   S66       1.0  0.19681  0.48637  0.87872  1.0000
  C   C135      1.0  0.04137  0.38996  0.84117  1.0000
  C   C136      1.0  0.04324  0.36809  0.85767  1.0000
  H   H141      1.0  0.06074  0.41102  0.83794  1.0000
  C   C137      1.0  0.18348  0.60193  0.83749  1.0000
  C   C138      1.0  0.15872  0.59379  0.85562  1.0000
  C   C139      1.0  0.14634  0.56766  0.87280  1.0000
  C   C140      1.0  0.15831  0.54925  0.87160  1.0000
  C   C141      1.0  0.18342  0.55762  0.85400  1.0000
  C   C142      1.0  0.19613  0.58406  0.83730  1.0000
  H   H142      1.0  0.14873  0.60730  0.85596  1.0000
  H   H143      1.0  0.12698  0.56139  0.88650  1.0000
  H   H144      1.0  0.19295  0.54369  0.85309  1.0000
  H   H145      1.0  0.21544  0.59034  0.82352  1.0000
  C   C143      1.0  0.03930  0.62198  0.82840  1.0000
  C   C144      1.0  0.04128  0.63819  0.85498  1.0000
  C   C145      1.0  0.23710  0.42433  0.72954  1.0000
  C   C146      1.0  0.24453  0.45331  0.72379  1.0000
  C   C147      1.0  0.23390  0.46733  0.74328  1.0000
  C   C148      1.0  0.21630  0.45279  0.76909  1.0000
  C   C149      1.0  0.20877  0.42378  0.77478  1.0000
  C   C150      1.0  0.21895  0.40958  0.75493  1.0000
  H   H146      1.0  0.25837  0.46487  0.70428  1.0000
  H   H147      1.0  0.23980  0.48974  0.73864  1.0000
  H   H148      1.0  0.19510  0.41228  0.79445  1.0000
  H   H149      1.0  0.21290  0.38709  0.75943  1.0000
  H   H150      1.0  0.20655  0.52715  0.76241  1.0000
  C   C151      1.0  0.21495  0.42210  0.51907  1.0000
  C   C152      1.0  0.23860  0.43082  0.53985  1.0000
  C   C153      1.0  0.26700  0.45106  0.53053  1.0000
  H   H151      1.0  0.17107  0.45537  0.51163  1.0000
  H   H152      1.0  0.48605  0.54345  0.70390  1.0000
  H   H153      1.0  0.19317  0.40642  0.52667  1.0000
  H   H154      1.0  0.23484  0.42181  0.56307  1.0000
  C   C154      1.0  0.28057  0.39155  0.53593  1.0000
  H   H155      1.0  0.37665  0.36379  0.72978  1.0000
  H   H156      1.0  0.38184  0.35618  0.61565  1.0000
  H   H157      1.0  0.11510  0.54516  0.81384  1.0000
  C   C155      1.0  0.36775  0.37345  0.65298  1.0000
  C   C156      1.0  0.36658  0.37557  0.68531  1.0000
  C   C157      1.0  0.37797  0.36219  0.70483  1.0000
  H   H158      1.0  0.12914  0.46393  0.50650  1.0000
  H   H159      1.0  0.35660  0.38722  0.69531  1.0000
  N   N11       1.0  0.14762  0.54706  0.78327  1.0000
  C   C158      1.0  0.45521  0.60664  0.66536  1.0000
  C   C159      1.0  0.43324  0.58962  0.64379  1.0000
  C   C160      1.0  0.41063  0.56141  0.65162  1.0000
  C   C161      1.0  0.40951  0.55030  0.68137  1.0000
  C   C162      1.0  0.43130  0.56747  0.70304  1.0000
  C   C163      1.0  0.45423  0.59542  0.69500  1.0000
  H   H160      1.0  0.43377  0.59822  0.62085  1.0000
  H   H161      1.0  0.39387  0.54844  0.63483  1.0000
  H   H162      1.0  0.43051  0.55905  0.72614  1.0000
  C   C164      1.0  0.29401  0.36459  0.56945  1.0000
  C   C165      1.0  0.01589  0.63196  0.87177  1.0000
  C   C166      1.0  0.29628  0.42758  0.77111  1.0000
  C   C167      1.0  0.18996  0.53278  0.76790  1.0000
  S   S67       1.0  0.07038  0.62866  0.80600  1.0000
  H   H163      1.0  0.34079  0.40640  0.52546  1.0000
  H   H164      1.0  0.33328  0.47294  0.73613  1.0000
  C   C168      1.0  0.14925  0.47768  0.49404  1.0000
  Fe  Fe31      1.0  0.11939  0.66155  0.80994  1.0000
  C   C169      1.0  0.32023  0.47797  0.75156  1.0000
  C   C170      1.0  0.38079  0.35805  0.64058  1.0000
  H   H165      1.0  0.21316  0.57589  0.74771  1.0000
  H   H166      1.0  0.10775  0.54541  0.77274  1.0000
  N   N12       1.0  0.30005  0.45704  0.77083  1.0000
  C   C171      1.0  0.47499  0.55225  0.65860  1.0000
  C   C172      1.0  0.21915  0.43350  0.48868  1.0000
  H   H167      1.0  0.16197  0.49159  0.78996  1.0000
  H   H168      1.0  0.23453  0.37396  0.52834  1.0000
  H   H169      1.0  0.14013  0.51662  0.95814  1.0000
  C   C173      1.0  0.48502  0.57084  0.63282  1.0000
  C   C174      1.0  0.17276  0.47295  0.49707  1.0000
  H   H170      1.0  0.33488  0.43300  0.54596  1.0000
  H   H171      1.0  0.13416  0.57839  0.79239  1.0000
  H   H172      1.0  0.44367  0.39225  0.71810  1.0000
  C   C175      1.0  0.48428  0.41467  0.65240  1.0000
  C   C176      1.0  0.19358  0.55995  0.75960  1.0000
  C   C177      1.0  0.39085  0.34664  0.69245  1.0000
  S   S68       1.0  0.14855  0.66332  0.84899  1.0000
  C   C178      1.0  0.27119  0.46247  0.50014  1.0000
  C   C179      1.0  0.28419  0.46377  0.79082  1.0000
  C   C180      1.0  0.49382  0.55723  0.68343  1.0000
  H   H173      1.0  0.00976  0.58680  0.79850  1.0000
  H   H174      1.0  0.27320  0.41086  0.77583  1.0000
  H   H175      1.0  0.17514  0.58806  0.76124  1.0000
  H   H176      1.0  0.47093  0.60837  0.71183  1.0000
  H   H177      1.0  0.31056  0.42612  0.78897  1.0000
  C   C181      1.0  0.17192  0.56667  0.76726  1.0000
  S   S69       1.0  0.14671  0.65679  0.77259  1.0000
  H   H178      1.0  0.34570  0.41091  0.56708  1.0000
  Fe  Fe32      1.0  0.17711  0.66163  0.81144  1.0000
  C   C182      1.0  0.19684  0.53990  0.94477  1.0000
  C   C183      1.0  0.01763  0.34080  0.86143  1.0000
  C   C184      1.0  0.12498  0.55429  0.79082  1.0000
  H   H179      1.0  0.30142  0.42183  0.74803  1.0000
  C   C185      1.0  0.01444  0.38448  0.82854  1.0000
  H   H180      1.0  0.26802  0.44717  0.80596  1.0000
  C   C186      1.0  0.48631  0.38713  0.74452  1.0000
  C   C187      1.0  0.16485  0.51275  0.78361  1.0000
  C   C188      1.0  0.39236  0.34483  0.66012  1.0000
  C   C189      1.0  0.26471  0.34367  0.57409  1.0000
  N   N13       1.0  0.30154  0.38857  0.55124  1.0000
  C   C190      1.0  0.46072  0.40680  0.67227  1.0000
  H   H181      1.0  0.45245  0.53474  0.65977  1.0000
  C   C191      1.0  0.30768  0.51310  0.77100  1.0000
  H   H182      1.0  0.27416  0.49666  0.80619  1.0000
  H   H183      1.0  0.12461  0.50472  0.80407  1.0000
  C   C192      1.0  0.32420  0.50621  0.75115  1.0000
  H   H184      1.0  0.33990  0.52249  0.73533  1.0000
  H   H185      1.0  0.28659  0.41020  0.52091  1.0000
  H   H186      1.0  0.19962  0.53313  0.92116  1.0000
  C   C193      1.0  0.33226  0.41074  0.54713  1.0000
  H   H187      1.0  0.31018  0.53477  0.77058  1.0000
  H   H188      1.0  0.01353  0.40152  0.81561  1.0000
  H   H189      1.0  0.01775  0.64476  0.89215  1.0000
  H   H190      1.0  0.46989  0.56756  0.61420  1.0000
  H   H191      1.0  0.31062  0.36185  0.58111  1.0000
  C   C194      1.0  0.28769  0.49184  0.79116  1.0000
  H   H192      1.0  0.44132  0.40677  0.66411  1.0000
  C   C195      1.0  0.14984  0.50464  0.96815  1.0000
  N   N14       1.0  0.17872  0.51387  0.96360  1.0000
  C   C196      1.0  0.24313  0.34708  0.55942  1.0000
  H   H193      1.0  0.29299  0.47804  0.49251  1.0000
  N   N15       1.0  0.48574  0.39689  0.71280  1.0000
  H   H194      1.0  0.49406  0.40577  0.76091  1.0000
  C   C197      1.0  0.19061  0.49810  0.97530  1.0000
  H   H195      1.0  0.21325  0.50480  0.97084  1.0000
  H   H196      1.0  0.48341  0.42090  0.62858  1.0000
  H   H197      1.0  0.21610  0.48593  0.48210  1.0000
  C   C198      1.0  0.19821  0.49025  0.48015  1.0000
  C   C199      1.0  0.24752  0.45387  0.47941  1.0000
  Fe  Fe33      1.0  0.32850  0.88096  0.03694  1.0000
  S   S70       1.0  0.33965  0.86507  0.08074  1.0000
  S   S71       1.0  0.33487  0.92736  0.03773  1.0000
  Fe  Fe34      1.0  0.31350  0.82443  0.00187  1.0000
  S   S72       1.0  0.32502  0.80568  0.04271  1.0000
  H   H198      1.0  0.43345  0.92526  0.02814  1.0000
  Fe  Fe35      1.0  0.29968  0.82091  0.07197  1.0000
  S   S73       1.0  0.26224  0.78606  0.10258  1.0000
  Fe  Fe36      1.0  0.36356  0.85081  0.04819  1.0000
  S   S74       1.0  0.41160  0.86648  0.05493  1.0000
  S   S75       1.0  0.28641  0.83782  0.03018  1.0000
  C   C200      1.0  0.44430  0.97026  0.02243  1.0000
  C   C201      1.0  0.36279  0.98659  0.02491  1.0000
  Fe  Fe37      1.0  0.17800  0.69025  0.34330  1.0000
  H   H199      1.0  0.22112  0.77692  0.05237  1.0000
  S   S76       1.0  0.20392  0.70184  0.38849  1.0000
  H   H200      1.0  0.25214  0.70929  0.00660  1.0000
  C   C202      1.0  0.19513  0.74102  0.98381  1.0000
  C   C203      1.0  0.42990  0.94269  0.03628  1.0000
  H   H201      1.0  0.18147  0.76458  0.01393  1.0000
  Fe  Fe38      1.0  0.18277  0.70313  0.27293  1.0000
  S   S77       1.0  0.21830  0.74049  0.24268  1.0000
  C   C204      1.0  0.42546  0.80924  0.00449  1.0000
  S   S78       1.0  0.16352  0.71558  0.31333  1.0000
  C   C205      1.0  0.38471  0.95325  0.09614  1.0000
  C   C206      1.0  0.23012  0.75239  0.20338  1.0000
  C   C207      1.0  0.21379  0.73714  0.17723  1.0000
  C   C208      1.0  0.22399  0.74777  0.14685  1.0000
  C   C209      1.0  0.25078  0.77373  0.14185  1.0000
  C   C210      1.0  0.26719  0.78889  0.16800  1.0000
  C   C211      1.0  0.25690  0.77836  0.19837  1.0000
  H   H202      1.0  0.19318  0.71722  0.18039  1.0000
  H   H203      1.0  0.21095  0.73571  0.12705  1.0000
  H   H204      1.0  0.28776  0.80885  0.16486  1.0000
  H   H205      1.0  0.26985  0.79050  0.21818  1.0000
  C   C212      1.0  0.24516  0.78695  0.44531  1.0000
  C   C213      1.0  0.22617  0.78310  0.42064  1.0000
  C   C214      1.0  0.21318  0.75711  0.40302  1.0000
  C   C215      1.0  0.21885  0.73464  0.41023  1.0000
  C   C216      1.0  0.23743  0.73831  0.43526  1.0000
  C   C217      1.0  0.25074  0.76443  0.45258  1.0000
  H   H206      1.0  0.22160  0.80037  0.41503  1.0000
  H   H207      1.0  0.19875  0.75443  0.38394  1.0000
  H   H208      1.0  0.24190  0.72099  0.44097  1.0000
  H   H209      1.0  0.45889  0.97445  0.00302  1.0000
  C   C218      1.0  0.42820  0.84931  0.03499  1.0000
  S   S79       1.0  0.49352  0.86492  0.45419  1.0000
  C   C219      1.0  0.45977  0.84738  0.47370  1.0000
  C   C220      1.0  0.45598  0.82348  0.00243  1.0000
  C   C221      1.0  0.43910  0.85587  0.46706  1.0000
  C   C222      1.0  0.41160  0.82219  0.02043  1.0000
  H   H210      1.0  0.35952  0.98437  0.45548  1.0000
  H   H211      1.0  0.36783  0.92969  0.09710  1.0000
  H   H212      1.0  0.41245  0.78821  0.99340  1.0000
  H   H213      1.0  0.38808  0.81109  0.02166  1.0000
  C   C223      1.0  0.35942  0.95931  0.01624  1.0000
  H   H214      1.0  0.47174  0.88414  0.04496  1.0000
  C   C224      1.0  0.21938  0.76440  0.03162  1.0000
  C   C225      1.0  0.45873  0.86328  0.03352  1.0000
  N   N16       1.0  0.40525  0.95903  0.07068  1.0000
  C   C226      1.0  0.47260  0.85052  0.01718  1.0000
  H   H215      1.0  0.39645  0.95991  0.11864  1.0000
  C   C227      1.0  0.37136  0.98668  0.47673  1.0000
  C   C228      1.0  0.41047  0.93748  0.06065  1.0000
  S   S80       1.0  0.19869  0.67934  0.30378  1.0000
  S   S81       1.0  0.35410  0.86855  0.00535  1.0000
  S   S82       1.0  0.26096  0.81995  0.46676  1.0000
  C   C229      1.0  0.23967  0.75536  0.02616  1.0000
  H   H216      1.0  0.34990  0.98761  0.04383  1.0000
  H   H217      1.0  0.25689  0.76090  0.04300  1.0000
  N   N17       1.0  0.23800  0.73998  0.99991  1.0000
  C   C230      1.0  0.19710  0.75734  0.01016  1.0000
  H   H218      1.0  0.49415  0.67762  0.15468  1.0000
  H   H219      1.0  0.44356  0.87183  0.44905  1.0000
  H   H220      1.0  0.39938  0.91595  0.07120  1.0000
  N   N18       1.0  0.26134  0.77330  0.34298  1.0000
  C   C231      1.0  0.27329  0.79911  0.35906  1.0000
  C   C232      1.0  0.26767  0.75205  0.35109  1.0000
  C   C233      1.0  0.29169  0.80395  0.38442  1.0000
  C   C234      1.0  0.28607  0.75620  0.37624  1.0000
  C   C235      1.0  0.29810  0.78232  0.39300  1.0000
  C   C236      1.0  0.24220  0.76887  0.31650  1.0000
  H   H221      1.0  0.26803  0.81581  0.35278  1.0000
  H   H222      1.0  0.25776  0.73135  0.33872  1.0000
  H   H223      1.0  0.30018  0.82395  0.39794  1.0000
  H   H224      1.0  0.29020  0.73888  0.38321  1.0000
  H   H225      1.0  0.31172  0.78550  0.41312  1.0000
  H   H226      1.0  0.22603  0.77565  0.32236  1.0000
  H   H227      1.0  0.25517  0.78149  0.29604  1.0000
  H   H228      1.0  0.22965  0.74551  0.30952  1.0000
  H   H229      1.0  0.37258  0.96514  0.09236  1.0000
  C   C237      1.0  0.41986  0.98635  0.05779  1.0000
  H   H230      1.0  0.49610  0.86167  0.01581  1.0000
  C   C238      1.0  0.37610  0.95844  0.99150  1.0000
  C   C239      1.0  0.21579  0.73230  0.97913  1.0000
  C   C240      1.0  0.43947  0.99235  0.03338  1.0000
  C   C241      1.0  0.25937  0.73052  0.99485  1.0000
  H   H231      1.0  0.26523  0.76711  0.47158  1.0000
  H   H232      1.0  0.37376  0.93773  0.98438  1.0000
  Fe  Fe39      1.0  0.12191  0.67205  0.30617  1.0000
  H   H233      1.0  0.48877  0.70929  0.31640  1.0000
  H   H234      1.0  0.28109  0.74706  0.00406  1.0000
  S   S83       1.0  0.47225  0.80791  0.97911  1.0000
  H   H235      1.0  0.49557  0.73621  0.36577  1.0000
  H   H236      1.0  0.42114  0.87349  0.95965  1.0000
  Fe  Fe40      1.0  0.34006  0.88368  0.54057  1.0000
  S   S84       1.0  0.34768  0.85490  0.57354  1.0000
  S   S85       1.0  0.37113  0.93321  0.54631  1.0000
  Fe  Fe41      1.0  0.29305  0.83055  0.50652  1.0000
  S   S86       1.0  0.29755  0.79806  0.53616  1.0000
  C   C242      1.0  0.22764  0.77429  0.55845  1.0000
  Fe  Fe42      1.0  0.29907  0.82551  0.57706  1.0000
  S   S87       1.0  0.28271  0.80254  0.62460  1.0000
  Fe  Fe43      1.0  0.34569  0.82899  0.53153  1.0000
  H   H237      1.0  0.23892  0.78842  0.57800  1.0000
  S   S88       1.0  0.29128  0.85651  0.54759  1.0000
  H   H238      1.0  0.25844  0.75047  0.58496  1.0000
  H   H239      1.0  0.22970  0.71346  0.57894  1.0000
  Fe  Fe44      1.0  0.17387  0.71195  0.84051  1.0000
  S   S89       1.0  0.20479  0.71069  0.80560  1.0000
  S   S90       1.0  0.18676  0.74584  0.87912  1.0000
  H   H240      1.0  0.46964  0.81998  0.50211  1.0000
  H   H241      1.0  0.40434  0.92422  0.49461  1.0000
  H   H242      1.0  0.22416  0.73694  0.60484  1.0000
  H   H243      1.0  0.43148  0.95567  0.51541  1.0000
  Fe  Fe45      1.0  0.17213  0.70598  0.76921  1.0000
  S   S91       1.0  0.17969  0.73117  0.72307  1.0000
  C   C243      1.0  0.47178  0.90206  0.52238  1.0000
  S   S92       1.0  0.14259  0.71043  0.80397  1.0000
  H   H244      1.0  0.23662  0.78437  0.83725  1.0000
  C   C244      1.0  0.20865  0.75034  0.69583  1.0000
  C   C245      1.0  0.23624  0.75331  0.69945  1.0000
  C   C246      1.0  0.25857  0.76955  0.67765  1.0000
  C   C247      1.0  0.25376  0.78302  0.65184  1.0000
  C   C248      1.0  0.22620  0.78020  0.64838  1.0000
  C   C249      1.0  0.20390  0.76399  0.67017  1.0000
  H   H245      1.0  0.24038  0.74307  0.71903  1.0000
  H   H246      1.0  0.27973  0.77149  0.68068  1.0000
  H   H247      1.0  0.22205  0.79077  0.62918  1.0000
  H   H248      1.0  0.18277  0.76210  0.66718  1.0000
  C   C250      1.0  0.27173  0.78412  0.93540  1.0000
  C   C251      1.0  0.26567  0.76285  0.91247  1.0000
  C   C252      1.0  0.23980  0.75100  0.89494  1.0000
  C   C253      1.0  0.21990  0.76059  0.90000  1.0000
  C   C254      1.0  0.22623  0.78230  0.92249  1.0000
  C   C255      1.0  0.25195  0.79391  0.94029  1.0000
  H   H249      1.0  0.28091  0.75523  0.90844  1.0000
  H   H250      1.0  0.23520  0.73434  0.87763  1.0000
  H   H251      1.0  0.21102  0.78998  0.92640  1.0000
  C   C256      1.0  0.36434  0.96153  0.49460  1.0000
  C   C257      1.0  0.40737  0.82402  0.50768  1.0000
  H   H252      1.0  0.46493  0.68664  0.60362  1.0000
  H   H253      1.0  0.46937  0.72365  0.56460  1.0000
  N   N19       1.0  0.19736  0.78845  0.77749  1.0000
  H   H254      1.0  0.47528  0.93270  0.48765  1.0000
  H   H255      1.0  0.26082  0.80632  0.74145  1.0000
  C   C258      1.0  0.42800  0.93722  0.50009  1.0000
  C   C259      1.0  0.41446  0.85205  0.95008  1.0000
  C   C260      1.0  0.21756  0.79669  0.75427  1.0000
  C   C261      1.0  0.37911  0.96406  0.52242  1.0000
  S   S93       1.0  0.37588  0.81026  0.53096  1.0000
  H   H256      1.0  0.34727  0.94025  0.48702  1.0000
  C   C262      1.0  0.20414  0.76731  0.50869  1.0000
  H   H257      1.0  0.46112  0.86932  0.55768  1.0000
  N   N20       1.0  0.43480  0.84519  0.93996  1.0000
  C   C263      1.0  0.48245  0.73045  0.58559  1.0000
  H   H258      1.0  0.22215  0.80737  0.53490  1.0000
  H   H259      1.0  0.40823  0.98335  0.95641  1.0000
  H   H260      1.0  0.20754  0.70743  0.53036  1.0000
  C   C264      1.0  0.46577  0.86755  0.94058  1.0000
  H   H261      1.0  0.36862  0.83655  0.95726  1.0000
  H   H262      1.0  0.47102  0.88138  0.96172  1.0000
  H   H263      1.0  0.40180  0.90164  0.54745  1.0000
  H   H264      1.0  0.21193  0.79918  0.73067  1.0000
  C   C265      1.0  0.42143  0.90177  0.54025  1.0000
  H   H265      1.0  0.25643  0.81037  0.95778  1.0000
  H   H266      1.0  0.15590  0.76176  0.75722  1.0000
  C   C266      1.0  0.39676  0.79663  0.92693  1.0000
  H   H267      1.0  0.39019  0.77490  0.91828  1.0000
  S   S94       1.0  0.30382  0.79713  0.95786  1.0000
  C   C267      1.0  0.37590  0.80339  0.93738  1.0000
  H   H268      1.0  0.35289  0.78709  0.93676  1.0000
  S   S95       1.0  0.34131  0.85930  0.49824  1.0000
  C   C268      1.0  0.45387  0.82665  0.49689  1.0000
  N   N21       1.0  0.43756  0.91892  0.51599  1.0000
  H   H269      1.0  0.41603  0.86914  0.57393  1.0000
  C   C269      1.0  0.38476  0.83126  0.94895  1.0000
  H   H270      1.0  0.49096  0.90154  0.51442  1.0000
  C   C270      1.0  0.25222  0.79626  0.79024  1.0000
  H   H271      1.0  0.47983  0.85744  0.94147  1.0000
  H   H272      1.0  0.18797  0.77726  0.82540  1.0000
  H   H273      1.0  0.44244  0.81239  0.92066  1.0000
  C   C271      1.0  0.24523  0.80063  0.76022  1.0000
  C   C272      1.0  0.20021  0.73917  0.50736  1.0000
  C   C273      1.0  0.46260  0.91943  0.50711  1.0000
  H   H274      1.0  0.19735  0.77575  0.48939  1.0000
  H   H275      1.0  0.42326  0.79902  0.53179  1.0000
  N   N22       1.0  0.22368  0.74666  0.55704  1.0000
  C   C274      1.0  0.23443  0.73624  0.58258  1.0000
  C   C275      1.0  0.20406  0.78418  0.80701  1.0000
  C   C276      1.0  0.21027  0.72915  0.53186  1.0000
  H   H276      1.0  0.16905  0.80058  0.75546  1.0000
  H   H277      1.0  0.15539  0.78114  0.79141  1.0000
  C   C277      1.0  0.21808  0.78508  0.53427  1.0000
  C   C278      1.0  0.45504  0.88396  0.54665  1.0000
  C   C279      1.0  0.42629  0.81798  0.92821  1.0000
  H   H278      1.0  0.27342  0.79877  0.79513  1.0000
  C   C280      1.0  0.42971  0.88379  0.55571  1.0000
  C   C281      1.0  0.42764  0.81489  0.51368  1.0000
  C   C282      1.0  0.16798  0.78279  0.77011  1.0000
  C   C283      1.0  0.23159  0.78815  0.81386  1.0000
  H   H279      1.0  0.47148  0.88147  0.91954  1.0000
  C   C284      1.0  0.40127  0.99205  0.53174  1.0000
  C   C285      1.0  0.48005  0.70976  0.60733  1.0000
  H   H280      1.0  0.41285  0.99439  0.55320  1.0000
  H   H281      1.0  0.49572  0.70286  0.65079  1.0000
  H   H282      1.0  0.21440  0.72010  0.95827  1.0000
  H   H283      1.0  0.19018  0.72557  0.48704  1.0000
  C   C286      1.0  0.49743  0.71888  0.63389  1.0000
  C   C287      1.0  0.41305  0.84440  0.48414  1.0000
  H   H284      1.0  0.26249  0.72837  0.96964  1.0000
  H   H285      1.0  0.39750  0.85143  0.47926  1.0000
  C   C288      1.0  0.39570  0.98443  0.97567  1.0000
  H   H286      1.0  0.17815  0.73569  0.96667  1.0000
  H   H287      1.0  0.43973  0.94618  0.47787  1.0000
  S   S96       1.0  0.54536  0.14186  0.44725  1.0000
  Fe  Fe46      1.0  0.65972  0.11878  0.04302  1.0000
  H   H288      1.0  0.54336  0.23975  0.08556  1.0000
  S   S97       1.0  0.61060  0.09858  0.04066  1.0000
  Fe  Fe47      1.0  0.71901  0.14974  0.07849  1.0000
  S   S98       1.0  0.74116  0.13837  0.04042  1.0000
  S   S99       1.0  0.73920  0.18210  0.11971  1.0000
  Fe  Fe48      1.0  0.71709  0.15158  0.00690  1.0000
  H   H289      1.0  0.54928  0.32851  0.24824  1.0000
  Fe  Fe49      1.0  0.69985  0.09359  0.03916  1.0000
  S   S100      1.0  0.69554  0.04818  0.03833  1.0000
  S   S101      1.0  0.69675  0.16493  0.04461  1.0000
  S   S102      1.0  0.67974  0.10412  0.07972  1.0000
  Fe  Fe50      1.0  0.85260  0.26510  0.26981  1.0000
  S   S103      1.0  0.88221  0.26023  0.30417  1.0000
  S   S104      1.0  0.83478  0.23090  0.22987  1.0000
  C   C289      1.0  0.59304  0.14108  0.47104  1.0000
  H   H290      1.0  0.58492  0.03586  0.02327  1.0000
  Fe  Fe51      1.0  0.91193  0.30906  0.30244  1.0000
  C   C290      1.0  0.52670  0.30403  0.31104  1.0000
  Fe  Fe52      1.0  0.85803  0.26917  0.34164  1.0000
  S   S105      1.0  0.84895  0.24148  0.38537  1.0000
  H   H291      1.0  0.63173  0.16124  0.03655  1.0000
  S   S106      1.0  0.82643  0.27086  0.30777  1.0000
  H   H292      1.0  0.55118  0.08024  0.02635  1.0000
  H   H293      1.0  0.78713  0.18080  0.47097  1.0000
  C   C291      1.0  0.76562  0.19910  0.44461  1.0000
  C   C292      1.0  0.78894  0.19485  0.45181  1.0000
  C   C293      1.0  0.81457  0.20856  0.43384  1.0000
  C   C294      1.0  0.81710  0.22653  0.40852  1.0000
  C   C295      1.0  0.79383  0.23088  0.40144  1.0000
  C   C296      1.0  0.76824  0.21721  0.41942  1.0000
  H   H294      1.0  0.82341  0.19616  0.28204  1.0000
  H   H295      1.0  0.83245  0.20497  0.43934  1.0000
  H   H296      1.0  0.79550  0.24460  0.38200  1.0000
  H   H297      1.0  0.75030  0.22066  0.41374  1.0000
  C   C297      1.0  0.80829  0.21812  0.19910  1.0000
  C   C298      1.0  0.78967  0.22935  0.19391  1.0000
  C   C299      1.0  0.76876  0.21799  0.16969  1.0000
  C   C300      1.0  0.76595  0.19519  0.15024  1.0000
  C   C301      1.0  0.78449  0.18389  0.15552  1.0000
  C   C302      1.0  0.80540  0.19525  0.17973  1.0000
  H   H298      1.0  0.79144  0.24688  0.20845  1.0000
  H   H299      1.0  0.75464  0.22701  0.16599  1.0000
  H   H300      1.0  0.78270  0.16631  0.14105  1.0000
  H   H301      1.0  0.81950  0.18621  0.18346  1.0000
  C   C303      1.0  0.76842  0.24437  0.01322  1.0000
  C   C304      1.0  0.66890  0.01716  0.01713  1.0000
  H   H302      1.0  0.52221  0.17191  0.07145  1.0000
  H   H303      1.0  0.82864  0.19389  0.05053  1.0000
  H   H304      1.0  0.62918  0.00930  0.11476  1.0000
  H   H305      1.0  0.65523  0.03911  0.09083  1.0000
  N   N23       1.0  0.61690  0.00690  0.06746  1.0000
  C   C305      1.0  0.59327  0.11889  0.03210  1.0000
  H   H306      1.0  0.56477  0.20589  0.47596  1.0000
  H   H307      1.0  0.74513  0.23041  0.01974  1.0000
  H   H308      1.0  0.60217  0.14755  0.44798  1.0000
  C   C306      1.0  0.59439  0.16480  0.02287  1.0000
  C   C307      1.0  0.56457  0.14976  0.01552  1.0000
  H   H309      1.0  0.77733  0.26623  0.02419  1.0000
  S   S107      1.0  0.67818  0.10642  0.00283  1.0000
  H   H310      1.0  0.61216  0.01947  0.47491  1.0000
  S   S108      1.0  0.73263  0.18226  0.46592  1.0000
  C   C308      1.0  0.54899  0.11922  0.01703  1.0000
  C   C309      1.0  0.77203  0.19247  0.27292  1.0000
  H   H311      1.0  0.78317  0.21648  0.26906  1.0000
  H   H312      1.0  0.65359  0.14718  0.98954  1.0000
  H   H313      1.0  0.77689  0.18242  0.25275  1.0000
  H   H314      1.0  0.52418  0.20126  0.04832  1.0000
  C   C310      1.0  0.82053  0.18402  0.32994  1.0000
  H   H315      1.0  0.79532  0.19941  0.08707  1.0000
  H   H316      1.0  0.52602  0.10745  0.01143  1.0000
  N   N24       1.0  0.50693  0.19739  0.09431  1.0000
  C   C311      1.0  0.65065  0.01939  0.99516  1.0000
  C   C312      1.0  0.56331  0.10387  0.02541  1.0000
  C   C313      1.0  0.80328  0.17543  0.35658  1.0000
  H   H317      1.0  0.65232  0.00430  0.08725  1.0000
  C   C314      1.0  0.77578  0.17280  0.35578  1.0000
  H   H318      1.0  0.74472  0.17724  0.32790  1.0000
  H   H319      1.0  0.62260  0.04979  0.06351  1.0000
  H   H320      1.0  0.49982  0.21582  0.30360  1.0000
  Fe  Fe53      1.0  0.86004  0.31912  0.30516  1.0000
  C   C315      1.0  0.79798  0.20752  0.06343  1.0000
  S   S109      1.0  0.54801  0.16983  0.00302  1.0000
  C   C316      1.0  0.50489  0.29647  0.33333  1.0000
  N   N25       1.0  0.78510  0.23056  0.02326  1.0000
  H   H321      1.0  0.81180  0.17216  0.37820  1.0000
  C   C317      1.0  0.81666  0.20446  0.04293  1.0000
  C   C318      1.0  0.58923  0.01943  0.03293  1.0000
  H   H322      1.0  0.84248  0.18747  0.33077  1.0000
  H   H323      1.0  0.74815  0.18371  0.27323  1.0000
  C   C319      1.0  0.63935  0.01525  0.09142  1.0000
  H   H324      1.0  0.59010  0.04639  0.44966  1.0000
  S   S110      1.0  0.50503  0.29648  0.20136  1.0000
  C   C320      1.0  0.78221  0.22064  0.05312  1.0000
  C   C321      1.0  0.81972  0.21494  0.01260  1.0000
  C   C322      1.0  0.60875  0.14944  0.03103  1.0000
  H   H325      1.0  0.76276  0.16728  0.37680  1.0000
  C   C323      1.0  0.80973  0.18928  0.30256  1.0000
  C   C324      1.0  0.51103  0.18440  0.06599  1.0000
  S   S111      1.0  0.88428  0.31338  0.26523  1.0000
  H   H326      1.0  0.60651  0.18844  0.02188  1.0000
  S   S112      1.0  0.88958  0.31785  0.34189  1.0000
  C   C325      1.0  0.52564  0.22619  0.10118  1.0000
  N   N26       1.0  0.78255  0.18623  0.30180  1.0000
  C   C326      1.0  0.76580  0.17861  0.32809  1.0000
  Fe  Fe54      1.0  0.50064  0.14747  0.98811  1.0000
  H   H327      1.0  0.65308  0.04052  0.99006  1.0000
  H   H328      1.0  0.76746  0.22260  0.06913  1.0000
  C   C327      1.0  0.61068  0.02723  0.05572  1.0000
  H   H329      1.0  0.53427  0.28878  0.30614  1.0000
  H   H330      1.0  0.57382  0.32738  0.27658  1.0000
  Fe  Fe55      1.0  0.50121  0.13712  0.45757  1.0000
  S   S113      1.0  0.96144  0.33113  0.29483  1.0000
  C   C328      1.0  0.56482  0.13599  0.47701  1.0000
  C   C329      1.0  0.80392  0.22831  0.00321  1.0000
  H   H331      1.0  0.53540  0.26206  0.13249  1.0000
  H   H332      1.0  0.83404  0.21257  0.99631  1.0000
  C   C330      1.0  0.52150  0.23888  0.12785  1.0000
  C   C331      1.0  0.59179  0.04616  0.47476  1.0000
  H   H333      1.0  0.76892  0.24690  0.98752  1.0000
  N   N27       1.0  0.53756  0.32972  0.29494  1.0000
  H   H334      1.0  0.80649  0.23642  0.97959  1.0000
  N   N28       1.0  0.79405  0.23928  0.55464  1.0000
  Fe  Fe56      1.0  0.66247  0.13197  0.54768  1.0000
  C   C332      1.0  0.60217  0.04876  0.57271  1.0000
  S   S114      1.0  0.61896  0.12918  0.55616  1.0000
  Fe  Fe57      1.0  0.72175  0.15300  0.58093  1.0000
  S   S115      1.0  0.73741  0.13490  0.54224  1.0000
  S   S116      1.0  0.74067  0.17890  0.62671  1.0000
  Fe  Fe58      1.0  0.71758  0.15370  0.50930  1.0000
  H   H335      1.0  0.55734  0.09733  0.94539  1.0000
  Fe  Fe59      1.0  0.69182  0.09471  0.54226  1.0000
  S   S117      1.0  0.67548  0.04540  0.54718  1.0000
  S   S118      1.0  0.70485  0.17399  0.54771  1.0000
  S   S119      1.0  0.67797  0.11179  0.58306  1.0000
  Fe  Fe60      1.0  0.85526  0.27252  0.77069  1.0000
  S   S120      1.0  0.88590  0.26624  0.80233  1.0000
  S   S121      1.0  0.84684  0.25050  0.72219  1.0000
  Fe  Fe61      1.0  0.84854  0.31138  0.81951  1.0000
  S   S122      1.0  0.87766  0.30685  0.85417  1.0000
  Fe  Fe62      1.0  0.90758  0.31438  0.81380  1.0000
  S   S123      1.0  0.87925  0.32140  0.77942  1.0000
  Fe  Fe63      1.0  0.85385  0.25954  0.84052  1.0000
  S   S124      1.0  0.84024  0.22285  0.87588  1.0000
  C   C333      1.0  0.55323  0.12761  0.50686  1.0000
  S   S125      1.0  0.82229  0.26306  0.80853  1.0000
  C   C334      1.0  0.59166  0.19106  0.55338  1.0000
  C   C335      1.0  0.60352  0.12405  0.95428  1.0000
  C   C336      1.0  0.76176  0.19359  0.94126  1.0000
  C   C337      1.0  0.77889  0.18033  0.94273  1.0000
  C   C338      1.0  0.80291  0.18955  0.92261  1.0000
  C   C339      1.0  0.81005  0.21209  0.90096  1.0000
  C   C340      1.0  0.79292  0.22534  0.89959  1.0000
  C   C341      1.0  0.76891  0.21611  0.91963  1.0000
  H   H336      1.0  0.61395  0.21123  0.47890  1.0000
  H   H337      1.0  0.81600  0.17912  0.92376  1.0000
  H   H338      1.0  0.79819  0.24275  0.88309  1.0000
  H   H339      1.0  0.75588  0.22659  0.91837  1.0000
  C   C342      1.0  0.81680  0.23060  0.69619  1.0000
  C   C343      1.0  0.78909  0.22686  0.70148  1.0000
  C   C344      1.0  0.76610  0.21063  0.68029  1.0000
  C   C345      1.0  0.77027  0.19773  0.65352  1.0000
  C   C346      1.0  0.79793  0.20126  0.64838  1.0000
  C   C347      1.0  0.82096  0.21763  0.66947  1.0000
  H   H340      1.0  0.78538  0.23660  0.72183  1.0000
  H   H341      1.0  0.74490  0.20821  0.68459  1.0000
  H   H342      1.0  0.80166  0.19163  0.62797  1.0000
  H   H343      1.0  0.84221  0.22024  0.66504  1.0000
  C   C348      1.0  0.55505  0.19381  0.52426  1.0000
  H   H344      1.0  0.79774  0.23632  0.50540  1.0000
  C   C349      1.0  0.60421  0.03118  0.48883  1.0000
  H   H345      1.0  0.64171  0.19749  0.95248  1.0000
  H   H346      1.0  0.77522  0.20207  0.52514  1.0000
  C   C350      1.0  0.77622  0.23976  0.57732  1.0000
  H   H347      1.0  0.60586  0.07001  0.58207  1.0000
  C   C351      1.0  0.59839  0.13101  0.52496  1.0000
  C   C352      1.0  0.56990  0.12503  0.53068  1.0000
  C   C353      1.0  0.57229  0.14323  0.94007  1.0000
  H   H348      1.0  0.87173  0.21768  0.74985  1.0000
  H   H349      1.0  0.85993  0.17924  0.74590  1.0000
  H   H350      1.0  0.56084  0.11893  0.55381  1.0000
  H   H351      1.0  0.76230  0.22731  0.51847  1.0000
  H   H352      1.0  0.53162  0.12361  0.51181  1.0000
  C   C354      1.0  0.61007  0.19997  0.52749  1.0000
  N   N29       1.0  0.56452  0.18807  0.55149  1.0000
  H   H353      1.0  0.59316  0.19017  0.93866  1.0000
  H   H354      1.0  0.97134  0.31421  0.85201  1.0000
  H   H355      1.0  0.55539  0.17538  0.59940  1.0000
  H   H356      1.0  0.62189  0.04742  0.57886  1.0000
  C   C355      1.0  0.57596  0.11932  0.94604  1.0000
  C   C356      1.0  0.66284  0.01446  0.52181  1.0000
  C   C357      1.0  0.78179  0.22560  0.52454  1.0000
  C   C358      1.0  0.60673  0.03168  0.52119  1.0000
  H   H357      1.0  0.52553  0.15587  0.57270  1.0000
  C   C359      1.0  0.83497  0.26234  0.58942  1.0000
  N   N30       1.0  0.59795  0.04731  0.53896  1.0000
  C   C360      1.0  0.60982  0.13861  0.49495  1.0000
  H   H358      1.0  0.67248  0.17940  0.96601  1.0000
  H   H359      1.0  0.75301  0.23003  0.57334  1.0000
  H   H360      1.0  0.55082  0.13999  0.93490  1.0000
  H   H361      1.0  0.61600  0.01976  0.53208  1.0000
  C   C361      1.0  0.81704  0.26348  0.61244  1.0000
  H   H362      1.0  0.59891  0.18558  0.57459  1.0000
  S   S126      1.0  0.73207  0.18393  0.96677  1.0000
  H   H363      1.0  0.57155  0.07238  0.48264  1.0000
  H   H364      1.0  0.87393  0.19751  0.78239  1.0000
  N   N31       1.0  0.83106  0.18898  0.77060  1.0000
  C   C362      1.0  0.82470  0.19145  0.80087  1.0000
  C   C363      1.0  0.81029  0.18112  0.74804  1.0000
  C   C364      1.0  0.79695  0.18608  0.80917  1.0000
  C   C365      1.0  0.78235  0.17574  0.75547  1.0000
  C   C366      1.0  0.77573  0.17836  0.78626  1.0000
  C   C367      1.0  0.86062  0.19613  0.76181  1.0000
  H   H365      1.0  0.84122  0.19797  0.81875  1.0000
  H   H366      1.0  0.81557  0.17992  0.72394  1.0000
  H   H367      1.0  0.79219  0.18850  0.83318  1.0000
  H   H368      1.0  0.76623  0.17027  0.73730  1.0000
  H   H369      1.0  0.75432  0.17475  0.79232  1.0000
  H   H370      1.0  0.53337  0.19097  0.52271  1.0000
  H   H371      1.0  0.57605  0.07183  0.53979  1.0000
  S   S127      1.0  0.67339  0.11263  0.50719  1.0000
  H   H372      1.0  0.82580  0.27225  0.63530  1.0000
  C   C368      1.0  0.57283  0.20259  0.49789  1.0000
  N   N32       1.0  0.62681  0.15183  0.95622  1.0000
  H   H373      1.0  0.83701  0.24889  0.54279  1.0000
  C   C369      1.0  0.82303  0.25002  0.56048  1.0000
  H   H374      1.0  0.85787  0.27056  0.59418  1.0000
  C   C370      1.0  0.78749  0.25216  0.60638  1.0000
  C   C371      1.0  0.62344  0.17543  0.95028  1.0000
  C   C372      1.0  0.60047  0.20561  0.49955  1.0000
  H   H375      1.0  0.77309  0.25177  0.62453  1.0000
  H   H376      1.0  0.60606  0.10544  0.96005  1.0000
  H   H377      1.0  0.58286  0.03056  0.58413  1.0000
  H   H378      1.0  0.63174  0.14312  0.49026  1.0000
  H   H379      1.0  0.77364  0.16299  0.95929  1.0000
  C   C373      1.0  0.54474  0.17758  0.57819  1.0000
  H   H380      1.0  0.53676  0.19301  0.58340  1.0000
  C   C374      1.0  0.58431  0.06068  0.52552  1.0000
  C   C375      1.0  0.59613  0.17148  0.94220  1.0000
  H   H381      1.0  0.63108  0.20117  0.52874  1.0000
  C   C376      1.0  0.65518  0.15598  0.96576  1.0000
  C   C377      1.0  0.66838  0.01709  0.48982  1.0000
  H   H382      1.0  0.68107  0.03859  0.47966  1.0000
  H   H383      1.0  0.66238  0.14443  0.94957  1.0000
  C   C378      1.0  0.58141  0.06073  0.49321  1.0000
  Fe  Fe64      1.0  0.73402  0.54611  0.16805  1.0000
  S   S128      1.0  0.73478  0.51328  0.13521  1.0000
  S   S129      1.0  0.76091  0.56584  0.21185  1.0000
  Fe  Fe65      1.0  0.69145  0.55559  0.12828  1.0000
  S   S130      1.0  0.68936  0.52369  0.09205  1.0000
  S   S131      1.0  0.66408  0.57743  0.11886  1.0000
  Fe  Fe66      1.0  0.68612  0.49549  0.13276  1.0000
  S   S132      1.0  0.65249  0.44731  0.12849  1.0000
  Fe  Fe67      1.0  0.73795  0.54363  0.09655  1.0000
  S   S133      1.0  0.77119  0.56118  0.05609  1.0000
  S   S134      1.0  0.68510  0.52598  0.16849  1.0000
  S   S135      1.0  0.74038  0.57798  0.12990  1.0000
  S   S136      1.0  0.54616  0.38196  0.22197  1.0000
  Fe  Fe68      1.0  0.84985  0.52593  0.33535  1.0000
  S   S137      1.0  0.82297  0.49953  0.37614  1.0000
  S   S138      1.0  0.82930  0.51491  0.28690  1.0000
  Fe  Fe69      1.0  0.90769  0.55287  0.37230  1.0000
  S   S139      1.0  0.88397  0.52836  0.41573  1.0000
  S   S140      1.0  0.95779  0.57684  0.37757  1.0000
  Fe  Fe70      1.0  0.85918  0.48973  0.38401  1.0000
  S   S141      1.0  0.85056  0.44451  0.39748  1.0000
  Fe  Fe71      1.0  0.84953  0.54012  0.40487  1.0000
  S   S142      1.0  0.82973  0.55930  0.43940  1.0000
  S   S143      1.0  0.88437  0.51326  0.34172  1.0000
  S   S144      1.0  0.87495  0.56769  0.36313  1.0000
  S   S145      1.0  0.84922  0.35547  0.29904  1.0000
  H   H384      1.0  0.78211  0.48553  0.99834  1.0000
  C   C379      1.0  0.85721  0.38246  0.32773  1.0000
  C   C380      1.0  0.85288  0.37534  0.35931  1.0000
  C   C381      1.0  0.85256  0.39529  0.38086  1.0000
  C   C382      1.0  0.85686  0.42255  0.37104  1.0000
  C   C383      1.0  0.86332  0.43044  0.33983  1.0000
  C   C384      1.0  0.86335  0.41041  0.31828  1.0000
  H   H385      1.0  0.84808  0.35384  0.36688  1.0000
  H   H386      1.0  0.84780  0.38910  0.40502  1.0000
  H   H387      1.0  0.86684  0.45136  0.33195  1.0000
  H   H388      1.0  0.86691  0.41615  0.29392  1.0000
  C   C385      1.0  0.71019  0.66597  0.18895  1.0000
  H   H389      1.0  0.59834  0.43496  0.09031  1.0000
  H   H390      1.0  0.96829  0.60948  0.31872  1.0000
  C   C386      1.0  0.78338  0.54714  0.02504  1.0000
  H   H391      1.0  0.79230  0.37449  0.36996  1.0000
  C   C387      1.0  0.80431  0.43986  0.31377  1.0000
  C   C388      1.0  0.78429  0.36637  0.34608  1.0000
  C   C389      1.0  0.89773  0.62065  0.42341  1.0000
  C   C390      1.0  0.77620  0.51779  0.02325  1.0000
  C   C391      1.0  0.55988  0.33697  0.27109  1.0000
  H   H392      1.0  0.96018  0.65612  0.38132  1.0000
  H   H393      1.0  0.80777  0.58930  0.00307  1.0000
  H   H394      1.0  0.76182  0.50239  0.04042  1.0000
  C   C392      1.0  0.77723  0.54964  0.23421  1.0000
  C   C393      1.0  0.77687  0.52419  0.22449  1.0000
  C   C394      1.0  0.79250  0.51360  0.24128  1.0000
  C   C395      1.0  0.80826  0.52802  0.26818  1.0000
  C   C396      1.0  0.80805  0.55307  0.27831  1.0000
  C   C397      1.0  0.79272  0.56389  0.26129  1.0000
  H   H395      1.0  0.76508  0.51303  0.20369  1.0000
  H   H396      1.0  0.79251  0.49419  0.23327  1.0000
  H   H397      1.0  0.82014  0.56443  0.29890  1.0000
  H   H398      1.0  0.79317  0.58362  0.26897  1.0000
  C   C398      1.0  0.62391  0.42889  0.15555  1.0000
  C   C399      1.0  0.62320  0.44185  0.18364  1.0000
  C   C400      1.0  0.59953  0.42691  0.20408  1.0000
  C   C401      1.0  0.57616  0.39916  0.19638  1.0000
  C   C402      1.0  0.57692  0.38612  0.16838  1.0000
  C   C403      1.0  0.60083  0.40086  0.14818  1.0000
  H   H399      1.0  0.64091  0.46332  0.18967  1.0000
  H   H400      1.0  0.59916  0.43711  0.22575  1.0000
  H   H401      1.0  0.55909  0.36470  0.16225  1.0000
  H   H402      1.0  0.60129  0.39061  0.12656  1.0000
  C   C404      1.0  0.64819  0.59238  0.14411  1.0000
  C   C405      1.0  0.63148  0.60371  0.13119  1.0000
  C   C406      1.0  0.62066  0.61819  0.14985  1.0000
  C   C407      1.0  0.62667  0.62175  0.18172  1.0000
  C   C408      1.0  0.64250  0.60948  0.19478  1.0000
  C   C409      1.0  0.65304  0.59473  0.17619  1.0000
  H   H403      1.0  0.62742  0.60190  0.10643  1.0000
  H   H404      1.0  0.76019  0.35299  0.34634  1.0000
  H   H405      1.0  0.61924  0.52914  0.16054  1.0000
  H   H406      1.0  0.66557  0.58591  0.18661  1.0000
  N   N33       1.0  0.79364  0.39081  0.32435  1.0000
  C   C410      1.0  0.79922  0.38753  0.29401  1.0000
  C   C411      1.0  0.79583  0.41646  0.33430  1.0000
  C   C412      1.0  0.80801  0.41061  0.27294  1.0000
  C   C413      1.0  0.70059  0.66179  0.13472  1.0000
  H   H407      1.0  0.72219  0.62732  0.13448  1.0000
  C   C414      1.0  0.94479  0.64193  0.39872  1.0000
  H   H408      1.0  0.79810  0.36740  0.28627  1.0000
  C   C415      1.0  0.52654  0.34793  0.29975  1.0000
  C   C416      1.0  0.98984  0.60064  0.35594  1.0000
  H   H409      1.0  0.81335  0.40823  0.24920  1.0000
  H   H410      1.0  0.79197  0.41932  0.35848  1.0000
  S   S146      1.0  0.61813  0.64409  0.20557  1.0000
  H   H411      1.0  0.80651  0.46034  0.32174  1.0000
  C   C417      1.0  0.72743  0.63931  0.15698  1.0000
  H   H412      1.0  0.80341  0.58738  0.47297  1.0000
  N   N34       1.0  0.59661  0.46763  0.11793  1.0000
  C   C418      1.0  0.61212  0.49655  0.12602  1.0000
  C   C419      1.0  0.57460  0.44798  0.13658  1.0000
  C   C420      1.0  0.60652  0.50625  0.15404  1.0000
  C   C421      1.0  0.56842  0.45692  0.16478  1.0000
  C   C422      1.0  0.58468  0.48623  0.17362  1.0000
  C   C423      1.0  0.60275  0.45784  0.08846  1.0000
  H   H413      1.0  0.62911  0.51230  0.11094  1.0000
  H   H414      1.0  0.56227  0.42504  0.13020  1.0000
  Fe  Fe72      1.0  0.50588  0.33865  0.20986  1.0000
  H   H415      1.0  0.55172  0.44097  0.18005  1.0000
  S   S147      1.0  0.56049  0.65690  0.24387  1.0000
  H   H416      1.0  0.78618  0.52212  0.09574  1.0000
  H   H417      1.0  0.58931  0.45930  0.06958  1.0000
  Fe  Fe73      1.0  0.58684  0.66224  0.20077  1.0000
  C   C424      1.0  0.81058  0.43694  0.28298  1.0000
  C   C425      1.0  0.78777  0.50825  0.99923  1.0000
  C   C426      1.0  0.91739  0.63941  0.40126  1.0000
  H   H418      1.0  0.60858  0.62751  0.13940  1.0000
  H   H419      1.0  0.91126  0.65171  0.38591  1.0000
  H   H420      1.0  0.62620  0.47126  0.08228  1.0000
  C   C427      1.0  0.80204  0.56657  0.00213  1.0000
  H   H421      1.0  0.58048  0.49339  0.19567  1.0000
  Fe  Fe74      1.0  0.52292  0.64540  0.21183  1.0000
  C   C428      1.0  0.95205  0.62548  0.41838  1.0000
  H   H422      1.0  0.81774  0.45527  0.26713  1.0000
  H   H423      1.0  0.64720  0.61201  0.21942  1.0000
  C   C429      1.0  0.94035  0.58899  0.45913  1.0000
  H   H424      1.0  0.57433  0.36105  0.26895  1.0000
  C   C430      1.0  0.50433  0.34078  0.32148  1.0000
  S   S148      1.0  0.54810  0.64738  0.16928  1.0000
  H   H425      1.0  0.71909  0.66104  0.20923  1.0000
  C   C431      1.0  0.98902  0.61379  0.32804  1.0000
  N   N35       1.0  0.81738  0.55088  0.12836  1.0000
  C   C432      1.0  0.82902  0.54298  0.15230  1.0000
  C   C433      1.0  0.81152  0.57315  0.13207  1.0000
  C   C434      1.0  0.83577  0.55804  0.18062  1.0000
  C   C435      1.0  0.81771  0.58845  0.16017  1.0000
  C   C436      1.0  0.83011  0.58095  0.18446  1.0000
  C   C437      1.0  0.81021  0.53500  0.09876  1.0000
  H   H426      1.0  0.83293  0.52481  0.14978  1.0000
  H   H427      1.0  0.80165  0.57895  0.11337  1.0000
  H   H428      1.0  0.84446  0.55145  0.19987  1.0000
  H   H429      1.0  0.81207  0.60538  0.16348  1.0000
  H   H430      1.0  0.83422  0.59210  0.20668  1.0000
  H   H431      1.0  0.81941  0.55063  0.07906  1.0000
  H   H432      1.0  0.81890  0.51979  0.09723  1.0000
  C   C438      1.0  0.98998  0.35109  0.32202  1.0000
  C   C439      1.0  0.98527  0.34823  0.35412  1.0000
  H   H433      1.0  0.70162  0.65332  0.11207  1.0000
  H   H434      1.0  0.72050  0.62246  0.17551  1.0000
  H   H435      1.0  0.98410  0.54259  0.33147  1.0000
  C   C440      1.0  0.81318  0.55692  0.97778  1.0000
  H   H436      1.0  0.92102  0.57080  0.47068  1.0000
  C   C441      1.0  0.80850  0.54937  0.47455  1.0000
  H   H437      1.0  0.75134  0.65419  0.15839  1.0000
  H   H438      1.0  0.97327  0.62727  0.41599  1.0000
  H   H439      1.0  0.88988  0.58928  0.45914  1.0000
  H   H440      1.0  0.53442  0.36782  0.28624  1.0000
  N   N36       1.0  0.71226  0.65598  0.16025  1.0000
  H   H441      1.0  0.79349  0.35224  0.33945  1.0000
  H   H442      1.0  0.87621  0.61822  0.42543  1.0000
  N   N37       1.0  0.93231  0.60645  0.43938  1.0000
  H   H443      1.0  0.91680  0.52020  0.98233  1.0000
  H   H444      1.0  0.95041  0.57880  0.44484  1.0000
  C   C442      1.0  0.90558  0.60421  0.44239  1.0000
  H   H445      1.0  0.87119  0.52276  0.98305  1.0000
  H   H446      1.0  0.96335  0.33511  0.36297  1.0000
  H   H447      1.0  0.70085  0.49655  0.46466  1.0000
  H   H448      1.0  0.95609  0.60308  0.47719  1.0000
  Fe  Fe75      1.0  0.71230  0.52451  0.67238  1.0000
  S   S149      1.0  0.70143  0.49270  0.63306  1.0000
  S   S150      1.0  0.72313  0.51334  0.71987  1.0000
  Fe  Fe76      1.0  0.69323  0.56176  0.63592  1.0000
  S   S151      1.0  0.68194  0.53277  0.59335  1.0000
  S   S152      1.0  0.68874  0.60308  0.63765  1.0000
  Fe  Fe77      1.0  0.66091  0.49547  0.62751  1.0000
  S   S153      1.0  0.61676  0.45613  0.61581  1.0000
  Fe  Fe78      1.0  0.72377  0.53207  0.60145  1.0000
  S   S154      1.0  0.75245  0.52564  0.56483  1.0000
  S   S155      1.0  0.66973  0.52432  0.66906  1.0000
  S   S156      1.0  0.73703  0.56402  0.64184  1.0000
  H   H449      1.0  0.60582  0.63513  0.76930  1.0000
  Fe  Fe79      1.0  0.85461  0.55225  0.83528  1.0000
  S   S157      1.0  0.82921  0.50706  0.85555  1.0000
  S   S158      1.0  0.84236  0.57201  0.79500  1.0000
  Fe  Fe80      1.0  0.90971  0.56768  0.87339  1.0000
  S   S159      1.0  0.88789  0.52387  0.89715  1.0000
  S   S160      1.0  0.95682  0.60251  0.88428  1.0000
  Fe  Fe81      1.0  0.87048  0.50509  0.84989  1.0000
  S   S161      1.0  0.87968  0.47347  0.82300  1.0000
  Fe  Fe82      1.0  0.84828  0.52946  0.90182  1.0000
  S   S162      1.0  0.82102  0.51424  0.94710  1.0000
  S   S163      1.0  0.89443  0.54880  0.82625  1.0000
  S   S164      1.0  0.87158  0.57490  0.88149  1.0000
  C   C443      1.0  0.92181  0.43041  0.85673  1.0000
  H   H450      1.0  0.96585  0.41021  0.82220  1.0000
  C   C444      1.0  0.84124  0.37430  0.83245  1.0000
  C   C445      1.0  0.83124  0.38890  0.85180  1.0000
  C   C446      1.0  0.84257  0.41929  0.84913  1.0000
  C   C447      1.0  0.86369  0.43517  0.82671  1.0000
  C   C448      1.0  0.87328  0.42048  0.80696  1.0000
  C   C449      1.0  0.86234  0.39022  0.81001  1.0000
  H   H451      1.0  0.81478  0.37665  0.86909  1.0000
  H   H452      1.0  0.83499  0.43034  0.86443  1.0000
  H   H453      1.0  0.88957  0.43263  0.78948  1.0000
  H   H454      1.0  0.86993  0.37915  0.79474  1.0000
  H   H455      1.0  0.78305  0.63291  0.71070  1.0000
  H   H456      1.0  0.93197  0.62673  0.92605  1.0000
  H   H457      1.0  0.96521  0.57590  0.82810  1.0000
  C   C450      1.0  0.77495  0.53609  0.53060  1.0000
  Fe  Fe83      1.0  0.52550  0.66712  0.68188  1.0000
  H   H458      1.0  0.77924  0.60459  0.75805  1.0000
  H   H459      1.0  0.73810  0.62219  0.68168  1.0000
  S   S165      1.0  0.54069  0.35782  0.71506  1.0000
  C   C451      1.0  0.78172  0.56123  0.51343  1.0000
  H   H460      1.0  0.72524  0.46647  0.52068  1.0000
  C   C452      1.0  0.89172  0.54171  0.97636  1.0000
  H   H461      1.0  0.68723  0.55402  0.74672  1.0000
  H   H462      1.0  0.77409  0.57566  0.52140  1.0000
  C   C453      1.0  0.75715  0.52875  0.73898  1.0000
  C   C454      1.0  0.78174  0.55377  0.72786  1.0000
  C   C455      1.0  0.80764  0.56682  0.74542  1.0000
  C   C456      1.0  0.80937  0.55464  0.77384  1.0000
  C   C457      1.0  0.78497  0.52926  0.78460  1.0000
  C   C458      1.0  0.75894  0.51649  0.76730  1.0000
  H   H463      1.0  0.78060  0.56340  0.70610  1.0000
  H   H464      1.0  0.82648  0.58648  0.73694  1.0000
  H   H465      1.0  0.78603  0.51969  0.80644  1.0000
  H   H466      1.0  0.73995  0.49716  0.77611  1.0000
  C   C459      1.0  0.59663  0.42820  0.64325  1.0000
  C   C460      1.0  0.60628  0.43000  0.67383  1.0000
  C   C461      1.0  0.58927  0.40781  0.69529  1.0000
  C   C462      1.0  0.56249  0.38365  0.68644  1.0000
  C   C463      1.0  0.55295  0.38170  0.65576  1.0000
  C   C464      1.0  0.57000  0.40387  0.63427  1.0000
  H   H467      1.0  0.62677  0.44856  0.68104  1.0000
  H   H468      1.0  0.59677  0.40954  0.71899  1.0000
  H   H469      1.0  0.53236  0.36323  0.64866  1.0000
  H   H470      1.0  0.56243  0.40223  0.61062  1.0000
  C   C465      1.0  0.66250  0.61101  0.65462  1.0000
  C   C466      1.0  0.66413  0.63796  0.64801  1.0000
  C   C467      1.0  0.64452  0.64566  0.66152  1.0000
  C   C468      1.0  0.62312  0.62667  0.68235  1.0000
  C   C469      1.0  0.62149  0.59973  0.68901  1.0000
  C   C470      1.0  0.64079  0.59183  0.67511  1.0000
  H   H471      1.0  0.72349  0.52582  0.49130  1.0000
  H   H472      1.0  0.82185  0.45423  0.79520  1.0000
  H   H473      1.0  0.60509  0.58475  0.70501  1.0000
  H   H474      1.0  0.63894  0.57096  0.68042  1.0000
  C   C471      1.0  0.93733  0.46052  0.85100  1.0000
  H   H475      1.0  0.80941  0.50982  0.48374  1.0000
  N   N38       1.0  0.69762  0.48434  0.51215  1.0000
  C   C472      1.0  0.70573  0.46681  0.52743  1.0000
  C   C473      1.0  0.68981  0.45019  0.55303  1.0000
  H   H476      1.0  0.92863  0.47429  0.85841  1.0000
  C   C474      1.0  0.52291  0.61321  0.60482  1.0000
  C   C475      1.0  0.73057  0.56157  0.78375  1.0000
  H   H477      1.0  0.69688  0.43716  0.56581  1.0000
  N   N39       1.0  0.93200  0.41274  0.84619  1.0000
  C   C476      1.0  0.50938  0.40570  0.69389  1.0000
  C   C477      1.0  0.94333  0.56470  0.96667  1.0000
  H   H478      1.0  0.50088  0.37764  0.74618  1.0000
  H   H479      1.0  0.53739  0.58466  0.70121  1.0000
  N   N40       1.0  0.73298  0.57787  0.75528  1.0000
  H   H480      1.0  0.71580  0.53772  0.77987  1.0000
  H   H481      1.0  0.87662  0.55027  0.75726  1.0000
  H   H482      1.0  0.86306  0.50154  0.77804  1.0000
  C   C478      1.0  0.66521  0.45121  0.56261  1.0000
  C   C479      1.0  0.98625  0.59322  0.83579  1.0000
  H   H483      1.0  0.77250  0.43661  0.77287  1.0000
  H   H484      1.0  0.99444  0.46344  0.81195  1.0000
  C   C480      1.0  0.73675  0.60999  0.70255  1.0000
  H   H485      1.0  0.78059  0.49842  0.53258  1.0000
  H   H486      1.0  0.52860  0.40570  0.70235  1.0000
  H   H487      1.0  0.52763  0.42096  0.64830  1.0000
  H   H488      1.0  0.76540  0.46674  0.73305  1.0000
  C   C481      1.0  0.71466  0.50231  0.48577  1.0000
  C   C482      1.0  0.52248  0.58035  0.68201  1.0000
  C   C483      1.0  0.86219  0.53876  0.73714  1.0000
  C   C484      1.0  0.78682  0.47407  0.74291  1.0000
  C   C485      1.0  0.84163  0.49404  0.76826  1.0000
  C   C486      1.0  0.81060  0.50079  0.73372  1.0000
  H   H489      1.0  0.87240  0.56809  0.96682  1.0000
  H   H490      1.0  0.73357  0.49937  0.48043  1.0000
  H   H491      1.0  0.82706  0.57218  0.96024  1.0000
  H   H492      1.0  0.57474  0.64119  0.80855  1.0000
  C   C487      1.0  0.94336  0.59019  0.95783  1.0000
  H   H493      1.0  0.90920  0.36984  0.82796  1.0000
  H   H494      1.0  0.54699  0.62467  0.60217  1.0000
  C   C488      1.0  0.80174  0.52422  0.49172  1.0000
  C   C489      1.0  0.79077  0.45727  0.76531  1.0000
  H   H495      1.0  0.87493  0.53515  0.71899  1.0000
  H   H496      1.0  0.92809  0.37343  0.86393  1.0000
  C   C490      1.0  0.98820  0.60950  0.86227  1.0000
  H   H497      1.0  0.89438  0.37418  0.86365  1.0000
  H   H498      1.0  0.80724  0.51386  0.71656  1.0000
  C   C491      1.0  0.67366  0.48563  0.52157  1.0000
  C   C492      1.0  0.95784  0.42434  0.83050  1.0000
  H   H499      1.0  0.85487  0.55374  0.72810  1.0000
  H   H500      1.0  0.66754  0.49994  0.50989  1.0000
  S   S166      1.0  0.59858  0.63563  0.70167  1.0000
  H   H501      1.0  0.75198  0.56440  0.79094  1.0000
  H   H502      1.0  0.72190  0.56903  0.80296  1.0000
  C   C493      1.0  0.65697  0.46892  0.54672  1.0000
  H   H503      1.0  0.63812  0.47018  0.55432  1.0000
  H   H504      1.0  0.65283  0.43871  0.58268  1.0000
  H   H505      1.0  0.68076  0.65305  0.63224  1.0000
  H   H506      1.0  0.64630  0.66648  0.65608  1.0000
  H   H507      1.0  0.96331  0.56380  0.96569  1.0000
  C   C494      1.0  0.70826  0.57173  0.73931  1.0000
  C   C495      1.0  0.70975  0.58787  0.71294  1.0000
  C   C496      1.0  0.75958  0.59982  0.74552  1.0000
  C   C497      1.0  0.76190  0.61598  0.71882  1.0000
  H   H508      1.0  0.89645  0.61387  0.94169  1.0000
  H   H509      1.0  0.51625  0.62994  0.60803  1.0000
  N   N41       1.0  0.83742  0.51072  0.74690  1.0000
  C   C498      1.0  0.78531  0.51779  0.51954  1.0000
  C   C499      1.0  0.81838  0.46718  0.77794  1.0000
  H   H510      1.0  0.69013  0.58303  0.70030  1.0000
  H   H511      1.0  0.90108  0.42117  0.86874  1.0000
  H   H512      1.0  0.96362  0.60894  0.95018  1.0000
  S   S167      1.0  0.95552  0.35175  0.81546  1.0000
  C   C500      1.0  0.80631  0.52764  0.97622  1.0000
  C   C501      1.0  0.96359  0.47254  0.83479  1.0000
  C   C502      1.0  0.61107  0.65681  0.77703  1.0000
  C   C503      1.0  0.91505  0.38107  0.85086  1.0000
  C   C504      1.0  0.97407  0.45440  0.82461  1.0000
  C   C505      1.0  0.79838  0.56781  0.48580  1.0000
  C   C506      1.0  0.91861  0.61793  0.94747  1.0000
  C   C507      1.0  0.98886  0.35714  0.83222  1.0000
  H   H513      1.0  0.55413  0.61627  0.65492  1.0000
  N   N42       1.0  0.91803  0.59109  0.95739  1.0000
  S   S168      1.0  0.54166  0.65546  0.72460  1.0000
  H   H514      1.0  0.97563  0.49583  0.82992  1.0000
  H   H515      1.0  0.92805  0.63468  0.96609  1.0000
  C   C508      1.0  0.53186  0.59828  0.65573  1.0000
  S   S169      1.0  0.82658  0.33621  0.83685  1.0000
  C   C509      1.0  0.89250  0.56744  0.96697  1.0000
  C   C510      1.0  0.50898  0.41454  0.66336  1.0000
  C   C511      1.0  0.99065  0.33535  0.84890  1.0000
  C   C512      1.0  0.59365  0.66020  0.79899  1.0000
  H   H516      1.0  0.51319  0.60107  0.58292  1.0000
  C   C513      1.0  0.91729  0.54029  0.97593  1.0000
  N   N43       1.0  0.51320  0.59335  0.63154  1.0000
  Fe  Fe84      1.0  0.59469  0.88460  0.46320  1.0000
  S   S170      1.0  0.55389  0.85828  0.01040  1.0000
  Fe  Fe85      1.0  0.56230  0.83024  0.41884  1.0000
  H   H517      1.0  0.67946  0.98730  0.03993  1.0000
  S   S171      1.0  0.55623  0.81087  0.36934  1.0000
  C   C514      1.0  0.62216  0.92588  0.38009  1.0000
  S   S172      1.0  0.59967  0.82274  0.04003  1.0000
  C   C515      1.0  0.57994  0.96983  0.03503  1.0000
  H   H518      1.0  0.65596  0.87282  0.38119  1.0000
  S   S173      1.0  0.52502  0.80842  0.45239  1.0000
  S   S174      1.0  0.56310  0.87307  0.42368  1.0000
  C   C516      1.0  0.68319  0.68725  0.16698  1.0000
  H   H519      1.0  0.60681  0.96238  0.06665  1.0000
  Fe  Fe86      1.0  0.57225  0.70395  0.23813  1.0000
  S   S175      1.0  0.60096  0.71028  0.19631  1.0000
  S   S176      1.0  0.58769  0.73081  0.28365  1.0000
  Fe  Fe87      1.0  0.55989  0.69485  0.16771  1.0000
  S   S177      1.0  0.54743  0.70631  0.12116  1.0000
  Fe  Fe88      1.0  0.57617  0.83218  0.00133  1.0000
  H   H520      1.0  0.60662  0.77036  0.00680  1.0000
  S   S178      1.0  0.53241  0.69182  0.20918  1.0000
  C   C517      1.0  0.69547  0.68156  0.19278  1.0000
  C   C518      1.0  0.58412  0.79085  0.06345  1.0000
  C   C519      1.0  0.55698  0.76660  0.05655  1.0000
  C   C520      1.0  0.54611  0.74105  0.07465  1.0000
  C   C521      1.0  0.56196  0.73957  0.10011  1.0000
  C   C522      1.0  0.58894  0.76395  0.10728  1.0000
  C   C523      1.0  0.60005  0.78938  0.08885  1.0000
  H   H521      1.0  0.54443  0.76745  0.03718  1.0000
  H   H522      1.0  0.52523  0.72232  0.06891  1.0000
  H   H523      1.0  0.60140  0.76309  0.12673  1.0000
  H   H524      1.0  0.62107  0.80803  0.09436  1.0000
  C   C524      1.0  0.56659  0.78990  0.34537  1.0000
  C   C525      1.0  0.55381  0.78099  0.31574  1.0000
  C   C526      1.0  0.56029  0.76340  0.29627  1.0000
  C   C527      1.0  0.58000  0.75471  0.30604  1.0000
  C   C528      1.0  0.59339  0.76433  0.33533  1.0000
  C   C529      1.0  0.58665  0.78163  0.35495  1.0000
  H   H525      1.0  0.53841  0.78737  0.30790  1.0000
  H   H526      1.0  0.54998  0.75651  0.27376  1.0000
  H   H527      1.0  0.60874  0.75787  0.34315  1.0000
  H   H528      1.0  0.59673  0.78820  0.37759  1.0000
  C   C530      1.0  0.63252  0.90645  0.38468  1.0000
  N   N44       1.0  0.62330  0.88242  0.36601  1.0000
  H   H529      1.0  0.55756  0.71140  0.39513  1.0000
  H   H530      1.0  0.64576  0.81906  0.01088  1.0000
  C   C531      1.0  0.60161  0.97843  0.05770  1.0000
  H   H531      1.0  0.66391  0.99417  0.44669  1.0000
  H   H532      1.0  0.59532  0.85722  0.32881  1.0000
  H   H533      1.0  0.64749  0.91046  0.40373  1.0000
  C   C532      1.0  0.57391  0.99055  0.02243  1.0000
  C   C533      1.0  0.66539  0.98935  0.02315  1.0000
  C   C534      1.0  0.59894  0.77448  0.98432  1.0000
  H   H534      1.0  0.52993  0.73719  0.40544  1.0000
  H   H535      1.0  0.64096  0.94282  0.01316  1.0000
  C   C535      1.0  0.63331  0.86157  0.37210  1.0000
  S   S179      1.0  0.59701  0.84306  0.45562  1.0000
  C   C536      1.0  0.60335  0.87677  0.34299  1.0000
  H   H536      1.0  0.56883  0.94751  0.02632  1.0000
  C   C537      1.0  0.51516  0.68032  0.29845  1.0000
  Fe  Fe89      1.0  0.52820  0.85196  0.45972  1.0000
  C   C538      1.0  0.53791  0.69569  0.35004  1.0000
  H   H537      1.0  0.57579  0.89040  0.32038  1.0000
  H   H538      1.0  0.67055  0.69813  0.16994  1.0000
  S   S180      1.0  0.63229  0.93228  0.45962  1.0000
  H   H539      1.0  0.67558  0.68100  0.11770  1.0000
  C   C539      1.0  0.60173  0.92021  0.35678  1.0000
  H   H540      1.0  0.62921  0.94464  0.39532  1.0000
  C   C540      1.0  0.64362  0.96405  0.00791  1.0000
  H   H541      1.0  0.59287  0.93463  0.35368  1.0000
  C   C541      1.0  0.59220  0.89548  0.33809  1.0000
  H   H542      1.0  0.63289  0.84967  0.35060  1.0000
  H   H543      1.0  0.61874  0.84521  0.38943  1.0000
  C   C542      1.0  0.50333  0.70906  0.33394  1.0000
  H   H544      1.0  0.52053  0.69612  0.27911  1.0000
  C   C543      1.0  0.52629  0.72476  0.38414  1.0000
  C   C544      1.0  0.54182  0.71034  0.37832  1.0000
  C   C545      1.0  0.50691  0.72415  0.36185  1.0000
  C   C546      1.0  0.68588  0.67748  0.13771  1.0000
  N   N45       1.0  0.51881  0.69519  0.32831  1.0000
  C   C547      1.0  0.64429  0.82193  0.98610  1.0000
  C   C548      1.0  0.62529  0.96632  0.98605  1.0000
  H   H545      1.0  0.55099  0.68562  0.34515  1.0000
  H   H546      1.0  0.53008  0.67133  0.29617  1.0000
  H   H547      1.0  0.55783  0.98432  0.00412  1.0000
  C   C549      1.0  0.65851  0.99178  0.47113  1.0000
  H   H548      1.0  0.57988  0.77713  0.98947  1.0000
  H   H549      1.0  0.68269  0.86480  0.98594  1.0000
  H   H550      1.0  0.69244  0.68812  0.21575  1.0000
  C   C550      1.0  0.62923  0.99421  0.97959  1.0000
  H   H551      1.0  0.62354  0.93942  0.52595  1.0000
  S   S181      1.0  0.55960  0.86499  0.49974  1.0000
  Fe  Fe90      1.0  0.56798  0.83065  0.93028  1.0000
  C   C551      1.0  0.66314  0.85223  0.94048  1.0000
  S   S182      1.0  0.57948  0.81922  0.88209  1.0000
  C   C552      1.0  0.62872  0.74182  0.80249  1.0000
  S   S183      1.0  0.54810  0.78433  0.52257  1.0000
  C   C553      1.0  0.61912  0.80520  0.93814  1.0000
  H   H552      1.0  0.61530  0.99632  0.96269  1.0000
  C   C554      1.0  0.64633  0.98617  0.53446  1.0000
  S   S184      1.0  0.54533  0.85715  0.93446  1.0000
  H   H553      1.0  0.53050  0.80979  0.63609  1.0000
  C   C555      1.0  0.64001  0.83072  0.92331  1.0000
  Fe  Fe91      1.0  0.56043  0.70279  0.73948  1.0000
  S   S185      1.0  0.60317  0.71622  0.71541  1.0000
  S   S186      1.0  0.55440  0.71166  0.79099  1.0000
  Fe  Fe92      1.0  0.58211  0.72390  0.67333  1.0000
  S   S187      1.0  0.60450  0.76581  0.64493  1.0000
  N   N46       1.0  0.62341  0.71245  0.79496  1.0000
  Fe  Fe93      1.0  0.52145  0.82838  0.97506  1.0000
  S   S188      1.0  0.54077  0.71301  0.69839  1.0000
  S   S189      1.0  0.56578  0.67877  0.65417  1.0000
  C   C556      1.0  0.56687  0.77944  0.55409  1.0000
  C   C557      1.0  0.59123  0.80279  0.56809  1.0000
  C   C558      1.0  0.60312  0.79813  0.59538  1.0000
  C   C559      1.0  0.59068  0.77022  0.60902  1.0000
  C   C560      1.0  0.56695  0.74674  0.59441  1.0000
  C   C561      1.0  0.55526  0.75134  0.56702  1.0000
  H   H554      1.0  0.60048  0.82452  0.55837  1.0000
  H   H555      1.0  0.62167  0.81639  0.60638  1.0000
  H   H556      1.0  0.55736  0.72510  0.60443  1.0000
  H   H557      1.0  0.53661  0.73308  0.55620  1.0000
  C   C562      1.0  0.57135  0.78878  0.85699  1.0000
  C   C563      1.0  0.58241  0.79426  0.82640  1.0000
  C   C564      1.0  0.57707  0.77116  0.80575  1.0000
  C   C565      1.0  0.56079  0.74199  0.81544  1.0000
  C   C566      1.0  0.55005  0.73650  0.84616  1.0000
  C   C567      1.0  0.55508  0.75960  0.86669  1.0000
  H   H558      1.0  0.59502  0.81664  0.81846  1.0000
  H   H559      1.0  0.58558  0.77602  0.78234  1.0000
  H   H560      1.0  0.53740  0.71414  0.85409  1.0000
  H   H561      1.0  0.54626  0.75477  0.88997  1.0000
  H   H562      1.0  0.56059  0.80282  0.63348  1.0000
  Fe  Fe94      1.0  0.58330  0.66961  0.69776  1.0000
  H   H563      1.0  0.65841  0.72838  0.76243  1.0000
  S   S190      1.0  0.59596  0.93519  0.96759  1.0000
  C   C568      1.0  0.64062  0.70931  0.77341  1.0000
  C   C569      1.0  0.60020  0.68834  0.80779  1.0000
  C   C570      1.0  0.63575  0.96091  0.51563  1.0000
  C   C571      1.0  0.51729  0.74867  0.63822  1.0000
  H   H564      1.0  0.63757  0.83425  0.89891  1.0000
  C   C572      1.0  0.64218  0.96347  0.48386  1.0000
  H   H565      1.0  0.61995  0.74957  0.78357  1.0000
  Fe  Fe95      1.0  0.57957  0.88578  0.96965  1.0000
  H   H566      1.0  0.60053  0.78918  0.92485  1.0000
  H   H567      1.0  0.53122  0.75556  0.65861  1.0000
  C   C573      1.0  0.50241  0.76007  0.59072  1.0000
  H   H568      1.0  0.61760  0.74193  0.82435  1.0000
  H   H569      1.0  0.50466  0.77594  0.57331  1.0000
  S   S191      1.0  0.60412  0.86169  0.96255  1.0000
  S   S192      1.0  0.54176  0.79984  0.96887  1.0000
  Fe  Fe96      1.0  0.55950  0.82275  0.48978  1.0000
  H   H570      1.0  0.65236  0.75748  0.80531  1.0000
  H   H571      1.0  0.59186  0.75495  0.96933  1.0000
  H   H572      1.0  0.64188  0.98373  0.55914  1.0000
  C   C574      1.0  0.54062  0.79986  0.62165  1.0000
  H   H573      1.0  0.58605  0.69074  0.82428  1.0000
  N   N47       1.0  0.62164  0.80093  0.96908  1.0000
  C   C575      1.0  0.63473  0.68147  0.76412  1.0000
  H   H574      1.0  0.54788  0.81183  0.59921  1.0000
  N   N48       1.0  0.51982  0.76876  0.61655  1.0000
  H   H575      1.0  0.67887  0.87254  0.92945  1.0000
  C   C576      1.0  0.66532  0.84789  0.97211  1.0000
  H   H576      1.0  0.64768  0.67893  0.74615  1.0000
