data_image0
_chemical_formula_structural       FeS2FeS2FeSFeS3FeS2FeS2FeSFeCS2FeS2FeS2FeSFeHS2FeS2FeS2FeSFeS3C3H2C6H4C6NH2C2H2CH2C6H4C4H2C6H4C6H4CSC2HC2HCH2C2H2C2H2C2H2NH3NH2C2HC2HNC3H2CH2C3HCHC3NH2NH2CH5C2NCH2CH2NC3HC3H3CH8CH2CHCHC4H2CH2C3H3CHCH6C3SFeS2FeS2FeSFeS3FeS2FeS2FeSFeCS2FeS2FeS2FeSFeHS2FeS2FeS2FeSFeS3C2H3C6H4C6H4CH2C2HC6H4C4H2C6H4C6H4CHCH3CH4C2H2NC6H8NHSH3C2HCSC2H3C4NHC3H2C3H3CNC6H4CH3NH3CH3NH2CNC2H3CHC2H2C3H2CH3C2H2C3H3CHNCH2FeS2FeS2FeSFeS3FeSHFeS2FeSFeS3FeS2FeS2FeSFeS3FeS2FeS2FeSFeS3C4HC6H4C6H4CHCH2C6H4CHCSHC6H4C6H4C2H2NHC2H3C2H2C2H6C4H4CHC2NHCHCN2C6H9C3HCH2C2SC2HCHCNH2CNHC2NC6H8CNC3H2CH2CH2CH2C2HCH2C2H3CHC3H3C2NH3CH2CHCHCFeS2FeS2FeSFeS3FeSHFeS2FeSFeS3FeS2FeS2FeSC2S2FeS2FeS2FeSFeS3CHC2HC6H4C6H4CHCH2C6H4C3H2C6H4C6HCH2C3H3C2H2C2H2CH3C2H4CHCH3CHSC2HC3NHCHCH2CH3CH2FeNC6H9CHCH2NHNH2CHC2NC2H4NC3HCH2C3H3CHCH3C2NC2HCH2CH4CH2CFeS2FeS2FeSFeS3FeS2NSCFeSFeS2HFeS2FeSHFeSFeSHSFeS2FeS2FeSFeS3CH3C6H4C6H4CH4CH4C6H4C6H2SHC6H4C2H2C2SHFeC3H8CH6CH2C3HC4N2C5H3C2HCH4CNH2CNH2CNCH2CH3CH2NC2HN2C6H3C3HCNHCSHC5HC4HCH4C3H3CHC3H4C4HCH3C2H5FeS2FeS2FeSFeS3FeS2HSCFeSFeS2HFeS2FeSHFeSFeSHSFeS2FeS2FeSFeS3FeH3C6H3C7H8NCH2CHC6H4C6H4C6H4C3H2C2H2C2H2CHSC3H2C2HC2SHNC6H9CSHC3HNSNC6H8NC6H6CHC4H3CH5SH3CHC2H4C2HCHC2FeS2FeS2FeSFeS3FeS2FeCSFeSFeHS2FeS2FeS2FeSFeS3FeS2FeSHFeSFeS3C2HC8HNH2C6H4C2NH2NHC2HC6H4C6H4C6H4C2H3C3NHNC3NC5H2CH3C2NC2H3C2HCHSC5H4C5H3SH3C2NC6H9C2HC2H2CH4CH3CHNC2H3CHCH7CH3C2HCH2CSCHC2H3NHCHCH3CHC4HFeS2FeS2FeSFeS3FeS2FeHSFeSFeHS2FeS2FeS2FeSFeS3FeS2FeSCFeSFeSCSCHNH2C6H4C6H10CH3C6H4C6H4C6H2CHC2H3NC3HC3H3CH5C2SH3CHCNC6HCH4CHC2H2C2HNC2HC4H2CHC7H7CHC2H5NHC2HCH4SC2HSH4C2SHCHC4HCN2CHC2H3CH2CHNC3HCHCHFeS2FeS2FeSFeS3FeSHFeS2FeSFeS2HFeS2FeS2FeSFeS3FeS2HSHFeSFeS2HCHC2HC11H4C6H5C2H2C3H2C2HCH2CHC6H4C6H4C6H4CHC2HNC6H4SNCHNC3HCH3SCH4CHC2HSH4CHNC4H7C4H7CH2NCHCNC2H3C2H5C2H4CHFeNCSC2HNHCH2C3HCH3CNCHSCHC2H3C2FeS2FeS2FeSFeS3HSHFeS2FeSFeS2HFeS2FeS2FeSFeS3FeS2HSHFeSFeHSCH4FeCHCHC7H4C6H5C3H2CHNCHCH2SCHC7H4C6H4C6H4C3H3CHCHC2H2C2HCH4NH2CH3NCNCHC4H2CH2CHC4HC2H2C2H2CH2SHN3C6H10NC6HCSHCH2C2H3CHSHCNCHCHC3FeHCHCH2FeS2FeS2FeSFeHS2FeS2FeS2FeSFeS3FeCSFeS2FeCFeS3FeS2FeS2FeSFeS3HC2HCHC2SH2C7H3C6H5CH2C7H4C3H8C6H4C6H4CH2NC6H5CHCNC5H7CH2NC5H8C3H2C2HSH4CHSH2C4NC2NH2C4H3C2H2C2HCHC3NH3CH2CH5FeCSFeS2FeSCHS2FeS2FeS2FeSFeS3FeS2FeS2FeCFeS3FeS2FeS2FeSFeS3C3HCHC3H2C6H4C6H5C10H5C2H3CHC2HC6NH3C6H4C3H2CHNC6H10CHC3HFeHCSH2NCH2NHNCNHCNHCH2CH3C2H5CH3CH2CHC3HSC2H2NC6H9C2HCHCHCHC2H6C2HSC2HFeSHFeS2FeSFeS3FeS2FeS2FeSFeS3FeS2FeS2FeNFeS3FeS2FeS2FeSFeS3C3HC3H2C7H4C7H3C2H2C2H3C2H3C6H4C6H3C7H4C2H4CH2CNHCH3C2H2CHC3H2C7HCH3NH3CN2SHNC2H3CH3CH5CH2C2HCHCHCHCH3C2H2CH2C2NCHCHC3NH2C2H2CH4SHCH3CHC2H3CHCHC2H2CH2CFeSHFeS2FeSFeS3FeS2FeS2FeSFeS3FeS2FeS2FeHFeS3FeS2FeS2FeSFeS3C2H2C3H3C6H4C6H4CH3C3H2C2SH2C6H4C6H4C6H4C2H2CHC2H3CHCH4SNC6H8NCH2C3H2C3HC2HCH6C3H2C2NC6H6C2NC6H8C2NHCHNC2HCNCH2NH4C3HCHCH2C2H2C2H2CFeS2FeS2FeSFeS3FeS2FeS2FeSFeS3FeS2FeS2FeSFeS3FeS2FeS2FeCFeS3C2H2CHCH2C6H4C6H4C3H2C6H5CH2C2H3C6H4C6H4CHCH4C2HNC6H3NH4NC6H8CHC2H7CHNC6H5CH2NC3HC3H6CNCHCHC2H2SH2CNC2HC2H3CHCHSH4C2FeS2FeS2FeSFeS3FeS2FeS2FeSFeHS2FeS2FeS2FeSFeS3FeS2FeS2FeHFeS3HCH2C2H2C7H4C6H2CH2C2H2C6H4C3HCHC2HC6H4C6HCH2CHCH3NH2NHSC3H3CH2C3HCN2HCH6C2HC3H2CH3NCH2C3HCHNCHC2NC6H8CH4C2H2CH2C2HCHCHC2H2C7HCNH3CH3CH4C2H
_chemical_formula_sum              "Fe256 S512 C1536 H1536 N128"
_cell_length_a       75.8931
_cell_length_b       76.1119
_cell_length_c       42.4013
_cell_angle_alpha    89.847
_cell_angle_beta     89.4562
_cell_angle_gamma    89.3447

_space_group_name_H-M_alt    "P 1"
_space_group_IT_number       1

loop_
  _space_group_symop_operation_xyz
  'x, y, z'

loop_
  _atom_site_type_symbol
  _atom_site_label
  _atom_site_symmetry_multiplicity
  _atom_site_fract_x
  _atom_site_fract_y
  _atom_site_fract_z
  _atom_site_occupancy
  Fe  Fe1       1.0  0.06917  0.42486  0.32570  1.0000
  S   S1        1.0  0.08926  0.44047  0.35198  1.0000
  S   S2        1.0  0.04097  0.42998  0.34323  1.0000
  Fe  Fe2       1.0  0.09791  0.40879  0.28378  1.0000
  S   S3        1.0  0.11987  0.42336  0.30722  1.0000
  S   S4        1.0  0.09995  0.39000  0.24219  1.0000
  Fe  Fe3       1.0  0.10625  0.41595  0.35308  1.0000
  S   S5        1.0  0.11870  0.41098  0.40201  1.0000
  Fe  Fe4       1.0  0.10119  0.44669  0.30467  1.0000
  S   S6        1.0  0.11143  0.47440  0.29489  1.0000
  S   S7        1.0  0.08526  0.39991  0.32966  1.0000
  S   S8        1.0  0.08012  0.43260  0.27826  1.0000
  Fe  Fe5       1.0  0.16959  0.35912  0.10994  1.0000
  S   S9        1.0  0.18361  0.36800  0.06554  1.0000
  S   S10       1.0  0.16460  0.38043  0.14685  1.0000
  Fe  Fe6       1.0  0.17010  0.32032  0.08889  1.0000
  S   S11       1.0  0.18389  0.32671  0.04338  1.0000
  S   S12       1.0  0.16346  0.29293  0.10749  1.0000
  Fe  Fe7       1.0  0.20108  0.34413  0.07313  1.0000
  S   S13       1.0  0.23111  0.34163  0.06842  1.0000
  Fe  Fe8       1.0  0.16514  0.35004  0.03991  1.0000
  C   C1        1.0  0.14896  0.30020  0.49323  1.0000
  S   S14       1.0  0.18823  0.33646  0.11874  1.0000
  S   S15       1.0  0.15022  0.34242  0.08427  1.0000
  Fe  Fe9       1.0  0.17473  0.19020  0.06071  1.0000
  S   S16       1.0  0.19086  0.17146  0.03092  1.0000
  S   S17       1.0  0.17472  0.21823  0.04086  1.0000
  Fe  Fe10      1.0  0.16413  0.16041  0.10524  1.0000
  S   S18       1.0  0.17952  0.13989  0.07797  1.0000
  S   S19       1.0  0.15251  0.15656  0.15467  1.0000
  Fe  Fe11      1.0  0.20099  0.16013  0.07631  1.0000
  S   S20       1.0  0.23012  0.15222  0.08008  1.0000
  Fe  Fe12      1.0  0.16811  0.15275  0.03436  1.0000
  H   H1        1.0  0.18320  0.14871  0.19439  1.0000
  S   S21       1.0  0.18640  0.17997  0.10579  1.0000
  S   S22       1.0  0.15123  0.17219  0.06184  1.0000
  Fe  Fe13      1.0  0.10561  0.09903  0.33706  1.0000
  S   S23       1.0  0.08527  0.11037  0.30366  1.0000
  S   S24       1.0  0.12019  0.11966  0.36677  1.0000
  Fe  Fe14      1.0  0.09994  0.06140  0.31034  1.0000
  S   S25       1.0  0.07922  0.07053  0.27675  1.0000
  S   S26       1.0  0.10939  0.03272  0.31066  1.0000
  Fe  Fe15      1.0  0.09782  0.09288  0.26659  1.0000
  S   S27       1.0  0.10437  0.09643  0.21431  1.0000
  Fe  Fe16      1.0  0.06863  0.08700  0.31670  1.0000
  S   S28       1.0  0.04044  0.08723  0.33671  1.0000
  S   S29       1.0  0.11904  0.08305  0.29883  1.0000
  S   S30       1.0  0.08841  0.07645  0.35176  1.0000
  C   C2        1.0  0.09025  0.01939  0.26048  1.0000
  C   C3        1.0  0.10221  0.01594  0.28471  1.0000
  C   C4        1.0  0.14222  0.46276  0.23645  1.0000
  H   H2        1.0  0.08459  0.03240  0.25797  1.0000
  H   H3        1.0  0.10593  0.05429  0.18527  1.0000
  C   C5        1.0  0.11824  0.11293  0.19827  1.0000
  C   C6        1.0  0.12237  0.11268  0.16583  1.0000
  C   C7        1.0  0.13303  0.12576  0.15207  1.0000
  C   C8        1.0  0.13954  0.13934  0.17064  1.0000
  C   C9        1.0  0.13556  0.13949  0.20313  1.0000
  C   C10       1.0  0.12504  0.12633  0.21692  1.0000
  H   H4        1.0  0.11714  0.10240  0.15117  1.0000
  H   H5        1.0  0.13593  0.12551  0.12704  1.0000
  H   H6        1.0  0.14050  0.14995  0.21769  1.0000
  H   H7        1.0  0.12197  0.12672  0.24188  1.0000
  C   C11       1.0  0.13972  0.12945  0.46864  1.0000
  C   C12       1.0  0.13276  0.11303  0.46027  1.0000
  C   C13       1.0  0.12681  0.10972  0.42936  1.0000
  C   C14       1.0  0.12776  0.12282  0.40619  1.0000
  C   C15       1.0  0.13478  0.13923  0.41452  1.0000
  C   C16       1.0  0.14070  0.14255  0.44546  1.0000
  N   N1        1.0  0.06665  0.39943  0.40764  1.0000
  H   H8        1.0  0.12157  0.09700  0.42347  1.0000
  H   H9        1.0  0.13563  0.14949  0.39688  1.0000
  C   C17       1.0  0.04988  0.13061  0.35104  1.0000
  C   C18       1.0  0.24607  0.15825  0.10847  1.0000
  H   H10       1.0  0.05080  0.11042  0.38644  1.0000
  H   H11       1.0  0.13900  0.41842  0.00816  1.0000
  C   C19       1.0  0.24145  0.16685  0.13654  1.0000
  H   H12       1.0  0.13196  0.10275  0.47788  1.0000
  H   H13       1.0  0.22794  0.17108  0.14045  1.0000
  C   C20       1.0  0.16649  0.27231  0.08838  1.0000
  C   C21       1.0  0.17105  0.27101  0.05642  1.0000
  C   C22       1.0  0.17358  0.25437  0.04241  1.0000
  C   C23       1.0  0.17168  0.23881  0.06012  1.0000
  C   C24       1.0  0.16725  0.24011  0.09214  1.0000
  C   C25       1.0  0.16461  0.25676  0.10611  1.0000
  H   H14       1.0  0.17242  0.28282  0.04238  1.0000
  H   H15       1.0  0.17694  0.25354  0.01761  1.0000
  H   H16       1.0  0.16566  0.22828  0.10605  1.0000
  H   H17       1.0  0.16100  0.25758  0.13081  1.0000
  C   C26       1.0  0.24635  0.34559  0.09911  1.0000
  C   C27       1.0  0.24182  0.35555  0.12572  1.0000
  C   C28       1.0  0.01789  0.09618  0.28749  1.0000
  C   C29       1.0  0.11172  0.04152  0.19084  1.0000
  H   H18       1.0  0.22857  0.36082  0.12826  1.0000
  H   H19       1.0  0.08177  0.16096  0.33919  1.0000
  C   C30       1.0  0.12919  0.39387  0.42445  1.0000
  C   C31       1.0  0.13252  0.37705  0.41233  1.0000
  C   C32       1.0  0.14072  0.36400  0.43124  1.0000
  C   C33       1.0  0.14562  0.36746  0.46261  1.0000
  C   C34       1.0  0.14217  0.38424  0.47480  1.0000
  C   C35       1.0  0.13406  0.39731  0.45584  1.0000
  H   H20       1.0  0.12895  0.37412  0.38828  1.0000
  H   H21       1.0  0.14335  0.35114  0.42137  1.0000
  H   H22       1.0  0.08998  0.12571  0.42891  1.0000
  H   H23       1.0  0.13150  0.41021  0.46564  1.0000
  C   C36       1.0  0.11875  0.38595  0.21801  1.0000
  C   C37       1.0  0.11712  0.37503  0.19151  1.0000
  C   C38       1.0  0.13130  0.37255  0.17021  1.0000
  C   C39       1.0  0.14725  0.38109  0.17513  1.0000
  C   C40       1.0  0.14902  0.39170  0.20203  1.0000
  C   C41       1.0  0.13489  0.39404  0.22350  1.0000
  H   H24       1.0  0.10472  0.36863  0.18718  1.0000
  H   H25       1.0  0.12976  0.36434  0.14965  1.0000
  H   H26       1.0  0.16133  0.39832  0.20606  1.0000
  H   H27       1.0  0.13635  0.40242  0.24385  1.0000
  C   C42       1.0  0.10460  0.49112  0.26796  1.0000
  S   S31       1.0  0.15637  0.35049  0.48501  1.0000
  C   C43       1.0  0.09304  0.48788  0.24314  1.0000
  C   C44       1.0  0.14334  0.44189  0.19215  1.0000
  H   H28       1.0  0.08729  0.47504  0.24069  1.0000
  C   C45       1.0  0.05860  0.14484  0.33753  1.0000
  C   C46       1.0  0.01963  0.09157  0.31927  1.0000
  H   H29       1.0  0.15651  0.27611  0.46977  1.0000
  C   C47       1.0  0.08911  0.50128  0.22107  1.0000
  H   H30       1.0  0.02952  0.09726  0.27268  1.0000
  H   H31       1.0  0.05313  0.15143  0.31705  1.0000
  C   C48       1.0  0.02088  0.42079  0.33034  1.0000
  C   C49       1.0  0.11713  0.44454  0.22288  1.0000
  H   H32       1.0  0.09965  0.02861  0.15135  1.0000
  H   H33       1.0  0.24075  0.10488  0.14860  1.0000
  C   C50       1.0  0.06727  0.41727  0.42051  1.0000
  C   C51       1.0  0.10818  0.02711  0.17157  1.0000
  H   H34       1.0  0.19246  0.27904  0.13929  1.0000
  H   H35       1.0  0.14605  0.15523  0.45136  1.0000
  C   C52       1.0  0.21781  0.30881  0.17640  1.0000
  C   C53       1.0  0.11396  0.38416  0.02936  1.0000
  H   H36       1.0  0.18457  0.37124  0.46066  1.0000
  H   H37       1.0  0.23957  0.11978  0.11527  1.0000
  N   N2        1.0  0.11962  0.39845  0.01263  1.0000
  H   H38       1.0  0.18049  0.13115  0.14574  1.0000
  H   H39       1.0  0.19774  0.14989  0.42180  1.0000
  H   H40       1.0  0.02287  0.44947  0.27517  1.0000
  N   N3        1.0  0.13409  0.44943  0.21657  1.0000
  H   H41       1.0  0.14311  0.42269  0.15461  1.0000
  H   H42       1.0  0.09433  0.14524  0.38495  1.0000
  C   C54       1.0  0.19333  0.13283  0.15629  1.0000
  C   C55       1.0  0.22905  0.31302  0.15136  1.0000
  H   H43       1.0  0.14194  0.45847  0.26156  1.0000
  C   C56       1.0  0.19485  0.14262  0.18383  1.0000
  C   C57       1.0  0.08167  0.14123  0.37586  1.0000
  H   H44       1.0  0.09577  0.42741  0.21035  1.0000
  N   N4        1.0  0.20662  0.36866  0.49129  1.0000
  C   C58       1.0  0.21008  0.35031  0.48256  1.0000
  C   C59       1.0  0.08017  0.37101  0.40031  1.0000
  C   C60       1.0  0.18485  0.12862  0.44601  1.0000
  H   H45       1.0  0.13475  0.47539  0.23465  1.0000
  H   H46       1.0  0.15584  0.40837  0.05483  1.0000
  C   C61       1.0  0.05187  0.37753  0.37727  1.0000
  H   H47       1.0  0.09125  0.36215  0.40412  1.0000
  H   H48       1.0  0.15503  0.30874  0.47579  1.0000
  C   C62       1.0  0.22667  0.30508  0.12200  1.0000
  C   C63       1.0  0.18907  0.39499  0.48630  1.0000
  C   C64       1.0  0.12309  0.37836  0.05602  1.0000
  H   H49       1.0  0.20059  0.29346  0.07431  1.0000
  C   C65       1.0  0.19718  0.14200  0.44312  1.0000
  H   H50       1.0  0.21852  0.34973  0.46107  1.0000
  C   C66       1.0  0.08109  0.11733  0.41483  1.0000
  C   C67       1.0  0.20284  0.28852  0.14254  1.0000
  C   C68       1.0  0.07462  0.15020  0.34996  1.0000
  N   N5        1.0  0.21375  0.29293  0.11796  1.0000
  H   H51       1.0  0.08040  0.49854  0.20169  1.0000
  H   H52       1.0  0.03233  0.40401  0.29469  1.0000
  N   N6        1.0  0.07303  0.12728  0.38897  1.0000
  H   H53       1.0  0.08902  0.10623  0.40498  1.0000
  H   H54       1.0  0.09116  0.39170  0.42789  1.0000
  C   C69       1.0  0.20460  0.29648  0.17202  1.0000
  H   H55       1.0  0.19753  0.34336  0.47807  1.0000
  H   H56       1.0  0.21921  0.31525  0.19902  1.0000
  H   H57       1.0  0.03763  0.12600  0.34111  1.0000
  H   H58       1.0  0.22300  0.28537  0.07205  1.0000
  H   H59       1.0  0.06151  0.41752  0.44465  1.0000
  C   C70       1.0  0.02024  0.40853  0.30588  1.0000
  C   C71       1.0  0.08015  0.38785  0.41344  1.0000
  N   N7        1.0  0.22460  0.12746  0.15576  1.0000
  C   C72       1.0  0.21137  0.14461  0.19746  1.0000
  H   H60       1.0  0.14542  0.38278  0.08593  1.0000
  H   H61       1.0  0.23508  0.30886  0.10236  1.0000
  C   C73       1.0  0.24011  0.11890  0.14146  1.0000
  H   H62       1.0  0.20605  0.27172  0.08841  1.0000
  H   H63       1.0  0.07093  0.11202  0.43117  1.0000
  N   N8        1.0  0.12206  0.03955  0.21688  1.0000
  C   C74       1.0  0.12943  0.02356  0.22411  1.0000
  C   C75       1.0  0.19289  0.37762  0.47776  1.0000
  C   C76       1.0  0.13557  0.42914  0.17322  1.0000
  H   H64       1.0  0.08111  0.42199  0.42134  1.0000
  C   C77       1.0  0.11827  0.42409  0.17953  1.0000
  C   C78       1.0  0.12513  0.05480  0.23694  1.0000
  C   C79       1.0  0.11543  0.01068  0.17900  1.0000
  H   H65       1.0  0.05993  0.42672  0.40528  1.0000
  H   H66       1.0  0.15689  0.44549  0.18741  1.0000
  H   H67       1.0  0.23899  0.13832  0.19392  1.0000
  C   C80       1.0  0.14392  0.40168  0.04807  1.0000
  H   H68       1.0  0.13365  0.06443  0.22452  1.0000
  H   H69       1.0  0.11239  0.06137  0.24268  1.0000
  H   H70       1.0  0.13127  0.05103  0.25973  1.0000
  H   H71       1.0  0.20719  0.11824  0.12038  1.0000
  H   H72       1.0  0.13724  0.02191  0.24524  1.0000
  H   H73       1.0  0.15614  0.46525  0.22970  1.0000
  H   H74       1.0  0.04074  0.37377  0.36298  1.0000
  H   H75       1.0  0.11878  0.36680  0.06884  1.0000
  C   C81       1.0  0.06599  0.36591  0.38183  1.0000
  H   H76       1.0  0.11232  0.41369  0.16595  1.0000
  H   H77       1.0  0.17568  0.12607  0.42709  1.0000
  C   C82       1.0  0.18397  0.11889  0.47399  1.0000
  H   H78       1.0  0.25036  0.17559  0.18208  1.0000
  C   C83       1.0  0.20861  0.14531  0.46796  1.0000
  H   H79       1.0  0.25106  0.36723  0.16881  1.0000
  C   C84       1.0  0.10899  0.43176  0.20458  1.0000
  C   C85       1.0  0.13813  0.38724  0.06544  1.0000
  C   C86       1.0  0.20844  0.12544  0.14229  1.0000
  C   C87       1.0  0.05740  0.12184  0.37674  1.0000
  H   H80       1.0  0.10993  0.45039  0.24246  1.0000
  H   H81       1.0  0.10250  0.37696  0.02185  1.0000
  C   C88       1.0  0.25419  0.16935  0.16013  1.0000
  H   H82       1.0  0.21270  0.15229  0.21878  1.0000
  H   H83       1.0  0.21816  0.15578  0.46616  1.0000
  C   C89       1.0  0.05234  0.39427  0.39077  1.0000
  C   C90       1.0  0.22617  0.13669  0.18325  1.0000
  C   C91       1.0  0.25460  0.35913  0.14873  1.0000
  H   H84       1.0  0.19554  0.29329  0.19108  1.0000
  H   H85       1.0  0.06596  0.35300  0.37101  1.0000
  H   H86       1.0  0.23934  0.32261  0.15450  1.0000
  C   C92       1.0  0.21077  0.28548  0.08665  1.0000
  H   H87       1.0  0.04129  0.40319  0.38721  1.0000
  C   C93       1.0  0.14972  0.28197  0.48983  1.0000
  H   H88       1.0  0.17784  0.40184  0.47613  1.0000
  H   H89       1.0  0.14317  0.20743  0.01069  1.0000
  H   H90       1.0  0.07702  0.00907  0.21982  1.0000
  H   H91       1.0  0.25249  0.12545  0.14855  1.0000
  H   H92       1.0  0.17400  0.10884  0.47642  1.0000
  H   H93       1.0  0.00911  0.46816  0.31623  1.0000
  C   C94       1.0  0.13436  0.40724  0.02169  1.0000
  C   C95       1.0  0.20734  0.13531  0.49563  1.0000
  C   C96       1.0  0.12625  0.00890  0.20526  1.0000
  S   S32       1.0  0.14705  0.35535  0.99733  1.0000
  Fe  Fe17      1.0  0.07115  0.41889  0.83232  1.0000
  S   S33       1.0  0.08931  0.43793  0.85555  1.0000
  S   S34       1.0  0.04369  0.41730  0.85465  1.0000
  Fe  Fe18      1.0  0.09959  0.40876  0.78406  1.0000
  S   S35       1.0  0.11936  0.42773  0.80350  1.0000
  S   S36       1.0  0.10343  0.38798  0.74583  1.0000
  Fe  Fe19      1.0  0.11067  0.41736  0.85130  1.0000
  S   S37       1.0  0.13140  0.41322  0.89027  1.0000
  Fe  Fe20      1.0  0.09632  0.44690  0.80636  1.0000
  S   S38       1.0  0.09277  0.47684  0.80270  1.0000
  S   S39       1.0  0.09202  0.39754  0.83167  1.0000
  S   S40       1.0  0.07714  0.42858  0.78348  1.0000
  Fe  Fe21      1.0  0.16887  0.35896  0.60588  1.0000
  S   S41       1.0  0.18439  0.36678  0.56236  1.0000
  S   S42       1.0  0.16365  0.38131  0.64059  1.0000
  Fe  Fe22      1.0  0.16980  0.32006  0.58772  1.0000
  S   S43       1.0  0.18526  0.32537  0.54361  1.0000
  S   S44       1.0  0.16099  0.29292  0.60424  1.0000
  Fe  Fe23      1.0  0.20158  0.34331  0.57361  1.0000
  S   S45       1.0  0.23154  0.34185  0.56679  1.0000
  Fe  Fe24      1.0  0.16675  0.34845  0.53595  1.0000
  C   C97       1.0  0.06118  0.12590  0.86121  1.0000
  S   S46       1.0  0.18721  0.33655  0.61837  1.0000
  S   S47       1.0  0.15009  0.34202  0.57880  1.0000
  Fe  Fe25      1.0  0.17207  0.19119  0.55739  1.0000
  S   S48       1.0  0.18482  0.16940  0.52849  1.0000
  S   S49       1.0  0.17469  0.21905  0.53739  1.0000
  Fe  Fe26      1.0  0.15985  0.16557  0.60820  1.0000
  S   S50       1.0  0.17165  0.14241  0.58315  1.0000
  S   S51       1.0  0.14682  0.16469  0.65676  1.0000
  Fe  Fe27      1.0  0.19517  0.15955  0.57496  1.0000
  S   S52       1.0  0.22211  0.14628  0.58008  1.0000
  Fe  Fe28      1.0  0.16027  0.15389  0.53846  1.0000
  H   H94       1.0  0.12754  0.27256  0.58658  1.0000
  S   S53       1.0  0.18418  0.18213  0.60300  1.0000
  S   S54       1.0  0.14673  0.17627  0.56446  1.0000
  Fe  Fe29      1.0  0.10027  0.09617  0.84714  1.0000
  S   S55       1.0  0.09275  0.11170  0.80359  1.0000
  S   S56       1.0  0.10244  0.11076  0.89483  1.0000
  Fe  Fe30      1.0  0.09536  0.06081  0.81158  1.0000
  S   S57       1.0  0.08737  0.07427  0.76694  1.0000
  S   S58       1.0  0.09797  0.03083  0.81442  1.0000
  Fe  Fe31      1.0  0.10978  0.09254  0.77639  1.0000
  S   S59       1.0  0.12923  0.09540  0.73545  1.0000
  Fe  Fe32      1.0  0.07093  0.09203  0.79792  1.0000
  S   S60       1.0  0.04383  0.10162  0.78178  1.0000
  S   S61       1.0  0.11879  0.07814  0.82012  1.0000
  S   S62       1.0  0.07737  0.07745  0.84247  1.0000
  C   C98       1.0  0.09129  0.02190  0.75209  1.0000
  C   C99       1.0  0.09620  0.01614  0.78215  1.0000
  H   H95       1.0  0.05220  0.45363  0.86614  1.0000
  H   H96       1.0  0.08823  0.03563  0.74816  1.0000
  H   H97       1.0  0.07021  0.14933  0.81945  1.0000
  C   C100      1.0  0.13310  0.11478  0.71321  1.0000
  C   C101      1.0  0.14240  0.11347  0.68445  1.0000
  C   C102      1.0  0.14627  0.12856  0.66646  1.0000
  C   C103      1.0  0.14120  0.14520  0.67743  1.0000
  C   C104      1.0  0.13190  0.14652  0.70620  1.0000
  C   C105      1.0  0.12773  0.13139  0.72391  1.0000
  H   H98       1.0  0.14654  0.10068  0.67593  1.0000
  H   H99       1.0  0.15318  0.12728  0.64417  1.0000
  H   H100      1.0  0.12790  0.15933  0.71486  1.0000
  H   H101      1.0  0.12062  0.13259  0.74603  1.0000
  C   C106      1.0  0.14595  0.12970  0.96315  1.0000
  C   C107      1.0  0.15056  0.12161  0.93428  1.0000
  C   C108      1.0  0.13755  0.11564  0.91324  1.0000
  C   C109      1.0  0.11963  0.11770  0.92065  1.0000
  C   C110      1.0  0.11501  0.12585  0.94948  1.0000
  C   C111      1.0  0.12802  0.13176  0.97059  1.0000
  H   H102      1.0  0.16434  0.11992  0.92811  1.0000
  H   H103      1.0  0.14142  0.10943  0.89128  1.0000
  H   H104      1.0  0.10124  0.12750  0.95567  1.0000
  H   H105      1.0  0.01168  0.11497  0.86340  1.0000
  C   C112      1.0  0.23958  0.15425  0.60360  1.0000
  H   H106      1.0  0.13979  0.32165  0.52220  1.0000
  H   H107      1.0  0.17905  0.11177  0.53522  1.0000
  C   C113      1.0  0.23819  0.17011  0.62011  1.0000
  C   C114      1.0  0.02556  0.11830  0.86348  1.0000
  H   H108      1.0  0.22644  0.17818  0.61792  1.0000
  C   C115      1.0  0.16736  0.27239  0.58745  1.0000
  C   C116      1.0  0.17590  0.27127  0.55814  1.0000
  C   C117      1.0  0.17854  0.25477  0.54362  1.0000
  C   C118      1.0  0.17292  0.23919  0.55839  1.0000
  C   C119      1.0  0.16504  0.24025  0.58829  1.0000
  C   C120      1.0  0.16224  0.25677  0.60266  1.0000
  H   H109      1.0  0.19855  0.09903  0.52466  1.0000
  H   H110      1.0  0.21609  0.13817  0.51501  1.0000
  H   H111      1.0  0.16065  0.22840  0.59995  1.0000
  H   H112      1.0  0.15566  0.25747  0.62538  1.0000
  C   C121      1.0  0.24770  0.34732  0.59524  1.0000
  C   C122      1.0  0.24346  0.35678  0.62258  1.0000
  C   C123      1.0  0.14296  0.19739  0.99253  1.0000
  C   C124      1.0  0.05052  0.46621  0.85308  1.0000
  H   H113      1.0  0.22997  0.36094  0.62692  1.0000
  H   H114      1.0  0.18574  0.17197  0.95933  1.0000
  C   C125      1.0  0.13609  0.39641  0.91862  1.0000
  C   C126      1.0  0.12581  0.38134  0.92184  1.0000
  C   C127      1.0  0.12961  0.36885  0.94565  1.0000
  C   C128      1.0  0.14370  0.37116  0.96663  1.0000
  C   C129      1.0  0.15411  0.38611  0.96315  1.0000
  C   C130      1.0  0.15031  0.39862  0.93936  1.0000
  H   H115      1.0  0.11477  0.37942  0.90632  1.0000
  H   H116      1.0  0.12146  0.35733  0.94802  1.0000
  H   H117      1.0  0.05861  0.46507  0.79139  1.0000
  H   H118      1.0  0.15842  0.41016  0.93708  1.0000
  C   C131      1.0  0.11945  0.38729  0.71512  1.0000
  C   C132      1.0  0.11940  0.37309  0.69393  1.0000
  C   C133      1.0  0.13279  0.37107  0.67091  1.0000
  C   C134      1.0  0.14624  0.38341  0.66856  1.0000
  C   C135      1.0  0.14607  0.39783  0.68929  1.0000
  C   C136      1.0  0.13276  0.39977  0.71249  1.0000
  H   H119      1.0  0.10909  0.36343  0.69563  1.0000
  H   H120      1.0  0.13270  0.35999  0.65499  1.0000
  H   H121      1.0  0.15636  0.40751  0.68748  1.0000
  H   H122      1.0  0.13291  0.41080  0.72853  1.0000
  C   C137      1.0  0.09753  0.49337  0.77405  1.0000
  H   H123      1.0  0.05708  0.00897  0.78153  1.0000
  C   C138      1.0  0.10737  0.48995  0.74662  1.0000
  H   H124      1.0  0.04810  0.15508  0.80835  1.0000
  H   H125      1.0  0.11228  0.47679  0.74213  1.0000
  H   H126      1.0  0.08692  0.01455  0.70367  1.0000
  C   C139      1.0  0.02280  0.09487  0.79562  1.0000
  H   H127      1.0  0.16505  0.38807  0.97887  1.0000
  H   H128      1.0  0.25633  0.13181  0.59383  1.0000
  H   H129      1.0  0.03239  0.07747  0.83180  1.0000
  H   H130      1.0  0.24773  0.30601  0.61787  1.0000
  C   C140      1.0  0.02341  0.41693  0.83418  1.0000
  C   C141      1.0  0.13296  0.29643  0.54217  1.0000
  H   H131      1.0  0.03480  0.41399  0.78783  1.0000
  H   H132      1.0  0.22221  0.40051  0.53865  1.0000
  N   N9        1.0  0.14013  0.36638  0.77759  1.0000
  C   C142      1.0  0.15279  0.37803  0.76829  1.0000
  C   C143      1.0  0.13201  0.36807  0.80637  1.0000
  C   C144      1.0  0.15756  0.39184  0.78807  1.0000
  C   C145      1.0  0.13669  0.38153  0.82692  1.0000
  C   C146      1.0  0.14952  0.39350  0.81767  1.0000
  C   C147      1.0  0.13524  0.35180  0.75704  1.0000
  H   H133      1.0  0.15899  0.37693  0.74520  1.0000
  H   H134      1.0  0.12170  0.35908  0.81343  1.0000
  H   H135      1.0  0.16729  0.40130  0.78035  1.0000
  H   H136      1.0  0.13023  0.38283  0.84973  1.0000
  H   H137      1.0  0.15299  0.40419  0.83329  1.0000
  H   H138      1.0  0.12079  0.35226  0.75275  1.0000
  H   H139      1.0  0.14193  0.35253  0.73362  1.0000
  H   H140      1.0  0.13880  0.33905  0.76819  1.0000
  N   N10       1.0  0.05007  0.13303  0.83926  1.0000
  H   H141      1.0  0.17929  0.18228  0.92248  1.0000
  S   S63       1.0  0.16312  0.13792  0.98769  1.0000
  H   H142      1.0  0.07518  0.12859  0.86038  1.0000
  H   H143      1.0  0.24518  0.32449  0.66553  1.0000
  H   H144      1.0  0.03171  0.10194  0.90354  1.0000
  C   C148      1.0  0.12546  0.26726  0.56247  1.0000
  C   C149      1.0  0.03326  0.46066  0.77119  1.0000
  H   H145      1.0  0.14186  0.05729  0.74750  1.0000
  C   C150      1.0  0.21399  0.39427  0.52124  1.0000
  S   S64       1.0  0.14761  0.13244  0.50789  1.0000
  C   C151      1.0  0.19317  0.11252  0.52798  1.0000
  C   C152      1.0  0.05474  0.11473  0.88478  1.0000
  H   H146      1.0  0.13917  0.02436  0.78491  1.0000
  H   H147      1.0  0.04531  0.47641  0.86943  1.0000
  H   H148      1.0  0.12597  0.03544  0.68949  1.0000
  C   C153      1.0  0.02083  0.08323  0.82096  1.0000
  C   C154      1.0  0.12708  0.17689  0.96055  1.0000
  C   C155      1.0  0.12922  0.05010  0.74635  1.0000
  C   C156      1.0  0.14187  0.27128  0.51279  1.0000
  N   N11       1.0  0.15858  0.17880  0.95580  1.0000
  H   H149      1.0  0.21679  0.34305  0.50196  1.0000
  C   C157      1.0  0.09051  0.00989  0.72690  1.0000
  C   C158      1.0  0.14043  0.30749  0.51943  1.0000
  C   C159      1.0  0.03681  0.11089  0.88583  1.0000
  H   H150      1.0  0.20028  0.11886  0.54770  1.0000
  H   H151      1.0  0.10370  0.39383  0.97238  1.0000
  C   C160      1.0  0.13025  0.02622  0.70750  1.0000
  C   C161      1.0  0.14301  0.17171  0.94635  1.0000
  C   C162      1.0  0.12711  0.18976  0.98393  1.0000
  H   H152      1.0  0.14291  0.16152  0.92850  1.0000
  H   H153      1.0  0.14277  0.25709  0.51027  1.0000
  H   H154      1.0  0.23215  0.18548  0.71972  1.0000
  C   C163      1.0  0.05713  0.14388  0.81354  1.0000
  N   N12       1.0  0.20359  0.15219  0.67506  1.0000
  C   C164      1.0  0.22082  0.14819  0.68141  1.0000
  C   C165      1.0  0.19625  0.16774  0.68505  1.0000
  C   C166      1.0  0.23124  0.15997  0.69804  1.0000
  C   C167      1.0  0.20638  0.17996  0.70126  1.0000
  C   C168      1.0  0.22401  0.17603  0.70769  1.0000
  C   C169      1.0  0.19291  0.13943  0.65822  1.0000
  H   H155      1.0  0.22672  0.13601  0.67295  1.0000
  H   H156      1.0  0.18252  0.17087  0.68023  1.0000
  H   H157      1.0  0.19661  0.41667  0.51569  1.0000
  H   H158      1.0  0.20060  0.19242  0.70852  1.0000
  C   C170      1.0  0.17524  0.17295  0.94127  1.0000
  H   H159      1.0  0.20010  0.13455  0.63694  1.0000
  H   H160      1.0  0.18963  0.12824  0.67399  1.0000
  H   H161      1.0  0.18034  0.14541  0.65012  1.0000
  N   N13       1.0  0.03844  0.46373  0.82673  1.0000
  H   H162      1.0  0.12684  0.30220  0.56300  1.0000
  H   H163      1.0  0.05866  0.13577  0.79188  1.0000
  H   H164      1.0  0.24507  0.15699  0.70221  1.0000
  C   C171      1.0  0.04469  0.46338  0.79635  1.0000
  H   H165      1.0  0.17994  0.28314  0.54616  1.0000
  H   H166      1.0  0.17098  0.19759  0.98524  1.0000
  H   H167      1.0  0.06375  0.47052  0.84489  1.0000
  N   N14       1.0  0.13383  0.27857  0.53875  1.0000
  H   H168      1.0  0.17409  0.15954  0.93117  1.0000
  H   H169      1.0  0.11742  0.41261  0.96908  1.0000
  C   C172      1.0  0.25506  0.14406  0.60656  1.0000
  N   N15       1.0  0.13241  0.03167  0.73794  1.0000
  C   C173      1.0  0.10921  0.40494  0.98595  1.0000
  C   C174      1.0  0.02271  0.41535  0.80137  1.0000
  H   H170      1.0  0.12059  0.05693  0.72903  1.0000
  H   H171      1.0  0.12240  0.05105  0.76959  1.0000
  H   H172      1.0  0.11112  0.26639  0.55799  1.0000
  C   C175      1.0  0.03249  0.12928  0.84005  1.0000
  H   H173      1.0  0.25056  0.18749  0.65323  1.0000
  C   C176      1.0  0.13776  0.02005  0.76068  1.0000
  C   C177      1.0  0.15868  0.19174  0.97811  1.0000
  H   H174      1.0  0.06373  0.10885  0.90169  1.0000
  H   H175      1.0  0.22845  0.36987  0.52260  1.0000
  C   C178      1.0  0.00907  0.45873  0.80830  1.0000
  C   C179      1.0  0.02093  0.46123  0.83292  1.0000
  C   C180      1.0  0.25193  0.17540  0.64005  1.0000
  H   H176      1.0  0.13134  0.25380  0.56226  1.0000
  H   H177      1.0  0.02384  0.13419  0.82171  1.0000
  C   C181      1.0  0.01533  0.45836  0.77727  1.0000
  H   H178      1.0  0.18473  0.25408  0.52057  1.0000
  H   H179      1.0  0.03837  0.46012  0.74723  1.0000
  H   H180      1.0  0.11898  0.50093  0.70434  1.0000
  C   C182      1.0  0.19963  0.40330  0.50840  1.0000
  C   C183      1.0  0.21741  0.37689  0.51215  1.0000
  H   H181      1.0  0.14573  0.38719  0.49885  1.0000
  H   H182      1.0  0.25335  0.36875  0.66494  1.0000
  C   C184      1.0  0.11116  0.50370  0.72522  1.0000
  C   C185      1.0  0.25677  0.36119  0.64413  1.0000
  C   C186      1.0  0.25726  0.31707  0.66129  1.0000
  H   H183      1.0  0.01611  0.46077  0.85706  1.0000
  H   H184      1.0  0.12417  0.13791  0.99260  1.0000
  H   H185      1.0  0.09823  0.41345  0.99456  1.0000
  C   C187      1.0  0.13286  0.00855  0.69942  1.0000
  H   H186      1.0  0.11488  0.17068  0.95384  1.0000
  N   N16       1.0  0.19485  0.12257  0.49859  1.0000
  C   C188      1.0  0.25861  0.30657  0.63431  1.0000
  H   H187      1.0  0.00899  0.11132  0.76230  1.0000
  H   H188      1.0  0.11491  0.19375  0.99552  1.0000
  Fe  Fe33      1.0  0.09663  0.56391  0.19831  1.0000
  S   S65       1.0  0.08964  0.57785  0.24319  1.0000
  S   S66       1.0  0.09154  0.53437  0.19464  1.0000
  Fe  Fe34      1.0  0.10403  0.59892  0.16270  1.0000
  S   S67       1.0  0.09722  0.61493  0.20616  1.0000
  S   S68       1.0  0.10909  0.61558  0.11791  1.0000
  Fe  Fe35      1.0  0.11303  0.59482  0.23283  1.0000
  S   S69       1.0  0.13338  0.59931  0.27111  1.0000
  Fe  Fe36      1.0  0.07428  0.59661  0.21263  1.0000
  S   S70       1.0  0.04719  0.60513  0.23110  1.0000
  S   S71       1.0  0.12132  0.57965  0.18922  1.0000
  S   S72       1.0  0.07988  0.58187  0.16797  1.0000
  Fe  Fe37      1.0  0.16182  0.65818  0.46544  1.0000
  S   S73       1.0  0.14675  0.67968  0.44034  1.0000
  H   H189      1.0  0.06876  0.91537  0.06262  1.0000
  Fe  Fe38      1.0  0.19641  0.66813  0.42918  1.0000
  S   S74       1.0  0.18319  0.68984  0.40179  1.0000
  S   S75       1.0  0.22637  0.66338  0.42832  1.0000
  Fe  Fe39      1.0  0.17011  0.69704  0.44783  1.0000
  S   S76       1.0  0.16980  0.72452  0.46959  1.0000
  Fe  Fe40      1.0  0.16094  0.67059  0.39632  1.0000
  S   S77       1.0  0.14416  0.66864  0.35210  1.0000
  S   S78       1.0  0.18440  0.67617  0.47605  1.0000
  S   S79       1.0  0.17498  0.64828  0.42055  1.0000
  Fe  Fe41      1.0  0.16433  0.82528  0.42924  1.0000
  S   S80       1.0  0.18145  0.82887  0.47162  1.0000
  S   S81       1.0  0.15364  0.79988  0.40901  1.0000
  Fe  Fe42      1.0  0.16984  0.86286  0.40655  1.0000
  S   S82       1.0  0.18787  0.86894  0.44688  1.0000
  S   S83       1.0  0.16639  0.88353  0.36822  1.0000
  Fe  Fe43      1.0  0.20021  0.84242  0.43811  1.0000
  S   S84       1.0  0.22896  0.83310  0.43790  1.0000
  Fe  Fe44      1.0  0.16754  0.85526  0.47729  1.0000
  S   S85       1.0  0.15723  0.84758  0.03578  1.0000
  S   S86       1.0  0.18378  0.83744  0.39571  1.0000
  S   S87       1.0  0.14886  0.85064  0.43693  1.0000
  Fe  Fe45      1.0  0.06831  0.91461  0.18579  1.0000
  S   S88       1.0  0.08518  0.93399  0.16032  1.0000
  S   S89       1.0  0.04181  0.91167  0.16175  1.0000
  Fe  Fe46      1.0  0.09821  0.90624  0.23131  1.0000
  S   S90       1.0  0.11708  0.92536  0.20821  1.0000
  S   S91       1.0  0.10207  0.88781  0.27335  1.0000
  Fe  Fe47      1.0  0.09339  0.94380  0.20782  1.0000
  S   S92       1.0  0.08918  0.97367  0.21085  1.0000
  Fe  Fe48      1.0  0.10715  0.91398  0.16226  1.0000
  S   S93       1.0  0.12096  0.91077  0.11388  1.0000
  S   S94       1.0  0.07515  0.92533  0.23326  1.0000
  S   S95       1.0  0.08974  0.89395  0.18537  1.0000
  C   C189      1.0  0.09342  0.98911  0.24124  1.0000
  C   C190      1.0  0.21141  0.74126  0.47047  1.0000
  C   C191      1.0  0.10501  0.98550  0.26596  1.0000
  C   C192      1.0  0.20623  0.79148  0.42743  1.0000
  H   H190      1.0  0.11096  0.97257  0.26804  1.0000
  C   C193      1.0  0.14791  0.88554  0.34328  1.0000
  C   C194      1.0  0.13214  0.87689  0.34984  1.0000
  C   C195      1.0  0.11790  0.87848  0.32892  1.0000
  C   C196      1.0  0.11939  0.88842  0.30101  1.0000
  C   C197      1.0  0.13503  0.89736  0.29482  1.0000
  C   C198      1.0  0.14918  0.89600  0.31600  1.0000
  H   H191      1.0  0.13094  0.86888  0.37085  1.0000
  H   H192      1.0  0.10578  0.87161  0.33398  1.0000
  H   H193      1.0  0.13635  0.90507  0.27346  1.0000
  H   H194      1.0  0.16130  0.90286  0.31089  1.0000
  C   C199      1.0  0.14643  0.86508  0.05664  1.0000
  C   C200      1.0  0.14173  0.86263  0.08858  1.0000
  C   C201      1.0  0.13389  0.87635  0.10648  1.0000
  C   C202      1.0  0.13087  0.89285  0.09278  1.0000
  C   C203      1.0  0.13560  0.89530  0.06084  1.0000
  C   C204      1.0  0.14314  0.88149  0.04280  1.0000
  H   H195      1.0  0.14427  0.85004  0.09965  1.0000
  H   H196      1.0  0.13036  0.87421  0.13096  1.0000
  H   H197      1.0  0.13333  0.90797  0.04990  1.0000
  H   H198      1.0  0.05691  0.96281  0.24934  1.0000
  C   C205      1.0  0.24607  0.84101  0.41280  1.0000
  H   H199      1.0  0.03151  0.90959  0.22838  1.0000
  C   C206      1.0  0.24396  0.85621  0.39456  1.0000
  H   H200      1.0  0.17110  0.75934  0.49455  1.0000
  H   H201      1.0  0.23155  0.86334  0.39519  1.0000
  C   C207      1.0  0.16454  0.74519  0.45234  1.0000
  C   C208      1.0  0.15885  0.74687  0.42116  1.0000
  C   C209      1.0  0.15539  0.76367  0.40832  1.0000
  C   C210      1.0  0.15786  0.77897  0.42628  1.0000
  C   C211      1.0  0.16367  0.77728  0.45735  1.0000
  C   C212      1.0  0.16681  0.76048  0.47036  1.0000
  H   H202      1.0  0.15701  0.73522  0.40705  1.0000
  H   H203      1.0  0.15082  0.76482  0.38431  1.0000
  H   H204      1.0  0.16552  0.78889  0.47153  1.0000
  H   H205      1.0  0.24430  0.67076  0.31687  1.0000
  C   C213      1.0  0.24129  0.66847  0.39707  1.0000
  H   H206      1.0  0.20477  0.80438  0.41674  1.0000
  C   C214      1.0  0.23595  0.66908  0.36560  1.0000
  S   S96       1.0  0.16730  0.63037  0.00991  1.0000
  H   H207      1.0  0.22214  0.66772  0.36005  1.0000
  C   C215      1.0  0.13606  0.61875  0.29330  1.0000
  C   C216      1.0  0.12546  0.63366  0.28866  1.0000
  C   C217      1.0  0.12834  0.64896  0.30646  1.0000
  C   C218      1.0  0.14158  0.64937  0.32945  1.0000
  C   C219      1.0  0.15213  0.63444  0.33412  1.0000
  C   C220      1.0  0.14946  0.61926  0.31593  1.0000
  H   H208      1.0  0.11515  0.63345  0.27121  1.0000
  H   H209      1.0  0.12014  0.66048  0.30267  1.0000
  H   H210      1.0  0.16238  0.63460  0.35167  1.0000
  H   H211      1.0  0.15776  0.60779  0.31959  1.0000
  C   C221      1.0  0.12565  0.61948  0.08839  1.0000
  C   C222      1.0  0.12308  0.63333  0.06670  1.0000
  C   C223      1.0  0.13575  0.63710  0.04301  1.0000
  C   C224      1.0  0.15120  0.62696  0.04045  1.0000
  C   C225      1.0  0.15379  0.61313  0.06218  1.0000
  C   C226      1.0  0.14119  0.60946  0.08605  1.0000
  H   H212      1.0  0.11115  0.64123  0.06820  1.0000
  H   H213      1.0  0.17615  0.90242  0.03415  1.0000
  H   H214      1.0  0.16563  0.60512  0.06045  1.0000
  H   H215      1.0  0.14341  0.59870  0.10230  1.0000
  C   C227      1.0  0.10763  0.52147  0.24898  1.0000
  C   C228      1.0  0.09638  0.51815  0.22381  1.0000
  H   H216      1.0  0.21945  0.77206  0.49536  1.0000
  H   H217      1.0  0.11341  0.53433  0.25139  1.0000
  N   N17       1.0  0.16145  0.90758  0.47462  1.0000
  H   H218      1.0  0.10206  0.63116  0.35045  1.0000
  C   C229      1.0  0.02111  0.91195  0.18151  1.0000
  C   C230      1.0  0.01101  0.60385  0.22894  1.0000
  H   H219      1.0  0.19543  0.77769  0.38790  1.0000
  H   H220      1.0  0.05472  0.96213  0.19133  1.0000
  H   H221      1.0  0.20502  0.85472  0.05149  1.0000
  C   C231      1.0  0.02691  0.60056  0.21251  1.0000
  C   C232      1.0  0.02627  0.59329  0.18230  1.0000
  H   H222      1.0  0.09309  0.65713  0.40359  1.0000
  H   H223      1.0  0.03837  0.59075  0.16934  1.0000
  C   C233      1.0  0.09155  0.85870  0.08866  1.0000
  C   C234      1.0  0.21289  0.78986  0.45783  1.0000
  H   H224      1.0  0.00959  0.58349  0.14553  1.0000
  H   H225      1.0  0.03032  0.95688  0.28244  1.0000
  H   H226      1.0  0.09588  0.89601  0.04561  1.0000
  H   H227      1.0  0.14307  0.61657  0.43675  1.0000
  H   H228      1.0  0.24639  0.62737  0.40854  1.0000
  H   H229      1.0  0.11381  0.90272  0.44462  1.0000
  C   C235      1.0  0.07416  0.91190  0.08608  1.0000
  C   C236      1.0  0.04799  0.55146  0.21777  1.0000
  C   C237      1.0  0.12717  0.90423  0.45302  1.0000
  C   C238      1.0  0.08002  0.86507  0.11192  1.0000
  H   H230      1.0  0.13911  0.90139  0.40691  1.0000
  H   H231      1.0  0.09648  0.84527  0.08970  1.0000
  H   H232      1.0  0.12824  0.64551  0.43476  1.0000
  H   H233      1.0  0.02565  0.97010  0.14803  1.0000
  C   C239      1.0  0.01974  0.91095  0.21436  1.0000
  H   H234      1.0  0.16943  0.90431  0.42646  1.0000
  C   C240      1.0  0.11899  0.61132  0.37022  1.0000
  C   C241      1.0  0.13402  0.61957  0.41772  1.0000
  N   N18       1.0  0.11456  0.64014  0.39221  1.0000
  H   H235      1.0  0.21667  0.80153  0.47072  1.0000
  C   C242      1.0  0.12566  0.63602  0.41641  1.0000
  H   H236      1.0  0.18095  0.87532  0.06585  1.0000
  C   C243      1.0  0.10941  0.99887  0.28746  1.0000
  N   N19       1.0  0.02725  0.95641  0.19151  1.0000
  N   N20       1.0  0.13843  0.64164  0.18206  1.0000
  C   C244      1.0  0.14319  0.65029  0.20888  1.0000
  C   C245      1.0  0.14364  0.62457  0.17728  1.0000
  C   C246      1.0  0.15387  0.64201  0.23130  1.0000
  C   C247      1.0  0.15415  0.61583  0.19938  1.0000
  C   C248      1.0  0.15937  0.62468  0.22643  1.0000
  C   C249      1.0  0.12696  0.65029  0.15898  1.0000
  H   H237      1.0  0.13861  0.66362  0.21327  1.0000
  H   H238      1.0  0.13950  0.61755  0.15645  1.0000
  H   H239      1.0  0.15741  0.64877  0.25283  1.0000
  H   H240      1.0  0.15787  0.60216  0.19596  1.0000
  H   H241      1.0  0.16706  0.61786  0.24423  1.0000
  H   H242      1.0  0.13146  0.64724  0.13454  1.0000
  H   H243      1.0  0.11325  0.64549  0.16186  1.0000
  H   H244      1.0  0.12690  0.66481  0.16151  1.0000
  H   H245      1.0  0.19870  0.74843  0.41293  1.0000
  C   C250      1.0  0.15851  0.90514  0.44313  1.0000
  C   C251      1.0  0.18974  0.87839  0.04631  1.0000
  C   C252      1.0  0.09698  0.86980  0.06431  1.0000
  H   H246      1.0  0.13739  0.59452  0.39473  1.0000
  C   C253      1.0  0.01331  0.95377  0.24241  1.0000
  H   H247      1.0  0.10626  0.86509  0.04651  1.0000
  H   H248      1.0  0.01444  0.94925  0.14879  1.0000
  C   C254      1.0  0.09102  0.88726  0.06387  1.0000
  C   C255      1.0  0.14134  0.90345  0.43187  1.0000
  S   S97       1.0  0.14499  0.63839  0.49399  1.0000
  C   C256      1.0  0.22908  0.85835  0.00595  1.0000
  C   C257      1.0  0.02622  0.95640  0.15701  1.0000
  H   H249      1.0  0.06527  0.88741  0.12881  1.0000
  C   C258      1.0  0.20349  0.86683  0.03821  1.0000
  H   H250      1.0  0.03782  0.55522  0.28566  1.0000
  C   C259      1.0  0.20123  0.77648  0.41110  1.0000
  N   N21       1.0  0.20971  0.75851  0.45526  1.0000
  H   H251      1.0  0.07580  0.85663  0.13115  1.0000
  H   H252      1.0  0.11440  0.66760  0.40223  1.0000
  C   C260      1.0  0.07415  0.88255  0.11052  1.0000
  N   N22       1.0  0.07974  0.89340  0.08676  1.0000
  H   H253      1.0  0.11866  0.99603  0.30612  1.0000
  C   C261      1.0  0.00991  0.58923  0.16884  1.0000
  C   C262      1.0  0.13075  0.60721  0.39432  1.0000
  N   N23       1.0  0.15007  0.84160  0.31290  1.0000
  C   C263      1.0  0.14702  0.82954  0.33628  1.0000
  C   C264      1.0  0.13682  0.84655  0.29296  1.0000
  C   C265      1.0  0.13019  0.82265  0.34100  1.0000
  C   C266      1.0  0.11982  0.83993  0.29699  1.0000
  C   C267      1.0  0.11649  0.82799  0.32131  1.0000
  C   C268      1.0  0.16779  0.84874  0.30853  1.0000
  H   H254      1.0  0.15755  0.82523  0.35168  1.0000
  H   H255      1.0  0.13913  0.85621  0.27454  1.0000
  H   H256      1.0  0.12786  0.81332  0.36001  1.0000
  H   H257      1.0  0.10920  0.84456  0.28195  1.0000
  H   H258      1.0  0.10331  0.82297  0.32503  1.0000
  H   H259      1.0  0.16734  0.86177  0.29660  1.0000
  H   H260      1.0  0.17413  0.85100  0.33167  1.0000
  H   H261      1.0  0.17609  0.83954  0.29441  1.0000
  C   C269      1.0  0.04300  0.95983  0.20554  1.0000
  N   N24       1.0  0.03468  0.55817  0.23628  1.0000
  C   C270      1.0  0.11088  0.62792  0.36964  1.0000
  C   C271      1.0  0.20310  0.75998  0.42543  1.0000
  C   C272      1.0  0.03868  0.56556  0.26725  1.0000
  H   H262      1.0  0.06379  0.91480  0.10409  1.0000
  H   H263      1.0  0.20252  0.74062  0.49145  1.0000
  C   C273      1.0  0.21449  0.77319  0.47153  1.0000
  H   H264      1.0  0.11656  0.60193  0.35155  1.0000
  H   H265      1.0  0.18335  0.73693  0.00205  1.0000
  C   C274      1.0  0.19825  0.89716  0.00304  1.0000
  H   H266      1.0  0.13348  0.64780  0.02664  1.0000
  H   H267      1.0  0.10415  0.66188  0.36632  1.0000
  C   C275      1.0  0.17946  0.90895  0.48654  1.0000
  H   H268      1.0  0.02405  0.53845  0.15484  1.0000
  H   H269      1.0  0.06154  0.55175  0.22564  1.0000
  C   C276      1.0  0.10600  0.65749  0.39112  1.0000
  C   C277      1.0  0.24857  0.67073  0.34115  1.0000
  H   H270      1.0  0.05210  0.57127  0.26738  1.0000
  C   C278      1.0  0.04438  0.54429  0.18824  1.0000
  H   H271      1.0  0.08565  0.92039  0.09101  1.0000
  H   H272      1.0  0.02948  0.57659  0.27310  1.0000
  C   C279      1.0  0.08594  0.00607  0.23889  1.0000
  C   C280      1.0  0.01244  0.95371  0.20947  1.0000
  H   H273      1.0  0.14663  0.88363  0.01829  1.0000
  H   H274      1.0  0.25298  0.62757  0.35100  1.0000
  H   H275      1.0  0.05509  0.53930  0.17348  1.0000
  C   C281      1.0  0.14762  0.90840  0.49550  1.0000
  H   H276      1.0  0.20753  0.73039  0.45454  1.0000
  C   C282      1.0  0.18705  0.89359  0.02849  1.0000
  C   C283      1.0  0.04431  0.96022  0.23841  1.0000
  C   C284      1.0  0.02700  0.54373  0.17791  1.0000
  H   H277      1.0  0.23551  0.85328  0.02761  1.0000
  H   H278      1.0  0.22521  0.73879  0.47785  1.0000
  H   H279      1.0  0.03789  0.94950  0.14664  1.0000
  C   C285      1.0  0.01344  0.55017  0.19729  1.0000
  C   C286      1.0  0.02939  0.95699  0.25692  1.0000
  N   N25       1.0  0.21471  0.87067  0.01378  1.0000
  H   H280      1.0  0.12084  0.51066  0.28967  1.0000
  H   H281      1.0  0.18938  0.90953  0.46714  1.0000
  H   H282      1.0  0.11231  0.99922  0.16501  1.0000
  C   C287      1.0  0.01755  0.55736  0.22662  1.0000
  H   H283      1.0  0.20313  0.72556  0.01522  1.0000
  H   H284      1.0  0.13146  0.99607  0.21177  1.0000
  C   C288      1.0  0.13029  0.90679  0.48505  1.0000
  H   H285      1.0  0.25637  0.87437  0.36229  1.0000
  C   C289      1.0  0.25808  0.86244  0.37593  1.0000
  H   H286      1.0  0.01137  0.60958  0.25225  1.0000
  C   C290      1.0  0.11183  0.50799  0.27068  1.0000
  Fe  Fe49      1.0  0.10083  0.56651  0.70228  1.0000
  S   S98       1.0  0.07755  0.57771  0.72880  1.0000
  S   S99       1.0  0.11062  0.53791  0.70336  1.0000
  Fe  Fe50      1.0  0.10821  0.60176  0.66673  1.0000
  S   S100      1.0  0.08515  0.61505  0.69105  1.0000
  S   S101      1.0  0.12864  0.61805  0.63884  1.0000
  Fe  Fe51      1.0  0.09463  0.60158  0.73528  1.0000
  S   S102      1.0  0.09471  0.61718  0.78114  1.0000
  Fe  Fe52      1.0  0.07004  0.59019  0.68259  1.0000
  S   S103      1.0  0.04296  0.58815  0.65976  1.0000
  S   S104      1.0  0.11847  0.58957  0.71179  1.0000
  S   S105      1.0  0.09260  0.57767  0.65517  1.0000
  Fe  Fe53      1.0  0.17120  0.65047  0.96962  1.0000
  S   S106      1.0  0.15020  0.66209  0.93835  1.0000
  H   H287      1.0  0.11398  0.55557  0.57372  1.0000
  Fe  Fe54      1.0  0.20138  0.66870  0.93100  1.0000
  S   S107      1.0  0.18222  0.68168  0.89803  1.0000
  S   S108      1.0  0.23042  0.67661  0.92830  1.0000
  Fe  Fe55      1.0  0.16583  0.68732  0.94131  1.0000
  S   S109      1.0  0.15391  0.71372  0.95635  1.0000
  Fe  Fe56      1.0  0.16850  0.65548  0.89768  1.0000
  S   S110      1.0  0.16421  0.64091  0.85143  1.0000
  S   S111      1.0  0.18576  0.67589  0.97476  1.0000
  S   S112      1.0  0.18872  0.64224  0.92859  1.0000
  Fe  Fe57      1.0  0.17374  0.81734  0.93149  1.0000
  S   S113      1.0  0.19014  0.82964  0.96940  1.0000
  S   S114      1.0  0.17811  0.78982  0.91083  1.0000
  Fe  Fe58      1.0  0.15619  0.85280  0.91505  1.0000
  S   S115      1.0  0.17169  0.86765  0.95119  1.0000
  S   S116      1.0  0.13278  0.86368  0.88788  1.0000
  Fe  Fe59      1.0  0.19495  0.85120  0.93407  1.0000
  S   S117      1.0  0.22239  0.86292  0.92842  1.0000
  C   C291      1.0  0.13801  0.99654  0.72257  1.0000
  C   C292      1.0  0.20495  0.74910  0.95884  1.0000
  S   S118      1.0  0.17981  0.83840  0.89550  1.0000
  S   S119      1.0  0.14886  0.83083  0.94826  1.0000
  Fe  Fe60      1.0  0.07267  0.91673  0.71615  1.0000
  S   S120      1.0  0.07660  0.93233  0.67194  1.0000
  S   S121      1.0  0.04588  0.91050  0.73791  1.0000
  Fe  Fe61      1.0  0.11230  0.91427  0.72832  1.0000
  S   S122      1.0  0.11883  0.93032  0.68483  1.0000
  S   S123      1.0  0.13575  0.90470  0.75691  1.0000
  Fe  Fe62      1.0  0.09607  0.94767  0.70050  1.0000
  S   S124      1.0  0.09419  0.97765  0.69844  1.0000
  Fe  Fe63      1.0  0.09899  0.91341  0.66036  1.0000
  S   S125      1.0  0.09937  0.90089  0.61085  1.0000
  S   S126      1.0  0.09105  0.93289  0.74534  1.0000
  S   S127      1.0  0.09352  0.89657  0.70317  1.0000
  C   C293      1.0  0.09454  0.99198  0.73141  1.0000
  H   H288      1.0  0.03347  0.96392  0.71127  1.0000
  C   C294      1.0  0.09913  0.98613  0.76158  1.0000
  C   C295      1.0  0.05845  0.96587  0.80264  1.0000
  H   H289      1.0  0.10231  0.97240  0.76542  1.0000
  C   C296      1.0  0.13396  0.87584  0.85231  1.0000
  C   C297      1.0  0.15007  0.87966  0.83771  1.0000
  C   C298      1.0  0.15037  0.88854  0.80852  1.0000
  C   C299      1.0  0.13462  0.89369  0.79369  1.0000
  C   C300      1.0  0.11852  0.88984  0.80830  1.0000
  C   C301      1.0  0.11822  0.88095  0.83748  1.0000
  H   H290      1.0  0.16228  0.87574  0.84882  1.0000
  H   H291      1.0  0.16287  0.89151  0.79737  1.0000
  H   H292      1.0  0.10633  0.89372  0.79711  1.0000
  H   H293      1.0  0.10570  0.87797  0.84856  1.0000
  C   C302      1.0  0.14441  0.87640  0.54954  1.0000
  C   C303      1.0  0.14818  0.88466  0.57838  1.0000
  C   C304      1.0  0.13464  0.89202  0.59755  1.0000
  C   C305      1.0  0.11704  0.89132  0.58811  1.0000
  C   C306      1.0  0.11325  0.88303  0.55926  1.0000
  C   C307      1.0  0.12679  0.87557  0.54018  1.0000
  H   H294      1.0  0.16171  0.88542  0.58601  1.0000
  H   H295      1.0  0.13787  0.89829  0.61960  1.0000
  H   H296      1.0  0.09972  0.88232  0.55165  1.0000
  H   H297      1.0  0.10171  0.53875  0.63554  1.0000
  C   C308      1.0  0.23945  0.85496  0.90290  1.0000
  H   H298      1.0  0.12112  0.52532  0.64054  1.0000
  C   C309      1.0  0.23686  0.84094  0.88224  1.0000
  H   H299      1.0  0.18196  0.75575  0.88304  1.0000
  H   H300      1.0  0.22418  0.83462  0.88156  1.0000
  C   C310      1.0  0.15999  0.73486  0.94245  1.0000
  C   C311      1.0  0.16965  0.73714  0.91453  1.0000
  C   C312      1.0  0.17446  0.75415  0.90467  1.0000
  C   C313      1.0  0.17009  0.76901  0.92296  1.0000
  C   C314      1.0  0.16031  0.76675  0.95075  1.0000
  C   C315      1.0  0.15515  0.74977  0.96025  1.0000
  H   H301      1.0  0.17335  0.72582  0.90047  1.0000
  H   H302      1.0  0.13766  0.54888  0.66369  1.0000
  H   H303      1.0  0.15678  0.77805  0.96501  1.0000
  H   H304      1.0  0.08376  0.51347  0.80061  1.0000
  C   C316      1.0  0.24602  0.66976  0.89909  1.0000
  C   C317      1.0  0.15540  0.60817  0.93410  1.0000
  C   C318      1.0  0.24362  0.65470  0.88083  1.0000
  H   H305      1.0  0.21479  0.76768  0.92454  1.0000
  H   H306      1.0  0.23154  0.64737  0.88318  1.0000
  C   C319      1.0  0.11405  0.62303  0.80140  1.0000
  C   C320      1.0  0.13069  0.61712  0.79151  1.0000
  C   C321      1.0  0.14585  0.62261  0.80742  1.0000
  C   C322      1.0  0.14455  0.63409  0.83328  1.0000
  C   C323      1.0  0.12790  0.63981  0.84353  1.0000
  C   C324      1.0  0.11271  0.63428  0.82762  1.0000
  H   H307      1.0  0.13191  0.60844  0.77144  1.0000
  H   H308      1.0  0.15869  0.61808  0.79939  1.0000
  H   H309      1.0  0.12673  0.64861  0.86346  1.0000
  H   H310      1.0  0.09985  0.63887  0.83546  1.0000
  C   C325      1.0  0.13212  0.62447  0.59853  1.0000
  C   C326      1.0  0.14634  0.63554  0.59101  1.0000
  C   C327      1.0  0.15022  0.64032  0.55942  1.0000
  C   C328      1.0  0.14009  0.63387  0.53467  1.0000
  C   C329      1.0  0.12585  0.62280  0.54222  1.0000
  C   C330      1.0  0.12177  0.61828  0.57385  1.0000
  H   H311      1.0  0.15450  0.64044  0.60974  1.0000
  C   C331      1.0  0.15996  0.83707  0.80594  1.0000
  H   H312      1.0  0.11784  0.61775  0.52341  1.0000
  H   H313      1.0  0.11071  0.60989  0.57908  1.0000
  C   C332      1.0  0.09497  0.52433  0.75793  1.0000
  C   C333      1.0  0.10503  0.52098  0.73074  1.0000
  C   C334      1.0  0.25606  0.86302  0.90334  1.0000
  H   H314      1.0  0.09019  0.53752  0.76261  1.0000
  H   H315      1.0  0.13944  0.98270  0.71683  1.0000
  H   H316      1.0  0.18647  0.71437  0.99285  1.0000
  C   C335      1.0  0.02504  0.91468  0.72060  1.0000
  C   C336      1.0  0.02348  0.92219  0.69062  1.0000
  H   H317      1.0  0.11244  0.60834  0.91554  1.0000
  H   H318      1.0  0.03515  0.92605  0.67764  1.0000
  C   C337      1.0  0.05232  0.98705  0.75050  1.0000
  C   C338      1.0  0.02206  0.59316  0.67695  1.0000
  H   H319      1.0  0.04776  0.85855  0.68756  1.0000
  H   H320      1.0  0.03191  0.60121  0.72199  1.0000
  C   C339      1.0  0.17301  0.82469  0.81329  1.0000
  H   H321      1.0  0.23942  0.86470  0.99117  1.0000
  H   H322      1.0  0.18075  0.92095  0.50114  1.0000
  H   H323      1.0  0.10380  0.99356  0.80991  1.0000
  C   C340      1.0  0.25065  0.83523  0.86204  1.0000
  C   C341      1.0  0.05489  0.88823  0.64401  1.0000
  H   H324      1.0  0.12487  0.59954  0.86370  1.0000
  H   H325      1.0  0.11179  0.52765  0.60207  1.0000
  H   H326      1.0  0.13181  0.58216  0.56403  1.0000
  H   H327      1.0  0.22724  0.74435  0.88938  1.0000
  C   C342      1.0  0.04753  0.96150  0.71701  1.0000
  H   H328      1.0  0.12359  0.86924  0.51819  1.0000
  C   C343      1.0  0.05932  0.98410  0.80566  1.0000
  H   H329      1.0  0.03608  0.87487  0.71119  1.0000
  H   H330      1.0  0.05881  0.87770  0.70262  1.0000
  H   H331      1.0  0.18592  0.82541  0.80219  1.0000
  C   C344      1.0  0.14498  0.58040  0.60867  1.0000
  H   H332      1.0  0.22071  0.88837  0.97609  1.0000
  S   S128      1.0  0.16234  0.86840  0.52558  1.0000
  C   C345      1.0  0.16277  0.60338  0.90498  1.0000
  C   C346      1.0  0.15172  0.59999  0.87967  1.0000
  H   H333      1.0  0.25526  0.63688  0.84672  1.0000
  C   C347      1.0  0.21872  0.72321  0.91956  1.0000
  C   C348      1.0  0.01987  0.89353  0.62804  1.0000
  C   C349      1.0  0.14353  0.83618  0.82103  1.0000
  N   N26       1.0  0.13752  0.60965  0.93784  1.0000
  H   H334      1.0  0.04992  0.94709  0.71686  1.0000
  C   C350      1.0  0.12659  0.60669  0.91294  1.0000
  H   H335      1.0  0.16124  0.64877  0.55420  1.0000
  C   C351      1.0  0.13351  0.60164  0.88359  1.0000
  H   H336      1.0  0.17697  0.60272  0.90184  1.0000
  H   H337      1.0  0.22397  0.71286  0.90443  1.0000
  C   C352      1.0  0.13333  0.57471  0.58572  1.0000
  H   H338      1.0  0.06109  0.95740  0.82271  1.0000
  H   H339      1.0  0.02976  0.90705  0.58690  1.0000
  H   H340      1.0  0.13352  0.84593  0.81527  1.0000
  C   C353      1.0  0.05606  0.99479  0.77954  1.0000
  H   H341      1.0  0.15731  0.59668  0.85676  1.0000
  H   H342      1.0  0.20839  0.70516  0.95370  1.0000
  Fe  Fe64      1.0  0.16557  0.84507  0.98356  1.0000
  N   N27       1.0  0.12030  0.65244  0.73988  1.0000
  C   C354      1.0  0.13168  0.65835  0.76225  1.0000
  C   C355      1.0  0.12656  0.64366  0.71389  1.0000
  C   C356      1.0  0.14981  0.65508  0.75935  1.0000
  C   C357      1.0  0.14459  0.64013  0.71027  1.0000
  C   C358      1.0  0.15625  0.64581  0.73325  1.0000
  C   C359      1.0  0.10141  0.65634  0.74302  1.0000
  H   H343      1.0  0.12674  0.66521  0.78296  1.0000
  H   H344      1.0  0.11762  0.63922  0.69581  1.0000
  H   H345      1.0  0.15871  0.65925  0.77774  1.0000
  H   H346      1.0  0.14941  0.63297  0.68975  1.0000
  H   H347      1.0  0.17025  0.64297  0.73095  1.0000
  H   H348      1.0  0.09824  0.66915  0.73179  1.0000
  H   H349      1.0  0.09345  0.64591  0.73189  1.0000
  H   H350      1.0  0.09727  0.65659  0.76826  1.0000
  H   H351      1.0  0.06125  0.90206  0.60096  1.0000
  C   C360      1.0  0.05438  0.95858  0.77336  1.0000
  H   H352      1.0  0.05367  0.94438  0.77122  1.0000
  C   C361      1.0  0.22064  0.74084  0.91127  1.0000
  H   H353      1.0  0.15503  0.57580  0.65534  1.0000
  H   H354      1.0  0.17955  0.80203  0.84188  1.0000
  N   N28       1.0  0.05164  0.96918  0.74768  1.0000
  H   H355      1.0  0.14423  0.99301  0.77169  1.0000
  N   N29       1.0  0.04179  0.88236  0.66366  1.0000
  H   H356      1.0  0.24842  0.82453  0.84589  1.0000
  H   H357      1.0  0.11941  0.90719  0.50186  1.0000
  C   C362      1.0  0.11445  0.53475  0.62434  1.0000
  H   H358      1.0  0.01074  0.90385  0.76017  1.0000
  C   C363      1.0  0.10000  0.99817  0.78676  1.0000
  C   C364      1.0  0.16944  0.81156  0.83543  1.0000
  N   N30       1.0  0.14029  0.82352  0.84328  1.0000
  C   C365      1.0  0.15292  0.81121  0.85036  1.0000
  C   C366      1.0  0.12329  0.82302  0.85994  1.0000
  H   H359      1.0  0.15042  0.80126  0.86819  1.0000
  H   H360      1.0  0.11465  0.83436  0.85348  1.0000
  H   H361      1.0  0.11635  0.81066  0.85452  1.0000
  H   H362      1.0  0.12542  0.82393  0.88581  1.0000
  N   N31       1.0  0.12527  0.55030  0.61872  1.0000
  C   C367      1.0  0.13648  0.55597  0.64156  1.0000
  C   C368      1.0  0.12335  0.55965  0.59132  1.0000
  C   C369      1.0  0.14646  0.57112  0.63693  1.0000
  H   H363      1.0  0.14999  0.90991  0.52056  1.0000
  C   C370      1.0  0.21383  0.75391  0.93110  1.0000
  H   H364      1.0  0.19925  0.75934  0.97363  1.0000
  H   H365      1.0  0.16260  0.84750  0.78907  1.0000
  C   C371      1.0  0.20980  0.71889  0.94749  1.0000
  C   C372      1.0  0.02027  0.59922  0.70794  1.0000
  C   C373      1.0  0.19359  0.72695  0.99569  1.0000
  H   H366      1.0  0.05043  0.99542  0.73001  1.0000
  H   H367      1.0  0.14754  0.74815  0.98175  1.0000
  H   H368      1.0  0.15249  0.59231  0.60493  1.0000
  C   C374      1.0  0.09134  0.51063  0.77946  1.0000
  H   H369      1.0  0.06866  0.88610  0.64978  1.0000
  C   C375      1.0  0.25712  0.64876  0.86018  1.0000
  H   H370      1.0  0.06284  0.98997  0.82801  1.0000
  H   H371      1.0  0.05608  0.96725  0.69826  1.0000
  H   H372      1.0  0.22384  0.84717  0.99224  1.0000
  C   C376      1.0  0.03313  0.89993  0.60825  1.0000
  C   C377      1.0  0.05077  0.89721  0.61617  1.0000
  N   N32       1.0  0.20280  0.73177  0.96643  1.0000
  C   C378      1.0  0.04632  0.87280  0.69257  1.0000
  C   C379      1.0  0.02446  0.88467  0.65578  1.0000
  H   H373      1.0  0.16408  0.61089  0.95363  1.0000
  C   C380      1.0  0.14063  0.00232  0.75336  1.0000
  H   H374      1.0  0.13660  0.60761  0.98786  1.0000
  H   H375      1.0  0.13279  0.62933  0.97221  1.0000
  C   C381      1.0  0.00968  0.90965  0.73692  1.0000
  H   H376      1.0  0.01404  0.88017  0.67143  1.0000
  H   H377      1.0  0.19609  0.90874  0.98855  1.0000
  H   H378      1.0  0.13031  0.00405  0.67564  1.0000
  H   H379      1.0  0.11582  0.61294  0.97030  1.0000
  C   C382      1.0  0.13023  0.61514  0.96845  1.0000
  H   H380      1.0  0.18263  0.89726  0.50137  1.0000
  H   H381      1.0  0.25824  0.87390  0.91913  1.0000
  C   C383      1.0  0.21214  0.88552  0.99604  1.0000
  Fe  Fe65      1.0  0.31651  0.34927  0.17671  1.0000
  S   S129      1.0  0.32673  0.32710  0.14683  1.0000
  S   S130      1.0  0.28804  0.35931  0.17335  1.0000
  Fe  Fe66      1.0  0.35231  0.35441  0.21060  1.0000
  S   S131      1.0  0.36471  0.33230  0.18220  1.0000
  S   S132      1.0  0.37217  0.36899  0.24198  1.0000
  Fe  Fe67      1.0  0.35074  0.34402  0.14038  1.0000
  S   S133      1.0  0.36304  0.34527  0.09120  1.0000
  Fe  Fe68      1.0  0.33977  0.31730  0.19098  1.0000
  S   S134      1.0  0.33853  0.28948  0.21145  1.0000
  S   S135      1.0  0.33978  0.36696  0.16769  1.0000
  S   S136      1.0  0.32808  0.33861  0.22201  1.0000
  Fe  Fe69      1.0  0.44209  0.41425  0.43429  1.0000
  S   S137      1.0  0.42726  0.43006  0.39787  1.0000
  S   S138      1.0  0.46945  0.40487  0.41835  1.0000
  N   N33       1.0  0.28963  0.37797  0.08611  1.0000
  S   S139      1.0  0.39500  0.43280  0.44810  1.0000
  C   C384      1.0  0.30155  0.35925  0.04538  1.0000
  Fe  Fe70      1.0  0.40376  0.41346  0.41042  1.0000
  S   S140      1.0  0.38144  0.40102  0.38150  1.0000
  Fe  Fe71      1.0  0.41987  0.44776  0.43878  1.0000
  S   S141      1.0  0.42383  0.47746  0.43427  1.0000
  S   S142      1.0  0.41899  0.39647  0.44461  1.0000
  H   H382      1.0  0.50789  0.06535  0.48084  1.0000
  Fe  Fe72      1.0  0.44856  0.08800  0.42688  1.0000
  S   S143      1.0  0.42916  0.07088  0.40192  1.0000
  S   S144      1.0  0.47677  0.08356  0.40874  1.0000
  Fe  Fe73      1.0  0.41952  0.10132  0.47138  1.0000
  S   S145      1.0  0.39867  0.08428  0.45029  1.0000
  H   H383      1.0  0.39715  0.28590  0.22035  1.0000
  Fe  Fe74      1.0  0.41973  0.06299  0.45027  1.0000
  S   S146      1.0  0.41786  0.03299  0.45298  1.0000
  Fe  Fe75      1.0  0.40981  0.09344  0.40355  1.0000
  S   S147      1.0  0.38980  0.09845  0.36381  1.0000
  H   H384      1.0  0.27498  0.36933  0.04642  1.0000
  S   S148      1.0  0.42995  0.11134  0.42457  1.0000
  Fe  Fe76      1.0  0.34669  0.18825  0.16717  1.0000
  S   S149      1.0  0.33152  0.18390  0.21197  1.0000
  S   S150      1.0  0.35068  0.21523  0.14466  1.0000
  Fe  Fe77      1.0  0.35126  0.14848  0.15563  1.0000
  S   S151      1.0  0.33553  0.14166  0.19943  1.0000
  S   S152      1.0  0.36401  0.12490  0.13097  1.0000
  Fe  Fe78      1.0  0.31698  0.16351  0.18398  1.0000
  S   S153      1.0  0.28686  0.16558  0.18734  1.0000
  Fe  Fe79      1.0  0.35148  0.16245  0.22317  1.0000
  S   S154      1.0  0.36748  0.16064  0.26903  1.0000
  S   S155      1.0  0.33153  0.16858  0.13865  1.0000
  S   S156      1.0  0.36784  0.16853  0.17987  1.0000
  C   C385      1.0  0.27650  0.15561  0.12720  1.0000
  H   H385      1.0  0.36831  0.11111  0.41701  1.0000
  H   H386      1.0  0.28992  0.15104  0.12347  1.0000
  H   H387      1.0  0.42037  0.11259  0.05702  1.0000
  C   C386      1.0  0.38397  0.12267  0.02813  1.0000
  C   C387      1.0  0.37727  0.13850  0.04069  1.0000
  C   C388      1.0  0.37101  0.13938  0.07205  1.0000
  C   C389      1.0  0.37145  0.12441  0.09120  1.0000
  C   C390      1.0  0.37819  0.10857  0.07865  1.0000
  C   C391      1.0  0.38437  0.10767  0.04722  1.0000
  H   H388      1.0  0.37690  0.15018  0.02611  1.0000
  H   H389      1.0  0.36587  0.15164  0.08140  1.0000
  H   H390      1.0  0.37851  0.09691  0.09328  1.0000
  H   H391      1.0  0.38940  0.09538  0.03780  1.0000
  C   C392      1.0  0.38358  0.11618  0.33837  1.0000
  C   C393      1.0  0.39232  0.13227  0.33798  1.0000
  C   C394      1.0  0.38699  0.14574  0.31699  1.0000
  C   C395      1.0  0.37308  0.14328  0.29569  1.0000
  C   C396      1.0  0.36434  0.12719  0.29610  1.0000
  C   C397      1.0  0.36948  0.11382  0.31744  1.0000
  H   H392      1.0  0.40325  0.13434  0.35367  1.0000
  H   H393      1.0  0.39383  0.15814  0.31703  1.0000
  H   H394      1.0  0.35357  0.12508  0.28005  1.0000
  H   H395      1.0  0.36255  0.10147  0.31753  1.0000
  C   C398      1.0  0.46228  0.11260  0.00484  1.0000
  H   H396      1.0  0.31602  0.20293  0.11694  1.0000
  H   H397      1.0  0.37609  0.27721  0.23130  1.0000
  H   H398      1.0  0.29389  0.22594  0.22750  1.0000
  H   H399      1.0  0.38320  0.39651  0.47196  1.0000
  C   C399      1.0  0.42138  0.49264  0.46589  1.0000
  H   H400      1.0  0.37356  0.34227  0.30441  1.0000
  H   H401      1.0  0.43330  0.41235  0.04626  1.0000
  H   H402      1.0  0.35286  0.31715  0.30479  1.0000
  H   H403      1.0  0.40629  0.39231  0.11035  1.0000
  C   C400      1.0  0.34301  0.26910  0.19260  1.0000
  C   C401      1.0  0.34711  0.26795  0.16045  1.0000
  C   C402      1.0  0.34980  0.25137  0.14630  1.0000
  C   C403      1.0  0.34838  0.23578  0.16407  1.0000
  C   C404      1.0  0.34461  0.23697  0.19635  1.0000
  C   C405      1.0  0.34201  0.25355  0.21052  1.0000
  H   H404      1.0  0.34800  0.27980  0.14638  1.0000
  H   H405      1.0  0.35279  0.25058  0.12133  1.0000
  H   H406      1.0  0.34354  0.22511  0.21033  1.0000
  H   H407      1.0  0.33891  0.25429  0.23544  1.0000
  C   C406      1.0  0.36942  0.36505  0.07245  1.0000
  C   C407      1.0  0.36844  0.38117  0.08809  1.0000
  C   C408      1.0  0.37420  0.39654  0.07288  1.0000
  C   C409      1.0  0.38125  0.39595  0.04212  1.0000
  C   C410      1.0  0.38190  0.37989  0.02618  1.0000
  C   C411      1.0  0.37598  0.36450  0.04133  1.0000
  H   H408      1.0  0.36346  0.38179  0.11206  1.0000
  H   H409      1.0  0.37356  0.40894  0.08531  1.0000
  S   S157      1.0  0.43584  0.43273  0.47420  1.0000
  H   H410      1.0  0.37670  0.35208  0.02899  1.0000
  C   C412      1.0  0.37426  0.37800  0.28084  1.0000
  C   C413      1.0  0.39063  0.38482  0.29000  1.0000
  C   C414      1.0  0.39313  0.39184  0.32052  1.0000
  C   C415      1.0  0.37924  0.39219  0.34250  1.0000
  C   C416      1.0  0.36289  0.38526  0.33339  1.0000
  C   C417      1.0  0.36040  0.37821  0.30289  1.0000
  H   H411      1.0  0.40149  0.38477  0.27330  1.0000
  H   H412      1.0  0.40579  0.39707  0.32695  1.0000
  H   H413      1.0  0.35199  0.38547  0.35002  1.0000
  H   H414      1.0  0.34771  0.37309  0.29639  1.0000
  C   C418      1.0  0.27199  0.35269  0.14561  1.0000
  C   C419      1.0  0.27635  0.34226  0.11949  1.0000
  H   H415      1.0  0.37693  0.49388  0.44879  1.0000
  H   H416      1.0  0.28967  0.33724  0.11668  1.0000
  C   C420      1.0  0.49801  0.10307  0.44861  1.0000
  C   C421      1.0  0.49709  0.09023  0.42517  1.0000
  S   S158      1.0  0.43979  0.07936  0.47520  1.0000
  H   H417      1.0  0.26727  0.33108  0.07586  1.0000
  Fe  Fe80      1.0  0.41135  0.41653  0.48140  1.0000
  C   C422      1.0  0.30492  0.24916  0.16180  1.0000
  C   C423      1.0  0.49010  0.40970  0.43555  1.0000
  C   C424      1.0  0.49137  0.41749  0.46526  1.0000
  H   H418      1.0  0.40780  0.49600  0.05371  1.0000
  H   H419      1.0  0.29877  0.19140  0.13745  1.0000
  H   H420      1.0  0.27557  0.38927  0.12504  1.0000
  H   H421      1.0  0.50485  0.39983  0.39550  1.0000
  H   H422      1.0  0.47027  0.08934  0.03041  1.0000
  H   H423      1.0  0.47953  0.42033  0.47880  1.0000
  H   H424      1.0  0.37476  0.38105  0.44399  1.0000
  H   H425      1.0  0.29310  0.20700  0.10739  1.0000
  C   C425      1.0  0.39022  0.09776  0.25536  1.0000
  H   H426      1.0  0.39835  0.34269  0.26605  1.0000
  H   H427      1.0  0.38635  0.14952  0.41669  1.0000
  H   H428      1.0  0.40951  0.41228  0.08894  1.0000
  H   H429      1.0  0.30707  0.38446  0.12342  1.0000
  H   H430      1.0  0.36595  0.35686  0.47490  1.0000
  H   H431      1.0  0.32879  0.35126  0.05106  1.0000
  C   C426      1.0  0.38300  0.28934  0.22365  1.0000
  H   H432      1.0  0.37737  0.29347  0.20063  1.0000
  H   H433      1.0  0.44333  0.08937  0.06451  1.0000
  C   C427      1.0  0.47047  0.46578  0.45141  1.0000
  C   C428      1.0  0.28757  0.36909  0.05836  1.0000
  C   C429      1.0  0.48787  0.05015  0.45789  1.0000
  H   H434      1.0  0.26744  0.14620  0.08223  1.0000
  C   C430      1.0  0.36683  0.30332  0.26760  1.0000
  C   C431      1.0  0.38970  0.33143  0.26708  1.0000
  C   C432      1.0  0.36586  0.11745  0.43959  1.0000
  C   C433      1.0  0.31972  0.36802  0.08874  1.0000
  N   N34       1.0  0.48206  0.45048  0.40611  1.0000
  N   N35       1.0  0.39545  0.12616  0.23235  1.0000
  C   C434      1.0  0.37809  0.09418  0.23176  1.0000
  C   C435      1.0  0.31774  0.35877  0.06072  1.0000
  C   C436      1.0  0.39191  0.31748  0.24594  1.0000
  C   C437      1.0  0.30058  0.24587  0.19328  1.0000
  C   C438      1.0  0.40480  0.14290  0.23234  1.0000
  H   H435      1.0  0.48602  0.10922  0.45745  1.0000
  H   H436      1.0  0.45511  0.02293  0.43988  1.0000
  H   H437      1.0  0.39259  0.08834  0.27418  1.0000
  C   C439      1.0  0.50169  0.45985  0.44676  1.0000
  C   C440      1.0  0.37495  0.10661  0.20817  1.0000
  H   H438      1.0  0.40800  0.11673  0.27406  1.0000
  C   C441      1.0  0.39890  0.11389  0.25520  1.0000
  H   H439      1.0  0.42429  0.13504  0.01549  1.0000
  H   H440      1.0  0.39642  0.15359  0.22234  1.0000
  H   H441      1.0  0.40788  0.14706  0.25677  1.0000
  H   H442      1.0  0.38142  0.13209  0.19019  1.0000
  C   C442      1.0  0.36408  0.31718  0.28875  1.0000
  N   N36       1.0  0.44953  0.12526  0.00080  1.0000
  H   H443      1.0  0.45578  0.04435  0.42171  1.0000
  H   H444      1.0  0.38192  0.00886  0.03369  1.0000
  C   C443      1.0  0.27506  0.38869  0.09883  1.0000
  N   N37       1.0  0.36037  0.38345  0.48778  1.0000
  H   H445      1.0  0.40247  0.31804  0.22859  1.0000
  H   H446      1.0  0.45151  0.03401  0.49256  1.0000
  C   C444      1.0  0.43621  0.38944  0.01728  1.0000
  N   N38       1.0  0.47230  0.04143  0.46125  1.0000
  C   C445      1.0  0.29755  0.21513  0.18085  1.0000
  H   H447      1.0  0.44530  0.50322  0.06298  1.0000
  H   H448      1.0  0.33227  0.36775  0.10066  1.0000
  C   C446      1.0  0.49568  0.05818  0.48381  1.0000
  H   H449      1.0  0.35762  0.29252  0.26770  1.0000
  H   H450      1.0  0.26210  0.38295  0.09281  1.0000
  H   H451      1.0  0.45485  0.45697  0.41281  1.0000
  C   C447      1.0  0.44520  0.09958  0.04693  1.0000
  H   H452      1.0  0.30836  0.26234  0.15430  1.0000
  H   H453      1.0  0.37108  0.08184  0.23179  1.0000
  N   N39       1.0  0.30180  0.21849  0.14999  1.0000
  C   C448      1.0  0.26371  0.15288  0.10382  1.0000
  C   C449      1.0  0.37567  0.33126  0.28854  1.0000
  H   H454      1.0  0.36562  0.10401  0.18952  1.0000
  N   N40       1.0  0.38068  0.30355  0.24668  1.0000
  N   N41       1.0  0.42161  0.38991  0.06779  1.0000
  C   C450      1.0  0.41798  0.37240  0.06512  1.0000
  C   C451      1.0  0.43070  0.39841  0.04441  1.0000
  C   C452      1.0  0.42315  0.36306  0.03810  1.0000
  C   C453      1.0  0.46031  0.09958  0.02791  1.0000
  C   C454      1.0  0.39055  0.13728  0.42893  1.0000
  C   C455      1.0  0.41605  0.39971  0.09597  1.0000
  H   H455      1.0  0.41050  0.36568  0.08336  1.0000
  H   H456      1.0  0.42764  0.40259  0.11078  1.0000
  H   H457      1.0  0.41972  0.34934  0.03561  1.0000
  C   C456      1.0  0.41898  0.01799  0.48506  1.0000
  C   C457      1.0  0.43229  0.37170  0.01402  1.0000
  C   C458      1.0  0.35920  0.36561  0.49127  1.0000
  H   H458      1.0  0.29984  0.35205  0.02360  1.0000
  C   C459      1.0  0.45531  0.50151  0.04383  1.0000
  N   N42       1.0  0.37626  0.13094  0.44930  1.0000
  H   H459      1.0  0.41714  0.14174  0.21824  1.0000
  C   C460      1.0  0.38389  0.12257  0.20872  1.0000
  S   S159      1.0  0.39032  0.41536  0.02597  1.0000
  H   H460      1.0  0.47383  0.02899  0.41623  1.0000
  C   C461      1.0  0.50804  0.42156  0.47756  1.0000
  C   C462      1.0  0.46805  0.45766  0.42225  1.0000
  C   C463      1.0  0.48740  0.46674  0.46381  1.0000
  C   C464      1.0  0.30546  0.37757  0.10127  1.0000
  C   C465      1.0  0.30563  0.23520  0.14040  1.0000
  H   H461      1.0  0.30966  0.23772  0.11621  1.0000
  C   C466      1.0  0.43230  0.11256  0.04270  1.0000
  C   C467      1.0  0.49877  0.45178  0.41770  1.0000
  C   C468      1.0  0.30244  0.20424  0.12683  1.0000
  C   C469      1.0  0.27173  0.16356  0.15577  1.0000
  H   H462      1.0  0.48063  0.45169  0.35621  1.0000
  C   C470      1.0  0.47927  0.44198  0.37560  1.0000
  H   H463      1.0  0.29477  0.20185  0.18863  1.0000
  H   H464      1.0  0.46598  0.43598  0.37467  1.0000
  H   H465      1.0  0.41074  0.47528  0.00857  1.0000
  H   H466      1.0  0.48881  0.43096  0.37196  1.0000
  C   C471      1.0  0.37301  0.13908  0.47752  1.0000
  C   C472      1.0  0.29694  0.22874  0.20297  1.0000
  C   C473      1.0  0.35211  0.11142  0.45885  1.0000
  H   H467      1.0  0.38724  0.37929  0.00245  1.0000
  H   H468      1.0  0.45921  0.47113  0.46433  1.0000
  H   H469      1.0  0.34414  0.10049  0.45133  1.0000
  C   C474      1.0  0.41242  0.48825  0.49373  1.0000
  H   H470      1.0  0.44982  0.49190  0.02692  1.0000
  C   C475      1.0  0.43463  0.12529  0.01922  1.0000
  C   C476      1.0  0.41162  0.50091  0.03068  1.0000
  C   C477      1.0  0.41333  0.48913  0.00517  1.0000
  H   H471      1.0  0.38139  0.14965  0.48536  1.0000
  H   H472      1.0  0.36359  0.40158  0.44981  1.0000
  H   H473      1.0  0.30059  0.25653  0.21026  1.0000
  H   H474      1.0  0.27575  0.40223  0.08918  1.0000
  C   C478      1.0  0.26363  0.33885  0.09630  1.0000
  C   C479      1.0  0.46387  0.03402  0.43341  1.0000
  C   C480      1.0  0.37098  0.39095  0.46215  1.0000
  C   C481      1.0  0.46406  0.04056  0.49003  1.0000
  H   H475      1.0  0.49412  0.05128  0.43488  1.0000
  C   C482      1.0  0.50568  0.40600  0.41840  1.0000
  H   H476      1.0  0.39432  0.12740  0.41076  1.0000
  H   H477      1.0  0.40251  0.13988  0.44311  1.0000
  H   H478      1.0  0.48942  0.47266  0.48671  1.0000
  C   C483      1.0  0.34883  0.11952  0.48785  1.0000
  C   C484      1.0  0.39950  0.02056  0.99935  1.0000
  H   H479      1.0  0.46761  0.49596  0.05396  1.0000
  H   H480      1.0  0.44322  0.39629  0.99864  1.0000
  H   H481      1.0  0.37263  0.50716  0.00488  1.0000
  H   H482      1.0  0.39204  0.03272  0.99771  1.0000
  H   H483      1.0  0.40763  0.47502  0.49707  1.0000
  Fe  Fe81      1.0  0.31849  0.35009  0.67128  1.0000
  S   S160      1.0  0.32805  0.32867  0.63915  1.0000
  S   S161      1.0  0.29052  0.36134  0.66760  1.0000
  Fe  Fe82      1.0  0.35222  0.34901  0.71245  1.0000
  S   S162      1.0  0.36375  0.32706  0.68241  1.0000
  S   S163      1.0  0.37038  0.35592  0.75418  1.0000
  Fe  Fe83      1.0  0.35401  0.34273  0.64079  1.0000
  S   S164      1.0  0.37090  0.34388  0.59622  1.0000
  Fe  Fe84      1.0  0.33696  0.31482  0.68312  1.0000
  S   S165      1.0  0.32811  0.28694  0.69498  1.0000
  S   S166      1.0  0.34404  0.36539  0.67021  1.0000
  S   S167      1.0  0.32591  0.33558  0.71577  1.0000
  Fe  Fe85      1.0  0.43921  0.41698  0.94264  1.0000
  S   S168      1.0  0.42963  0.43461  0.90348  1.0000
  S   S169      1.0  0.46644  0.40416  0.94829  1.0000
  H   H484      1.0  0.34212  0.08755  0.84682  1.0000
  S   S170      1.0  0.39207  0.43705  0.94174  1.0000
  C   C485      1.0  0.34154  0.36955  0.53842  1.0000
  Fe  Fe86      1.0  0.40449  0.41880  0.90534  1.0000
  S   S171      1.0  0.38729  0.41328  0.86153  1.0000
  Fe  Fe87      1.0  0.41783  0.45126  0.94264  1.0000
  S   S172      1.0  0.42047  0.48122  0.94221  1.0000
  S   S173      1.0  0.41483  0.39996  0.94248  1.0000
  H   H485      1.0  0.26350  0.32160  0.72934  1.0000
  Fe  Fe88      1.0  0.44075  0.09421  0.92686  1.0000
  S   S174      1.0  0.42965  0.07259  0.89727  1.0000
  S   S175      1.0  0.46769  0.10740  0.92497  1.0000
  Fe  Fe89      1.0  0.40524  0.10050  0.96070  1.0000
  S   S176      1.0  0.39181  0.07883  0.93413  1.0000
  H   H486      1.0  0.37457  0.38847  0.71513  1.0000
  Fe  Fe90      1.0  0.41688  0.06320  0.94267  1.0000
  S   S177      1.0  0.42152  0.03376  0.95181  1.0000
  Fe  Fe91      1.0  0.40546  0.08982  0.89091  1.0000
  S   S178      1.0  0.39001  0.09165  0.84441  1.0000
  H   H487      1.0  0.26883  0.33492  0.56887  1.0000
  S   S179      1.0  0.41756  0.11207  0.91700  1.0000
  Fe  Fe92      1.0  0.34575  0.18655  0.66012  1.0000
  S   S180      1.0  0.32900  0.18216  0.70303  1.0000
  S   S181      1.0  0.35810  0.21287  0.64760  1.0000
  Fe  Fe93      1.0  0.34481  0.14761  0.64218  1.0000
  S   S182      1.0  0.32761  0.14075  0.68426  1.0000
  S   S183      1.0  0.35247  0.12453  0.61049  1.0000
  Fe  Fe94      1.0  0.31236  0.16537  0.67132  1.0000
  S   S184      1.0  0.28256  0.17051  0.67348  1.0000
  Fe  Fe95      1.0  0.34581  0.15799  0.71194  1.0000
  S   S185      1.0  0.35872  0.15497  0.76069  1.0000
  S   S186      1.0  0.32842  0.17109  0.62771  1.0000
  S   S187      1.0  0.36371  0.16348  0.67057  1.0000
  Fe  Fe96      1.0  0.40396  0.41913  0.97830  1.0000
  H   H488      1.0  0.38810  0.09673  0.52689  1.0000
  H   H489      1.0  0.28041  0.14113  0.62919  1.0000
  H   H490      1.0  0.38086  0.49098  0.95860  1.0000
  C   C486      1.0  0.39705  0.12290  0.53631  1.0000
  C   C487      1.0  0.39421  0.13808  0.55459  1.0000
  C   C488      1.0  0.38045  0.13891  0.57710  1.0000
  C   C489      1.0  0.36948  0.12448  0.58165  1.0000
  C   C490      1.0  0.37238  0.10926  0.56350  1.0000
  C   C491      1.0  0.38606  0.10847  0.54085  1.0000
  H   H491      1.0  0.40264  0.14932  0.55118  1.0000
  H   H492      1.0  0.37839  0.15068  0.59101  1.0000
  H   H493      1.0  0.36398  0.09801  0.56697  1.0000
  C   C492      1.0  0.48744  0.05725  0.51330  1.0000
  C   C493      1.0  0.38243  0.10955  0.82055  1.0000
  C   C494      1.0  0.38504  0.12714  0.82868  1.0000
  C   C495      1.0  0.37789  0.14079  0.80986  1.0000
  C   C496      1.0  0.36806  0.13712  0.78267  1.0000
  C   C497      1.0  0.36553  0.11954  0.77447  1.0000
  C   C498      1.0  0.37273  0.10589  0.79319  1.0000
  H   H494      1.0  0.39247  0.13022  0.84955  1.0000
  H   H495      1.0  0.37996  0.15432  0.81654  1.0000
  H   H496      1.0  0.35768  0.11642  0.75418  1.0000
  H   H497      1.0  0.37052  0.09235  0.78677  1.0000
  H   H498      1.0  0.35864  0.09196  0.89592  1.0000
  H   H499      1.0  0.41487  0.36345  0.60709  1.0000
  H   H500      1.0  0.39564  0.38578  0.73387  1.0000
  H   H501      1.0  0.26115  0.34118  0.70508  1.0000
  N   N43       1.0  0.27116  0.31843  0.68144  1.0000
  C   C499      1.0  0.41837  0.49528  0.97533  1.0000
  H   H502      1.0  0.36163  0.13407  0.93715  1.0000
  H   H503      1.0  0.29730  0.30989  0.69224  1.0000
  C   C500      1.0  0.28638  0.30907  0.67601  1.0000
  H   H504      1.0  0.43619  0.36476  0.99268  1.0000
  C   C501      1.0  0.33587  0.26671  0.67906  1.0000
  C   C502      1.0  0.32717  0.25116  0.68764  1.0000
  C   C503      1.0  0.33354  0.23463  0.67750  1.0000
  C   C504      1.0  0.34876  0.23346  0.65872  1.0000
  C   C505      1.0  0.35738  0.24902  0.64991  1.0000
  C   C506      1.0  0.35098  0.26558  0.65999  1.0000
  H   H505      1.0  0.31549  0.25188  0.70242  1.0000
  H   H506      1.0  0.32676  0.22279  0.68442  1.0000
  H   H507      1.0  0.36917  0.24825  0.63539  1.0000
  H   H508      1.0  0.35785  0.27742  0.65330  1.0000
  C   C507      1.0  0.37850  0.36337  0.57824  1.0000
  C   C508      1.0  0.37411  0.37996  0.59024  1.0000
  C   C509      1.0  0.38050  0.39516  0.57525  1.0000
  C   C510      1.0  0.39113  0.39393  0.54798  1.0000
  C   C511      1.0  0.39551  0.37735  0.53597  1.0000
  C   C512      1.0  0.38929  0.36214  0.55117  1.0000
  H   H509      1.0  0.36586  0.38107  0.61109  1.0000
  H   H510      1.0  0.37708  0.40796  0.58468  1.0000
  H   H511      1.0  0.40380  0.37625  0.51514  1.0000
  H   H512      1.0  0.39281  0.34933  0.54185  1.0000
  C   C513      1.0  0.37437  0.37185  0.78450  1.0000
  C   C514      1.0  0.36480  0.38764  0.78705  1.0000
  C   C515      1.0  0.36896  0.40003  0.81067  1.0000
  C   C516      1.0  0.38265  0.39689  0.83237  1.0000
  C   C517      1.0  0.39219  0.38107  0.82982  1.0000
  C   C518      1.0  0.38812  0.36874  0.80605  1.0000
  H   H513      1.0  0.35418  0.39036  0.77086  1.0000
  H   H514      1.0  0.36142  0.41215  0.81229  1.0000
  H   H515      1.0  0.40276  0.37837  0.84612  1.0000
  H   H516      1.0  0.39570  0.35665  0.80443  1.0000
  C   C519      1.0  0.27440  0.35588  0.63907  1.0000
  C   C520      1.0  0.27861  0.34625  0.61188  1.0000
  C   C521      1.0  0.35301  0.10329  0.88394  1.0000
  H   H517      1.0  0.29208  0.34207  0.60759  1.0000
  H   H518      1.0  0.27549  0.28914  0.60736  1.0000
  C   C522      1.0  0.48886  0.09723  0.92785  1.0000
  C   C523      1.0  0.49109  0.07897  0.92855  1.0000
  H   H519      1.0  0.41267  0.03677  0.52141  1.0000
  H   H520      1.0  0.47970  0.07059  0.92731  1.0000
  C   C524      1.0  0.48769  0.43302  0.93652  1.0000
  C   C525      1.0  0.48663  0.41577  0.94778  1.0000
  H   H521      1.0  0.34937  0.34427  0.52007  1.0000
  H   H522      1.0  0.47586  0.43979  0.92883  1.0000
  C   C526      1.0  0.41557  0.02313  0.51618  1.0000
  H   H523      1.0  0.44322  0.13425  0.95502  1.0000
  S   S188      1.0  0.39193  0.12254  0.98869  1.0000
  C   C527      1.0  0.34976  0.35840  0.51662  1.0000
  C   C528      1.0  0.34288  0.38771  0.53475  1.0000
  C   C529      1.0  0.50218  0.40715  0.95752  1.0000
  H   H524      1.0  0.49330  0.06356  0.53351  1.0000
  H   H525      1.0  0.40160  0.49774  0.53785  1.0000
  C   C530      1.0  0.26942  0.32932  0.70979  1.0000
  C   C531      1.0  0.26537  0.34220  0.58995  1.0000
  H   H526      1.0  0.39026  0.40601  0.71409  1.0000
  C   C532      1.0  0.50414  0.44139  0.93448  1.0000
  C   C533      1.0  0.47153  0.04835  0.51652  1.0000
  S   S189      1.0  0.41412  0.12282  0.50759  1.0000
  H   H527      1.0  0.50481  0.45464  0.92525  1.0000
  N   N44       1.0  0.35860  0.24460  0.74309  1.0000
  C   C534      1.0  0.34787  0.23252  0.75723  1.0000
  C   C535      1.0  0.37232  0.23922  0.72416  1.0000
  C   C536      1.0  0.35060  0.21451  0.75217  1.0000
  C   C537      1.0  0.37540  0.22133  0.71859  1.0000
  C   C538      1.0  0.36444  0.20893  0.73266  1.0000
  C   C539      1.0  0.35579  0.26337  0.74942  1.0000
  H   H528      1.0  0.33696  0.23678  0.77216  1.0000
  H   H529      1.0  0.38063  0.24877  0.71243  1.0000
  H   H530      1.0  0.34190  0.20492  0.76287  1.0000
  H   H531      1.0  0.38575  0.21713  0.70235  1.0000
  H   H532      1.0  0.36645  0.19502  0.72795  1.0000
  H   H533      1.0  0.36225  0.26708  0.77177  1.0000
  H   H534      1.0  0.36111  0.27165  0.72995  1.0000
  H   H535      1.0  0.34147  0.26661  0.75106  1.0000
  H   H536      1.0  0.50231  0.12203  0.92878  1.0000
  C   C540      1.0  0.34366  0.10070  0.85609  1.0000
  S   S190      1.0  0.42902  0.43457  0.98125  1.0000
  H   H537      1.0  0.41222  0.01445  0.56441  1.0000
  C   C541      1.0  0.26720  0.16495  0.64376  1.0000
  C   C542      1.0  0.34032  0.13212  0.85071  1.0000
  C   C543      1.0  0.50387  0.10789  0.92940  1.0000
  H   H538      1.0  0.38024  0.12414  0.91692  1.0000
  N   N45       1.0  0.35569  0.11988  0.89511  1.0000
  S   S191      1.0  0.39848  0.41348  0.52988  1.0000
  N   N46       1.0  0.38287  0.11667  0.67549  1.0000
  C   C544      1.0  0.39072  0.11309  0.64701  1.0000
  C   C545      1.0  0.38980  0.12899  0.69512  1.0000
  C   C546      1.0  0.40548  0.12249  0.63691  1.0000
  C   C547      1.0  0.40461  0.13857  0.68586  1.0000
  C   C548      1.0  0.41239  0.13536  0.65644  1.0000
  C   C549      1.0  0.36727  0.10691  0.68563  1.0000
  H   H539      1.0  0.38528  0.10328  0.63148  1.0000
  H   H540      1.0  0.38367  0.13174  0.71785  1.0000
  H   H541      1.0  0.41128  0.11998  0.61380  1.0000
  H   H542      1.0  0.40983  0.14855  0.70130  1.0000
  H   H543      1.0  0.42372  0.14288  0.64872  1.0000
  H   H544      1.0  0.36051  0.10084  0.66525  1.0000
  H   H545      1.0  0.37109  0.09646  0.70267  1.0000
  H   H546      1.0  0.35747  0.11590  0.69687  1.0000
  N   N47       1.0  0.39618  0.38396  0.68391  1.0000
  C   C550      1.0  0.39559  0.36617  0.67962  1.0000
  C   C551      1.0  0.40339  0.39456  0.66117  1.0000
  C   C552      1.0  0.40235  0.35853  0.65201  1.0000
  C   C553      1.0  0.41042  0.38733  0.63339  1.0000
  C   C554      1.0  0.40993  0.36919  0.62891  1.0000
  C   C555      1.0  0.38884  0.39152  0.71304  1.0000
  H   H547      1.0  0.38976  0.35779  0.69752  1.0000
  H   H548      1.0  0.40364  0.40869  0.66427  1.0000
  H   H549      1.0  0.33053  0.11344  0.81724  1.0000
  H   H550      1.0  0.41581  0.39576  0.61504  1.0000
  H   H551      1.0  0.30037  0.29112  0.64513  1.0000
  H   H552      1.0  0.33836  0.11489  0.50327  1.0000
  C   C556      1.0  0.34968  0.13422  0.87871  1.0000
  H   H553      1.0  0.50295  0.40514  0.88479  1.0000
  C   C557      1.0  0.26882  0.14938  0.62645  1.0000
  C   C558      1.0  0.36618  0.12239  0.92353  1.0000
  C   C559      1.0  0.28817  0.29839  0.64935  1.0000
  C   C560      1.0  0.33726  0.11523  0.83944  1.0000
  H   H554      1.0  0.28246  0.33431  0.71723  1.0000
  H   H555      1.0  0.33704  0.39647  0.55218  1.0000
  H   H556      1.0  0.35689  0.13983  0.51980  1.0000
  C   C561      1.0  0.41529  0.01044  0.54050  1.0000
  H   H557      1.0  0.35244  0.14738  0.88689  1.0000
  H   H558      1.0  0.36523  0.11093  0.93978  1.0000
  H   H559      1.0  0.40134  0.34447  0.64823  1.0000
  H   H560      1.0  0.33601  0.14350  0.83722  1.0000
  H   H561      1.0  0.44673  0.15148  0.98358  1.0000
  S   S192      1.0  0.42927  0.08423  0.97248  1.0000
  H   H562      1.0  0.46489  0.04766  0.53925  1.0000
  H   H563      1.0  0.47393  0.11229  0.98979  1.0000
  H   H564      1.0  0.33472  0.36409  0.55879  1.0000
  C   C562      1.0  0.40901  0.50118  0.51683  1.0000
  H   H565      1.0  0.35422  0.40858  0.50728  1.0000
  C   C563      1.0  0.27421  0.29723  0.62831  1.0000
  C   C564      1.0  0.35253  0.39447  0.50927  1.0000
  H   H566      1.0  0.46218  0.50702  0.98265  1.0000
  H   H567      1.0  0.50150  0.39381  0.96630  1.0000
  H   H568      1.0  0.38835  0.50204  0.92415  1.0000
  H   H569      1.0  0.36491  0.50082  0.93229  1.0000
  C   C565      1.0  0.41461  0.01815  0.98057  1.0000
  C   C566      1.0  0.37806  0.50246  0.94303  1.0000
  H   H570      1.0  0.46513  0.13941  0.96713  1.0000
  C   C567      1.0  0.45124  0.13830  0.97549  1.0000
  H   H571      1.0  0.50888  0.42754  0.50060  1.0000
  C   C568      1.0  0.50818  0.07151  0.93013  1.0000
  C   C569      1.0  0.35921  0.13356  0.49714  1.0000
  Fe  Fe97      1.0  0.34324  0.65139  0.35099  1.0000
  S   S193      1.0  0.32567  0.64300  0.31154  1.0000
  S   S194      1.0  0.34569  0.63060  0.38963  1.0000
  Fe  Fe98      1.0  0.34672  0.68818  0.32264  1.0000
  S   S195      1.0  0.32953  0.68201  0.28124  1.0000
  S   S196      1.0  0.35844  0.71477  0.33497  1.0000
  Fe  Fe99      1.0  0.31199  0.66904  0.31757  1.0000
  S   S197      1.0  0.28206  0.67213  0.31590  1.0000
  Fe  Fe100     1.0  0.34483  0.65629  0.27850  1.0000
  S   S198      1.0  0.35003  0.64024  0.23310  1.0000
  S   S199      1.0  0.32824  0.67666  0.35896  1.0000
  S   S200      1.0  0.36331  0.66322  0.31795  1.0000
  Fe  Fe101     1.0  0.41260  0.59918  0.09004  1.0000
  S   S201      1.0  0.42100  0.61357  0.04555  1.0000
  S   S202      1.0  0.41121  0.61514  0.13634  1.0000
  Fe  Fe102     1.0  0.41583  0.56302  0.05641  1.0000
  C   C570      1.0  0.41494  0.51894  0.02668  1.0000
  S   S203      1.0  0.41344  0.53317  0.05977  1.0000
  Fe  Fe103     1.0  0.44170  0.59226  0.04067  1.0000
  S   S204      1.0  0.46940  0.59663  0.02136  1.0000
  Fe  Fe104     1.0  0.40295  0.59521  0.01999  1.0000
  H   H572      1.0  0.30790  0.63342  0.37114  1.0000
  S   S205      1.0  0.43453  0.57875  0.08593  1.0000
  S   S206      1.0  0.39320  0.58202  0.06458  1.0000
  Fe  Fe105     1.0  0.33942  0.81881  0.31050  1.0000
  S   S207      1.0  0.32291  0.84000  0.28768  1.0000
  S   S208      1.0  0.33340  0.79142  0.29125  1.0000
  Fe  Fe106     1.0  0.35696  0.84586  0.35266  1.0000
  S   S209      1.0  0.34171  0.86864  0.33246  1.0000
  S   S210      1.0  0.37683  0.84782  0.39246  1.0000
  Fe  Fe107     1.0  0.31838  0.85059  0.33646  1.0000
  S   S211      1.0  0.29188  0.86245  0.35194  1.0000
  Fe  Fe108     1.0  0.34753  0.85630  0.28498  1.0000
  S   S212      1.0  0.35051  0.87167  0.23817  1.0000
  S   S213      1.0  0.33327  0.82846  0.35954  1.0000
  S   S214      1.0  0.36439  0.83440  0.30491  1.0000
  Fe  Fe109     1.0  0.44506  0.93088  0.06075  1.0000
  S   S215      1.0  0.42487  0.94166  0.09482  1.0000
  S   S216      1.0  0.47294  0.94113  0.06494  1.0000
  Fe  Fe110     1.0  0.41705  0.91141  0.02336  1.0000
  S   S217      1.0  0.39479  0.92075  0.05490  1.0000
  H   H573      1.0  0.38135  0.93897  0.44179  1.0000
  Fe  Fe111     1.0  0.40852  0.94709  0.05188  1.0000
  S   S218      1.0  0.39439  0.97344  0.04480  1.0000
  Fe  Fe112     1.0  0.41311  0.91452  0.09553  1.0000
  S   S219      1.0  0.41063  0.89971  0.14303  1.0000
  S   S220      1.0  0.42938  0.93796  0.01787  1.0000
  S   S221      1.0  0.43465  0.90354  0.06372  1.0000
  C   C571      1.0  0.40312  0.99092  0.02164  1.0000
  C   C572      1.0  0.29716  0.74656  0.33246  1.0000
  H   H574      1.0  0.33380  0.74644  0.39485  1.0000
  C   C573      1.0  0.39298  0.94728  0.44656  1.0000
  C   C574      1.0  0.37547  0.53508  0.00903  1.0000
  C   C575      1.0  0.37924  0.86607  0.41804  1.0000
  C   C576      1.0  0.39179  0.86512  0.44221  1.0000
  C   C577      1.0  0.39339  0.87882  0.46429  1.0000
  C   C578      1.0  0.38233  0.89359  0.46253  1.0000
  C   C579      1.0  0.36987  0.89464  0.43820  1.0000
  C   C580      1.0  0.36838  0.88100  0.41597  1.0000
  H   H575      1.0  0.40025  0.85362  0.44404  1.0000
  N   N48       1.0  0.45894  0.51836  0.02839  1.0000
  H   H576      1.0  0.36117  0.90596  0.43671  1.0000
  H   H577      1.0  0.35863  0.88190  0.39757  1.0000
  C   C581      1.0  0.36756  0.87988  0.21279  1.0000
  C   C582      1.0  0.38550  0.87703  0.21862  1.0000
  C   C583      1.0  0.39838  0.88319  0.19703  1.0000
  C   C584      1.0  0.39361  0.89225  0.16926  1.0000
  C   C585      1.0  0.37566  0.89499  0.16336  1.0000
  C   C586      1.0  0.36278  0.88883  0.18494  1.0000
  H   H578      1.0  0.38945  0.87015  0.23979  1.0000
  H   H579      1.0  0.41218  0.88097  0.20199  1.0000
  H   H580      1.0  0.37169  0.90191  0.14223  1.0000
  H   H581      1.0  0.34898  0.89110  0.18003  1.0000
  C   C587      1.0  0.27642  0.83807  0.39269  1.0000
  C   C588      1.0  0.27437  0.85344  0.37482  1.0000
  N   N49       1.0  0.38775  0.96216  0.46660  1.0000
  H   H582      1.0  0.28886  0.83101  0.39217  1.0000
  H   H583      1.0  0.42587  0.97656  0.00478  1.0000
  N   N50       1.0  0.30357  0.73098  0.34410  1.0000
  H   H584      1.0  0.50533  0.59908  0.00072  1.0000
  C   C589      1.0  0.45933  0.53337  0.04606  1.0000
  C   C590      1.0  0.32308  0.74662  0.37809  1.0000
  H   H585      1.0  0.44009  0.92204  0.15234  1.0000
  C   C591      1.0  0.35225  0.73596  0.32082  1.0000
  C   C592      1.0  0.35964  0.75092  0.33473  1.0000
  C   C593      1.0  0.35426  0.76801  0.32571  1.0000
  C   C594      1.0  0.34153  0.77032  0.30237  1.0000
  C   C595      1.0  0.33449  0.75536  0.28787  1.0000
  C   C596      1.0  0.33972  0.73828  0.29714  1.0000
  H   H586      1.0  0.36940  0.74927  0.35298  1.0000
  H   H587      1.0  0.35987  0.77936  0.33699  1.0000
  H   H588      1.0  0.32473  0.75699  0.26964  1.0000
  H   H589      1.0  0.33406  0.72693  0.28599  1.0000
  C   C597      1.0  0.36713  0.63435  0.20549  1.0000
  C   C598      1.0  0.38456  0.63994  0.20852  1.0000
  C   C599      1.0  0.39776  0.63398  0.18713  1.0000
  C   C600      1.0  0.39378  0.62254  0.16211  1.0000
  C   C601      1.0  0.37632  0.61710  0.15893  1.0000
  C   C602      1.0  0.36317  0.62292  0.18050  1.0000
  H   H590      1.0  0.38788  0.64880  0.22739  1.0000
  H   H591      1.0  0.41116  0.63838  0.18985  1.0000
  H   H592      1.0  0.37295  0.60832  0.13994  1.0000
  H   H593      1.0  0.34978  0.61848  0.17779  1.0000
  C   C603      1.0  0.36406  0.62782  0.41490  1.0000
  C   C604      1.0  0.37932  0.63777  0.41119  1.0000
  C   C605      1.0  0.39385  0.63476  0.43102  1.0000
  C   C606      1.0  0.39325  0.62197  0.45502  1.0000
  C   C607      1.0  0.37792  0.61211  0.45890  1.0000
  C   C608      1.0  0.36345  0.61496  0.43879  1.0000
  H   H594      1.0  0.37995  0.64783  0.39315  1.0000
  H   H595      1.0  0.40562  0.64251  0.42797  1.0000
  H   H596      1.0  0.26416  0.82024  0.42582  1.0000
  H   H597      1.0  0.35170  0.60722  0.44190  1.0000
  C   C609      1.0  0.27196  0.67185  0.37931  1.0000
  C   C610      1.0  0.26666  0.67175  0.34779  1.0000
  H   H598      1.0  0.47754  0.58847  0.08727  1.0000
  H   H599      1.0  0.28580  0.67278  0.38484  1.0000
  H   H600      1.0  0.30561  0.88158  0.42965  1.0000
  C   C611      1.0  0.46100  0.95010  0.14798  1.0000
  C   C612      1.0  0.49293  0.92910  0.06200  1.0000
  C   C613      1.0  0.49337  0.91081  0.05877  1.0000
  N   N51       1.0  0.29069  0.63202  0.41098  1.0000
  H   H601      1.0  0.48118  0.90358  0.05825  1.0000
  N   N52       1.0  0.46622  0.93155  0.14533  1.0000
  C   C614      1.0  0.48944  0.59387  0.04205  1.0000
  C   C615      1.0  0.48975  0.59037  0.07444  1.0000
  C   C616      1.0  0.50327  0.63585  0.06847  1.0000
  N   N53       1.0  0.38904  0.62151  0.30426  1.0000
  C   C617      1.0  0.37506  0.61889  0.32426  1.0000
  C   C618      1.0  0.38871  0.61524  0.27406  1.0000
  C   C619      1.0  0.37415  0.60596  0.26329  1.0000
  C   C620      1.0  0.35973  0.60347  0.28337  1.0000
  C   C621      1.0  0.40391  0.63216  0.31450  1.0000
  H   H602      1.0  0.39952  0.61774  0.25780  1.0000
  H   H603      1.0  0.37370  0.60148  0.23901  1.0000
  C   C622      1.0  0.30346  0.76258  0.34363  1.0000
  H   H604      1.0  0.40532  0.63183  0.34061  1.0000
  H   H605      1.0  0.41650  0.62722  0.30409  1.0000
  H   H606      1.0  0.40179  0.64604  0.30702  1.0000
  C   C623      1.0  0.31656  0.73086  0.36627  1.0000
  C   C624      1.0  0.36022  0.60984  0.31417  1.0000
  N   N54       1.0  0.38549  0.54304  0.46473  1.0000
  C   C625      1.0  0.33704  0.84980  0.43704  1.0000
  C   C626      1.0  0.31677  0.87439  0.43932  1.0000
  H   H607      1.0  0.39409  0.51148  0.41033  1.0000
  H   H608      1.0  0.28743  0.74668  0.31390  1.0000
  H   H609      1.0  0.32241  0.71854  0.37412  1.0000
  C   C627      1.0  0.42427  0.52281  0.48538  1.0000
  C   C628      1.0  0.50884  0.93831  0.06286  1.0000
  H   H610      1.0  0.29724  0.70386  0.34947  1.0000
  C   C629      1.0  0.38567  0.97860  0.45388  1.0000
  H   H611      1.0  0.46372  0.56136  0.04607  1.0000
  S   S222      1.0  0.42445  0.57529  0.01116  1.0000
  C   C630      1.0  0.48485  0.63002  0.11393  1.0000
  C   C631      1.0  0.29745  0.71432  0.33113  1.0000
  C   C632      1.0  0.50163  0.63235  0.10066  1.0000
  C   C633      1.0  0.50545  0.59634  0.02577  1.0000
  C   C634      1.0  0.37607  0.53338  0.48615  1.0000
  H   H612      1.0  0.30630  0.71004  0.31155  1.0000
  H   H613      1.0  0.40302  0.93893  0.45859  1.0000
  H   H614      1.0  0.39884  0.95161  0.42378  1.0000
  H   H615      1.0  0.31328  0.64577  0.42629  1.0000
  C   C635      1.0  0.47610  0.89652  0.13752  1.0000
  C   C636      1.0  0.32268  0.85902  0.42467  1.0000
  C   C637      1.0  0.32540  0.88038  0.46622  1.0000
  C   C638      1.0  0.27371  0.63000  0.42154  1.0000
  C   C639      1.0  0.42271  0.00019  0.47873  1.0000
  H   H616      1.0  0.46042  0.95611  0.12406  1.0000
  H   H617      1.0  0.30020  0.63675  0.45773  1.0000
  H   H618      1.0  0.42875  0.53612  0.48183  1.0000
  S   S223      1.0  0.41213  0.61858  0.47878  1.0000
  H   H619      1.0  0.26358  0.66984  0.42804  1.0000
  H   H620      1.0  0.39990  0.54285  0.42129  1.0000
  H   H621      1.0  0.37974  0.56768  0.48674  1.0000
  C   C640      1.0  0.30510  0.63433  0.43334  1.0000
  C   C641      1.0  0.39019  0.56118  0.47222  1.0000
  N   N55       1.0  0.34953  0.83110  0.20511  1.0000
  C   C642      1.0  0.34908  0.81712  0.22542  1.0000
  C   C643      1.0  0.36532  0.83738  0.19434  1.0000
  C   C644      1.0  0.36471  0.80935  0.23617  1.0000
  C   C645      1.0  0.38120  0.83014  0.20502  1.0000
  C   C646      1.0  0.38086  0.81605  0.22614  1.0000
  C   C647      1.0  0.33294  0.83905  0.19440  1.0000
  H   H622      1.0  0.33657  0.81206  0.23384  1.0000
  H   H623      1.0  0.36571  0.84845  0.17817  1.0000
  H   H624      1.0  0.36426  0.79845  0.25272  1.0000
  H   H625      1.0  0.39365  0.83565  0.19730  1.0000
  H   H626      1.0  0.39306  0.81042  0.23496  1.0000
  H   H627      1.0  0.32655  0.83037  0.17704  1.0000
  H   H628      1.0  0.32391  0.84132  0.21485  1.0000
  H   H629      1.0  0.33508  0.85220  0.18356  1.0000
  H   H630      1.0  0.42547  0.99609  0.45476  1.0000
  C   C648      1.0  0.29445  0.63179  0.37938  1.0000
  C   C649      1.0  0.26363  0.62820  0.36784  1.0000
  H   H631      1.0  0.44854  0.89094  0.14530  1.0000
  C   C650      1.0  0.41848  0.98875  0.00353  1.0000
  C   C651      1.0  0.38849  0.51773  0.43118  1.0000
  H   H632      1.0  0.37336  0.53517  0.03439  1.0000
  H   H633      1.0  0.43452  0.51344  0.44067  1.0000
  C   C652      1.0  0.48868  0.90971  0.13522  1.0000
  H   H634      1.0  0.45615  0.53300  0.07106  1.0000
  H   H635      1.0  0.47063  0.95742  0.16233  1.0000
  H   H636      1.0  0.34207  0.83805  0.42546  1.0000
  H   H637      1.0  0.45193  0.63226  0.13458  1.0000
  C   C653      1.0  0.28100  0.62998  0.35733  1.0000
  H   H638      1.0  0.28379  0.71545  0.32202  1.0000
  H   H639      1.0  0.50177  0.90315  0.48426  1.0000
  H   H640      1.0  0.44208  0.63501  0.09685  1.0000
  C   C654      1.0  0.45381  0.91869  0.14771  1.0000
  H   H641      1.0  0.31616  0.85439  0.40364  1.0000
  N   N56       1.0  0.47011  0.63132  0.09565  1.0000
  C   C655      1.0  0.34533  0.85612  0.46398  1.0000
  C   C656      1.0  0.45855  0.90102  0.14381  1.0000
  H   H642      1.0  0.35674  0.84904  0.47292  1.0000
  H   H643      1.0  0.40265  0.56119  0.48577  1.0000
  H   H644      1.0  0.37517  0.62413  0.34798  1.0000
  C   C657      1.0  0.45274  0.62789  0.10962  1.0000
  H   H645      1.0  0.44782  0.95170  0.15935  1.0000
  C   C658      1.0  0.31646  0.76257  0.36666  1.0000
  H   H646      1.0  0.50604  0.58790  0.11576  1.0000
  H   H647      1.0  0.31377  0.62245  0.43341  1.0000
  H   H648      1.0  0.28393  0.63071  0.33223  1.0000
  H   H649      1.0  0.34805  0.59703  0.27475  1.0000
  H   H650      1.0  0.34901  0.60822  0.32996  1.0000
  H   H651      1.0  0.44994  0.61361  0.10879  1.0000
  H   H652      1.0  0.32194  0.77489  0.37456  1.0000
  C   C659      1.0  0.47162  0.63457  0.06399  1.0000
  H   H653      1.0  0.46005  0.63468  0.04914  1.0000
  H   H654      1.0  0.37723  0.60234  0.47741  1.0000
  H   H655      1.0  0.39197  0.56927  0.45058  1.0000
  C   C660      1.0  0.48345  0.92727  0.13895  1.0000
  C   C661      1.0  0.50592  0.59008  0.09054  1.0000
  H   H656      1.0  0.49315  0.93750  0.13572  1.0000
  C   C662      1.0  0.39178  0.53542  0.43760  1.0000
  H   H657      1.0  0.29886  0.77493  0.33361  1.0000
  H   H658      1.0  0.38823  0.98090  0.42902  1.0000
  C   C663      1.0  0.46342  0.54948  0.03204  1.0000
  S   S224      1.0  0.38250  0.91040  0.49149  1.0000
  C   C664      1.0  0.38069  0.99284  0.47295  1.0000
  H   H659      1.0  0.37950  0.56304  0.00586  1.0000
  C   C665      1.0  0.48819  0.63701  0.04998  1.0000
  C   C666      1.0  0.26238  0.83199  0.41174  1.0000
  H   H660      1.0  0.40297  0.87779  0.48297  1.0000
  H   H661      1.0  0.27059  0.63044  0.44654  1.0000
  H   H662      1.0  0.48934  0.63894  0.02468  1.0000
  N   N57       1.0  0.33960  0.87134  0.47800  1.0000
  H   H663      1.0  0.37982  0.00600  0.46309  1.0000
  C   C667      1.0  0.42753  0.50991  0.46208  1.0000
  H   H664      1.0  0.36167  0.96547  0.01028  1.0000
  C   C668      1.0  0.37254  0.51567  0.48048  1.0000
  H   H665      1.0  0.48373  0.62675  0.13876  1.0000
  H   H666      1.0  0.50231  0.90643  0.12953  1.0000
  H   H667      1.0  0.47991  0.88288  0.13403  1.0000
  C   C669      1.0  0.25933  0.67022  0.40377  1.0000
  H   H668      1.0  0.32077  0.89236  0.47748  1.0000
  C   C670      1.0  0.46694  0.55023  0.99974  1.0000
  C   C671      1.0  0.39377  0.00698  0.01967  1.0000
  C   C672      1.0  0.25994  0.62805  0.40015  1.0000
  C   C673      1.0  0.37885  0.50781  0.45284  1.0000
  H   H669      1.0  0.50861  0.95245  0.06552  1.0000
  Fe  Fe113     1.0  0.35255  0.66865  0.85147  1.0000
  S   S225      1.0  0.34267  0.64705  0.82030  1.0000
  S   S226      1.0  0.36844  0.66648  0.89655  1.0000
  Fe  Fe114     1.0  0.33407  0.69778  0.81357  1.0000
  S   S227      1.0  0.32278  0.67813  0.77995  1.0000
  S   S228      1.0  0.32452  0.72602  0.80652  1.0000
  Fe  Fe115     1.0  0.31671  0.66213  0.82340  1.0000
  S   S229      1.0  0.29038  0.64882  0.83340  1.0000
  Fe  Fe116     1.0  0.34964  0.66496  0.77938  1.0000
  S   S230      1.0  0.36469  0.66102  0.73204  1.0000
  S   S231      1.0  0.32635  0.68247  0.85675  1.0000
  S   S232      1.0  0.36120  0.68584  0.81082  1.0000
  Fe  Fe117     1.0  0.40669  0.59498  0.59202  1.0000
  S   S233      1.0  0.42656  0.61220  0.56745  1.0000
  S   S234      1.0  0.39126  0.59928  0.63871  1.0000
  Fe  Fe118     1.0  0.41512  0.56361  0.54650  1.0000
  H   H670      1.0  0.32565  0.74530  0.73558  1.0000
  S   S235      1.0  0.40776  0.53474  0.54057  1.0000
  Fe  Fe119     1.0  0.44479  0.58858  0.56601  1.0000
  S   S236      1.0  0.47258  0.58670  0.58645  1.0000
  Fe  Fe120     1.0  0.41556  0.60111  0.52215  1.0000
  H   H671      1.0  0.32950  0.62424  0.90706  1.0000
  S   S237      1.0  0.42562  0.57197  0.59334  1.0000
  S   S238      1.0  0.39457  0.58533  0.54673  1.0000
  Fe  Fe121     1.0  0.34866  0.82512  0.82729  1.0000
  S   S239      1.0  0.32786  0.82988  0.79109  1.0000
  S   S240      1.0  0.36212  0.79848  0.83464  1.0000
  Fe  Fe122     1.0  0.34609  0.86280  0.85190  1.0000
  S   S241      1.0  0.32469  0.86985  0.81722  1.0000
  S   S242      1.0  0.35261  0.88524  0.88530  1.0000
  Fe  Fe123     1.0  0.31281  0.84382  0.83001  1.0000
  S   S243      1.0  0.28398  0.83565  0.83589  1.0000
  Fe  Fe124     1.0  0.34162  0.85551  0.78141  1.0000
  S   S244      1.0  0.34358  0.86633  0.73085  1.0000
  S   S245      1.0  0.33304  0.83763  0.86690  1.0000
  S   S246      1.0  0.36364  0.84988  0.81532  1.0000
  Fe  Fe125     1.0  0.44110  0.91399  0.55371  1.0000
  S   S247      1.0  0.43415  0.93070  0.59562  1.0000
  S   S248      1.0  0.46844  0.90184  0.54509  1.0000
  Fe  Fe126     1.0  0.40312  0.91453  0.52979  1.0000
  S   S249      1.0  0.39367  0.93117  0.57084  1.0000
  C   C674      1.0  0.42465  0.61831  0.68415  1.0000
  Fe  Fe127     1.0  0.41810  0.94699  0.56164  1.0000
  S   S250      1.0  0.41631  0.97697  0.56505  1.0000
  Fe  Fe128     1.0  0.41024  0.91345  0.60151  1.0000
  S   S251      1.0  0.40490  0.90434  0.65264  1.0000
  C   C675      1.0  0.32350  0.63571  0.89481  1.0000
  S   S252      1.0  0.41810  0.89568  0.56106  1.0000
  C   C676      1.0  0.41851  0.99255  0.53405  1.0000
  H   H672      1.0  0.38859  0.92750  0.71991  1.0000
  N   N58       1.0  0.36662  0.71473  0.73232  1.0000
  H   H673      1.0  0.42333  0.57629  0.66661  1.0000
  H   H674      1.0  0.33444  0.91197  0.71575  1.0000
  C   C677      1.0  0.37008  0.88632  0.91277  1.0000
  C   C678      1.0  0.36891  0.89862  0.93744  1.0000
  C   C679      1.0  0.38280  0.90056  0.95893  1.0000
  C   C680      1.0  0.39827  0.89058  0.95541  1.0000
  C   C681      1.0  0.39945  0.87825  0.93079  1.0000
  C   C682      1.0  0.38537  0.87600  0.90973  1.0000
  H   H675      1.0  0.35709  0.90659  0.94006  1.0000
  H   H676      1.0  0.38615  0.94634  0.50803  1.0000
  H   H677      1.0  0.43579  0.00022  0.96864  1.0000
  H   H678      1.0  0.38649  0.86653  0.89081  1.0000
  C   C683      1.0  0.36149  0.87493  0.70824  1.0000
  C   C684      1.0  0.37827  0.87717  0.72089  1.0000
  C   C685      1.0  0.39155  0.88559  0.70302  1.0000
  C   C686      1.0  0.38831  0.89184  0.67225  1.0000
  C   C687      1.0  0.37167  0.88913  0.65926  1.0000
  C   C688      1.0  0.35837  0.88077  0.67719  1.0000
  H   H679      1.0  0.38094  0.87270  0.74461  1.0000
  H   H680      1.0  0.40437  0.88755  0.71328  1.0000
  H   H681      1.0  0.36893  0.89385  0.63572  1.0000
  H   H682      1.0  0.34546  0.87909  0.66712  1.0000
  H   H683      1.0  0.38471  0.53422  0.91945  1.0000
  H   H684      1.0  0.27337  0.66404  0.96805  1.0000
  H   H685      1.0  0.41150  0.58769  0.69665  1.0000
  H   H686      1.0  0.28254  0.86365  0.88369  1.0000
  H   H687      1.0  0.31803  0.63140  0.87187  1.0000
  H   H688      1.0  0.44814  0.64646  0.63820  1.0000
  C   C689      1.0  0.29307  0.63698  0.91442  1.0000
  H   H689      1.0  0.36071  0.92552  0.69029  1.0000
  H   H690      1.0  0.46094  0.61801  0.61981  1.0000
  H   H691      1.0  0.42469  0.64656  0.67982  1.0000
  C   C690      1.0  0.33613  0.74580  0.81192  1.0000
  C   C691      1.0  0.32780  0.76172  0.80365  1.0000
  C   C692      1.0  0.33591  0.77792  0.80934  1.0000
  C   C693      1.0  0.35245  0.77837  0.82353  1.0000
  C   C694      1.0  0.36110  0.76241  0.83071  1.0000
  C   C695      1.0  0.35299  0.74617  0.82491  1.0000
  H   H692      1.0  0.31481  0.76156  0.79334  1.0000
  H   H693      1.0  0.32923  0.79006  0.80329  1.0000
  H   H694      1.0  0.37394  0.76265  0.84157  1.0000
  H   H695      1.0  0.35957  0.73399  0.83123  1.0000
  C   C696      1.0  0.37152  0.64356  0.70615  1.0000
  C   C697      1.0  0.36878  0.62581  0.71318  1.0000
  C   C698      1.0  0.37465  0.61257  0.69203  1.0000
  C   C699      1.0  0.38329  0.61678  0.66345  1.0000
  C   C700      1.0  0.38604  0.63453  0.65640  1.0000
  C   C701      1.0  0.38024  0.64777  0.67762  1.0000
  H   H696      1.0  0.36212  0.62226  0.73492  1.0000
  H   H697      1.0  0.37241  0.59893  0.69788  1.0000
  H   H698      1.0  0.39265  0.63807  0.63461  1.0000
  H   H699      1.0  0.38242  0.66141  0.67173  1.0000
  C   C702      1.0  0.37346  0.64709  0.91813  1.0000
  C   C703      1.0  0.36859  0.63045  0.90762  1.0000
  C   C704      1.0  0.37212  0.61549  0.92626  1.0000
  C   C705      1.0  0.38092  0.61694  0.95517  1.0000
  C   C706      1.0  0.38617  0.63352  0.96532  1.0000
  C   C707      1.0  0.38236  0.64853  0.94693  1.0000
  H   H700      1.0  0.36223  0.62908  0.88508  1.0000
  H   H701      1.0  0.28919  0.79685  0.86106  1.0000
  C   C708      1.0  0.50401  0.90195  0.55721  1.0000
  H   H702      1.0  0.38627  0.66133  0.95516  1.0000
  C   C709      1.0  0.27525  0.67325  0.87476  1.0000
  C   C710      1.0  0.27307  0.65789  0.85717  1.0000
  H   H703      1.0  0.26647  0.63919  0.93273  1.0000
  H   H704      1.0  0.28741  0.68043  0.87278  1.0000
  H   H705      1.0  0.43408  0.58081  0.70378  1.0000
  N   N59       1.0  0.30973  0.64365  0.91471  1.0000
  C   C711      1.0  0.48837  0.91205  0.55587  1.0000
  C   C712      1.0  0.48919  0.93015  0.56100  1.0000
  C   C713      1.0  0.47308  0.89097  0.97944  1.0000
  H   H706      1.0  0.47727  0.93807  0.56009  1.0000
  C   C714      1.0  0.49426  0.60055  0.53936  1.0000
  C   C715      1.0  0.49307  0.59278  0.56921  1.0000
  C   C716      1.0  0.33536  0.71901  0.72714  1.0000
  H   H707      1.0  0.48238  0.60352  0.52638  1.0000
  H   H708      1.0  0.46464  0.87960  0.97744  1.0000
  H   H709      1.0  0.38998  0.91626  0.77475  1.0000
  C   C717      1.0  0.38203  0.70294  0.73173  1.0000
  H   H710      1.0  0.34883  0.89223  0.50669  1.0000
  H   H711      1.0  0.37789  0.97108  0.54291  1.0000
  H   H712      1.0  0.34094  0.87309  0.52787  1.0000
  H   H713      1.0  0.33473  0.80014  0.89214  1.0000
  H   H714      1.0  0.36980  0.88761  0.80653  1.0000
  C   C718      1.0  0.37756  0.91597  0.76237  1.0000
  C   C719      1.0  0.46559  0.90753  0.98464  1.0000
  S   S253      1.0  0.38447  0.59776  0.97816  1.0000
  H   H715      1.0  0.37292  0.90910  0.82335  1.0000
  H   H716      1.0  0.34161  0.74435  0.90074  1.0000
  H   H717      1.0  0.39292  0.63483  0.98753  1.0000
  C   C720      1.0  0.45075  0.61825  0.63798  1.0000
  H   H718      1.0  0.32239  0.71360  0.72340  1.0000
  C   C721      1.0  0.37912  0.55070  0.99312  1.0000
  N   N60       1.0  0.36299  0.90874  0.77630  1.0000
  C   C722      1.0  0.34761  0.90743  0.75995  1.0000
  C   C723      1.0  0.26723  0.84336  0.86230  1.0000
  C   C724      1.0  0.40854  0.95815  0.93576  1.0000
  C   C725      1.0  0.30717  0.76800  0.87150  1.0000
  C   C726      1.0  0.36432  0.90116  0.80802  1.0000
  C   C727      1.0  0.34642  0.91381  0.72906  1.0000
  H   H719      1.0  0.35123  0.90058  0.82000  1.0000
  C   C728      1.0  0.34821  0.87764  0.50659  1.0000
  H   H720      1.0  0.41429  0.61848  0.70198  1.0000
  H   H721      1.0  0.42519  0.51825  0.94821  1.0000
  H   H722      1.0  0.38141  0.69387  0.71124  1.0000
  H   H723      1.0  0.33637  0.90073  0.77021  1.0000
  C   C729      1.0  0.36115  0.92135  0.71477  1.0000
  H   H724      1.0  0.39456  0.71027  0.72977  1.0000
  C   C730      1.0  0.35030  0.70809  0.72646  1.0000
  C   C731      1.0  0.44360  0.63420  0.64837  1.0000
  H   H725      1.0  0.29482  0.76602  0.85943  1.0000
  H   H726      1.0  0.37831  0.94160  0.98684  1.0000
  C   C732      1.0  0.46652  0.53487  0.98188  1.0000
  C   C733      1.0  0.43052  0.63428  0.67173  1.0000
  H   H727      1.0  0.38128  0.73727  0.74580  1.0000
  N   N61       1.0  0.43132  0.60270  0.67307  1.0000
  C   C734      1.0  0.31710  0.75328  0.88071  1.0000
  C   C735      1.0  0.33720  0.73681  0.73395  1.0000
  H   H728      1.0  0.38229  0.69484  0.75356  1.0000
  C   C736      1.0  0.26990  0.85724  0.88324  1.0000
  C   C737      1.0  0.32942  0.78703  0.88982  1.0000
  C   C738      1.0  0.27983  0.64408  0.93386  1.0000
  C   C739      1.0  0.37684  0.92248  0.73148  1.0000
  H   H729      1.0  0.31256  0.74013  0.87554  1.0000
  H   H730      1.0  0.34872  0.69421  0.72151  1.0000
  C   C740      1.0  0.42145  0.51332  0.97126  1.0000
  H   H731      1.0  0.44993  0.59017  0.64221  1.0000
  C   C741      1.0  0.36848  0.73209  0.73991  1.0000
  C   C742      1.0  0.41464  0.51859  0.51262  1.0000
  C   C743      1.0  0.33969  0.77263  0.89932  1.0000
  C   C744      1.0  0.30328  0.79988  0.86512  1.0000
  C   C745      1.0  0.42484  0.58604  0.68585  1.0000
  C   C746      1.0  0.35384  0.74342  0.74053  1.0000
  C   C747      1.0  0.42252  0.98752  0.50307  1.0000
  H   H732      1.0  0.38156  0.90978  0.97815  1.0000
  H   H733      1.0  0.46987  0.56276  0.98861  1.0000
  H   H734      1.0  0.50307  0.93128  0.98739  1.0000
  H   H735      1.0  0.35103  0.97122  0.97349  1.0000
  H   H736      1.0  0.30401  0.67556  0.96937  1.0000
  H   H737      1.0  0.40468  0.93241  0.95603  1.0000
  H   H738      1.0  0.26390  0.69070  0.90971  1.0000
  C   C748      1.0  0.37774  0.99012  0.50513  1.0000
  H   H739      1.0  0.41133  0.87041  0.92792  1.0000
  C   C749      1.0  0.38241  0.55039  0.96072  1.0000
  C   C750      1.0  0.37958  0.97326  0.51774  1.0000
  H   H740      1.0  0.32712  0.66226  0.93496  1.0000
  H   H741      1.0  0.42031  0.95433  0.92267  1.0000
  H   H742      1.0  0.38249  0.99369  0.95079  1.0000
  H   H743      1.0  0.38528  0.56256  0.94830  1.0000
  H   H744      1.0  0.50345  0.88792  0.55343  1.0000
  N   N62       1.0  0.31332  0.78460  0.87638  1.0000
  H   H745      1.0  0.48767  0.55906  0.53916  1.0000
  C   C751      1.0  0.44443  0.60253  0.65070  1.0000
  C   C752      1.0  0.37518  0.51929  0.99221  1.0000
  H   H746      1.0  0.28980  0.62649  0.89827  1.0000
  C   C753      1.0  0.38486  0.95112  0.97184  1.0000
  H   H747      1.0  0.37463  0.00114  0.52047  1.0000
  H   H748      1.0  0.35275  0.77465  0.90877  1.0000
  H   H749      1.0  0.35526  0.75711  0.74713  1.0000
  H   H750      1.0  0.30353  0.81078  0.88253  1.0000
  S   S254      1.0  0.43540  0.57872  0.51912  1.0000
  C   C754      1.0  0.33346  0.75565  0.89471  1.0000
  C   C755      1.0  0.30083  0.66466  0.95411  1.0000
  H   H751      1.0  0.36349  0.98722  0.99551  1.0000
  S   S255      1.0  0.41667  0.89359  0.98035  1.0000
  H   H752      1.0  0.33402  0.64531  0.88935  1.0000
  H   H753      1.0  0.30901  0.80470  0.84253  1.0000
  H   H754      1.0  0.36814  0.60269  0.91811  1.0000
  H   H755      1.0  0.46904  0.53535  0.95667  1.0000
  C   C756      1.0  0.39980  0.94587  0.95455  1.0000
  C   C757      1.0  0.41974  0.52508  0.99673  1.0000
  S   S256      1.0  0.42665  0.93145  0.51911  1.0000
  H   H756      1.0  0.37198  0.53912  0.50850  1.0000
  C   C758      1.0  0.31380  0.65715  0.93452  1.0000
  H   H757      1.0  0.49329  0.55247  0.57814  1.0000
  C   C759      1.0  0.38207  0.53436  0.94463  1.0000
  C   C760      1.0  0.38711  0.98014  0.95159  1.0000
  C   C761      1.0  0.49569  0.54942  0.55281  1.0000
  C   C762      1.0  0.49473  0.91991  0.98457  1.0000
  H   H758      1.0  0.36210  0.87286  0.50792  1.0000
  C   C763      1.0  0.40216  0.97540  0.93418  1.0000
  N   N63       1.0  0.37867  0.51906  0.96047  1.0000
  N   N64       1.0  0.37880  0.96810  0.97040  1.0000
  C   C764      1.0  0.26185  0.67907  0.89570  1.0000
  H   H759      1.0  0.40905  0.98520  0.92025  1.0000
  C   C765      1.0  0.49144  0.88921  0.97707  1.0000
  C   C766      1.0  0.50554  0.93813  0.56640  1.0000
  H   H760      1.0  0.49089  0.53602  0.54766  1.0000
  H   H761      1.0  0.49720  0.87628  0.97320  1.0000
  H   H762      1.0  0.42227  0.53887  0.99313  1.0000
  C   C767      1.0  0.42408  0.00222  0.98300  1.0000
  H   H763      1.0  0.50794  0.58302  0.60881  1.0000
  H   H764      1.0  0.50604  0.95220  0.56971  1.0000
  C   C768      1.0  0.47644  0.92212  0.98724  1.0000
  H   H765      1.0  0.45139  0.90898  0.98684  1.0000
  N   N65       1.0  0.50201  0.90357  0.97991  1.0000
  C   C769      1.0  0.50869  0.58902  0.58569  1.0000
  C   C770      1.0  0.28372  0.65810  0.95362  1.0000
  C   C771      1.0  0.36288  0.97324  0.98811  1.0000
  H   H766      1.0  0.47076  0.93500  0.99217  1.0000
  C   C772      1.0  0.46265  0.51890  0.99674  1.0000
  H   H767      1.0  0.42513  0.97383  0.49780  1.0000
  C   C773      1.0  0.38454  0.95935  0.49799  1.0000
  H   H768      1.0  0.36568  0.50790  0.49811  1.0000
  Fe  Fe129     1.0  0.66910  0.35603  0.15317  1.0000
  S   S257      1.0  0.68822  0.36815  0.18717  1.0000
  S   S258      1.0  0.66651  0.37004  0.10566  1.0000
  Fe  Fe130     1.0  0.66651  0.32189  0.19189  1.0000
  S   S259      1.0  0.68541  0.33202  0.22767  1.0000
  S   S260      1.0  0.65446  0.29512  0.20328  1.0000
  Fe  Fe131     1.0  0.67017  0.35763  0.22554  1.0000
  S   S261      1.0  0.66542  0.37056  0.27426  1.0000
  Fe  Fe132     1.0  0.70162  0.34167  0.18655  1.0000
  S   S262      1.0  0.73075  0.33382  0.18281  1.0000
  S   S263      1.0  0.65020  0.34708  0.19152  1.0000
  S   S264      1.0  0.68351  0.32993  0.15095  1.0000
  Fe  Fe133     1.0  0.60946  0.40856  0.47100  1.0000
  S   S265      1.0  0.62189  0.42564  0.43373  1.0000
  H   H769      1.0  0.71946  0.22504  0.17152  1.0000
  Fe  Fe134     1.0  0.57228  0.42252  0.45655  1.0000
  S   S266      1.0  0.58233  0.44011  0.41774  1.0000
  S   S267      1.0  0.54408  0.42478  0.47606  1.0000
  Fe  Fe135     1.0  0.59974  0.41709  0.40292  1.0000
  S   S268      1.0  0.60311  0.41004  0.35038  1.0000
  Fe  Fe136     1.0  0.60368  0.44709  0.45177  1.0000
  S   S269      1.0  0.61475  0.47477  0.45602  1.0000
  S   S270      1.0  0.58791  0.39892  0.43932  1.0000
  H   H770      1.0  0.51513  0.11866  0.47749  1.0000
  Fe  Fe137     1.0  0.66871  0.15219  0.15000  1.0000
  S   S271      1.0  0.68319  0.14229  0.19311  1.0000
  S   S272      1.0  0.66296  0.13126  0.11299  1.0000
  Fe  Fe138     1.0  0.67304  0.19105  0.16940  1.0000
  S   S273      1.0  0.68721  0.18321  0.21351  1.0000
  S   S274      1.0  0.67502  0.21897  0.14933  1.0000
  Fe  Fe139     1.0  0.70232  0.16409  0.18299  1.0000
  S   S275      1.0  0.73229  0.16381  0.18813  1.0000
  Fe  Fe140     1.0  0.66662  0.16213  0.21976  1.0000
  S   S276      1.0  0.65591  0.15884  0.27065  1.0000
  S   S277      1.0  0.68906  0.17255  0.13874  1.0000
  S   S278      1.0  0.65119  0.17127  0.17697  1.0000
  Fe  Fe141     1.0  0.57798  0.09646  0.45253  1.0000
  S   S279      1.0  0.58494  0.07823  0.41281  1.0000
  S   S280      1.0  0.55080  0.10882  0.46170  1.0000
  H   H771      1.0  0.58648  0.03793  0.01665  1.0000
  S   S281      1.0  0.62485  0.07674  0.44028  1.0000
  H   H772      1.0  0.70917  0.35852  0.12264  1.0000
  Fe  Fe142     1.0  0.60973  0.09420  0.40672  1.0000
  S   S282      1.0  0.61900  0.09910  0.35536  1.0000
  Fe  Fe143     1.0  0.59960  0.06233  0.44948  1.0000
  S   S283      1.0  0.59729  0.03235  0.44878  1.0000
  S   S284      1.0  0.60185  0.11366  0.44453  1.0000
  H   H773      1.0  0.66028  0.31944  0.32853  1.0000
  C   C774      1.0  0.53028  0.10062  0.44865  1.0000
  H   H774      1.0  0.64427  0.05506  0.02544  1.0000
  C   C775      1.0  0.52932  0.08736  0.42600  1.0000
  C   C776      1.0  0.60050  0.48977  0.01216  1.0000
  H   H775      1.0  0.54130  0.08124  0.41711  1.0000
  C   C777      1.0  0.64046  0.05131  0.04993  1.0000
  C   C778      1.0  0.74864  0.34419  0.16326  1.0000
  C   C779      1.0  0.62686  0.32311  0.25075  1.0000
  C   C780      1.0  0.70514  0.12514  0.26415  1.0000
  C   C781      1.0  0.63032  0.34269  0.30530  1.0000
  C   C782      1.0  0.61780  0.12735  0.04197  1.0000
  C   C783      1.0  0.61702  0.14007  0.06592  1.0000
  C   C784      1.0  0.63098  0.14187  0.08733  1.0000
  C   C785      1.0  0.64587  0.13095  0.08487  1.0000
  C   C786      1.0  0.64684  0.11855  0.06034  1.0000
  C   C787      1.0  0.63287  0.11671  0.03902  1.0000
  H   H776      1.0  0.60545  0.14842  0.06829  1.0000
  H   H777      1.0  0.63007  0.15145  0.10612  1.0000
  H   H778      1.0  0.65833  0.11008  0.05826  1.0000
  H   H779      1.0  0.63367  0.10692  0.02062  1.0000
  C   C788      1.0  0.64504  0.14223  0.29335  1.0000
  C   C789      1.0  0.64199  0.14511  0.32581  1.0000
  C   C790      1.0  0.63407  0.13218  0.34515  1.0000
  C   C791      1.0  0.62902  0.11609  0.33230  1.0000
  C   C792      1.0  0.63202  0.11324  0.29982  1.0000
  C   C793      1.0  0.63993  0.12618  0.28047  1.0000
  H   H780      1.0  0.64582  0.15747  0.33612  1.0000
  H   H781      1.0  0.63193  0.13465  0.37001  1.0000
  H   H782      1.0  0.62815  0.10090  0.28949  1.0000
  H   H783      1.0  0.64208  0.12372  0.25561  1.0000
  H   H784      1.0  0.51489  0.46013  0.45645  1.0000
  C   C794      1.0  0.74204  0.15966  0.12509  1.0000
  C   C795      1.0  0.74752  0.16264  0.15600  1.0000
  H   H785      1.0  0.59614  0.47648  0.01629  1.0000
  H   H786      1.0  0.72823  0.15768  0.12034  1.0000
  C   C796      1.0  0.75449  0.15917  0.10017  1.0000
  C   C797      1.0  0.52360  0.41821  0.46012  1.0000
  C   C798      1.0  0.52233  0.41035  0.43046  1.0000
  H   H787      1.0  0.72255  0.16574  0.25414  1.0000
  H   H788      1.0  0.53418  0.40759  0.41687  1.0000
  C   C799      1.0  0.59727  0.50283  0.03500  1.0000
  C   C800      1.0  0.55614  0.10342  0.34670  1.0000
  H   H789      1.0  0.66219  0.34320  0.32752  1.0000
  C   C801      1.0  0.54368  0.11139  0.36655  1.0000
  H   H790      1.0  0.70566  0.20713  0.11276  1.0000
  H   H791      1.0  0.67398  0.10951  0.28118  1.0000
  C   C802      1.0  0.59333  0.02541  0.01778  1.0000
  H   H792      1.0  0.58351  0.10261  0.33241  1.0000
  C   C803      1.0  0.66136  0.27404  0.18921  1.0000
  C   C804      1.0  0.65498  0.25885  0.20433  1.0000
  C   C805      1.0  0.65945  0.24189  0.19314  1.0000
  C   C806      1.0  0.67008  0.23992  0.16621  1.0000
  C   C807      1.0  0.67656  0.25510  0.15123  1.0000
  C   C808      1.0  0.67238  0.27205  0.16279  1.0000
  H   H793      1.0  0.64638  0.26020  0.22469  1.0000
  H   H794      1.0  0.65425  0.23038  0.20482  1.0000
  H   H795      1.0  0.68470  0.25378  0.13028  1.0000
  H   H796      1.0  0.67730  0.28357  0.15076  1.0000
  C   C809      1.0  0.64758  0.38103  0.29493  1.0000
  C   C810      1.0  0.63177  0.38583  0.28034  1.0000
  C   C811      1.0  0.61819  0.39429  0.29786  1.0000
  C   C812      1.0  0.62011  0.39797  0.33021  1.0000
  C   C813      1.0  0.63578  0.39283  0.34494  1.0000
  C   C814      1.0  0.64942  0.38453  0.32736  1.0000
  H   H797      1.0  0.63007  0.38320  0.25549  1.0000
  H   H798      1.0  0.60615  0.39820  0.28614  1.0000
  H   H799      1.0  0.63752  0.39555  0.36974  1.0000
  H   H800      1.0  0.66155  0.38085  0.33901  1.0000
  C   C815      1.0  0.64751  0.37834  0.08621  1.0000
  C   C816      1.0  0.64944  0.38555  0.05577  1.0000
  C   C817      1.0  0.63480  0.39236  0.03934  1.0000
  C   C818      1.0  0.61804  0.39215  0.05334  1.0000
  C   C819      1.0  0.61611  0.38501  0.08381  1.0000
  C   C820      1.0  0.63075  0.37810  0.10017  1.0000
  H   H801      1.0  0.66234  0.38572  0.04472  1.0000
  H   H802      1.0  0.73747  0.36892  0.06544  1.0000
  H   H803      1.0  0.60319  0.38473  0.09480  1.0000
  H   H804      1.0  0.62906  0.37259  0.12352  1.0000
  C   C821      1.0  0.71590  0.13833  0.25182  1.0000
  H   H805      1.0  0.65185  0.42312  0.49074  1.0000
  C   C822      1.0  0.74749  0.36142  0.15184  1.0000
  C   C823      1.0  0.62627  0.44101  0.03471  1.0000
  H   H806      1.0  0.73556  0.36906  0.15577  1.0000
  N   N66       1.0  0.63029  0.44610  0.34477  1.0000
  C   C824      1.0  0.64556  0.44187  0.36011  1.0000
  C   C825      1.0  0.62806  0.44130  0.31400  1.0000
  C   C826      1.0  0.65902  0.43243  0.34465  1.0000
  C   C827      1.0  0.64128  0.43195  0.29779  1.0000
  C   C828      1.0  0.65682  0.42745  0.31329  1.0000
  C   C829      1.0  0.61624  0.45605  0.36095  1.0000
  H   H807      1.0  0.64732  0.44560  0.38454  1.0000
  H   H808      1.0  0.61574  0.44419  0.30219  1.0000
  H   H809      1.0  0.67095  0.42874  0.35703  1.0000
  H   H810      1.0  0.63923  0.42763  0.27374  1.0000
  S   S285      1.0  0.62835  0.38925  0.49450  1.0000
  N   N67       1.0  0.72630  0.34674  0.08881  1.0000
  C   C830      1.0  0.58616  0.01148  0.03554  1.0000
  H   H811      1.0  0.57384  0.01347  0.04815  1.0000
  N   N68       1.0  0.69357  0.12869  0.28831  1.0000
  C   C831      1.0  0.71991  0.20574  0.11131  1.0000
  C   C832      1.0  0.69240  0.14524  0.30078  1.0000
  C   C833      1.0  0.70275  0.15881  0.28865  1.0000
  H   H812      1.0  0.60478  0.10481  0.10180  1.0000
  C   C834      1.0  0.74486  0.32104  0.09263  1.0000
  H   H813      1.0  0.68287  0.14826  0.31926  1.0000
  H   H814      1.0  0.70119  0.17207  0.29765  1.0000
  H   H815      1.0  0.55231  0.09296  0.33095  1.0000
  S   S286      1.0  0.59966  0.12514  0.01636  1.0000
  C   C835      1.0  0.73929  0.35533  0.07255  1.0000
  H   H816      1.0  0.53007  0.10716  0.36649  1.0000
  H   H817      1.0  0.59202  0.08812  0.05745  1.0000
  H   H818      1.0  0.70589  0.11210  0.25392  1.0000
  H   H819      1.0  0.70813  0.36850  0.08418  1.0000
  C   C836      1.0  0.63551  0.45534  0.02247  1.0000
  H   H820      1.0  0.63215  0.03938  0.04871  1.0000
  C   C837      1.0  0.66037  0.33121  0.31304  1.0000
  C   C838      1.0  0.72132  0.21065  0.16831  1.0000
  H   H821      1.0  0.60116  0.33513  0.24659  1.0000
  S   S287      1.0  0.59313  0.43065  0.49147  1.0000
  H   H822      1.0  0.60347  0.44917  0.35845  1.0000
  H   H823      1.0  0.69055  0.10371  0.31005  1.0000
  H   H824      1.0  0.66692  0.41968  0.30124  1.0000
  H   H825      1.0  0.61872  0.45743  0.38665  1.0000
  C   C839      1.0  0.71461  0.15528  0.26410  1.0000
  H   H826      1.0  0.58550  0.14652  0.40844  1.0000
  N   N69       1.0  0.63060  0.06576  0.06493  1.0000
  C   C840      1.0  0.61431  0.07024  0.05371  1.0000
  C   C841      1.0  0.63781  0.07503  0.08917  1.0000
  C   C842      1.0  0.60471  0.08422  0.06698  1.0000
  C   C843      1.0  0.62849  0.08898  0.10321  1.0000
  H   H827      1.0  0.75008  0.15688  0.07635  1.0000
  H   H828      1.0  0.64691  0.48522  0.99986  1.0000
  H   H829      1.0  0.75257  0.19745  0.05764  1.0000
  H   H830      1.0  0.65093  0.07188  0.09753  1.0000
  H   H831      1.0  0.71985  0.20074  0.06121  1.0000
  H   H832      1.0  0.67196  0.33048  0.29682  1.0000
  H   H833      1.0  0.72905  0.20504  0.18814  1.0000
  C   C844      1.0  0.72895  0.32986  0.09902  1.0000
  C   C845      1.0  0.64231  0.32229  0.26845  1.0000
  C   C846      1.0  0.72787  0.20229  0.08203  1.0000
  C   C847      1.0  0.61184  0.09358  0.09198  1.0000
  H   H834      1.0  0.51230  0.07246  0.39585  1.0000
  H   H835      1.0  0.65302  0.31374  0.26064  1.0000
  H   H836      1.0  0.63156  0.35046  0.32655  1.0000
  H   H837      1.0  0.65979  0.48492  0.03557  1.0000
  H   H838      1.0  0.62573  0.31535  0.22940  1.0000
  H   H839      1.0  0.72487  0.13558  0.23228  1.0000
  H   H840      1.0  0.60880  0.06306  0.03411  1.0000
  C   C848      1.0  0.62722  0.47261  0.06688  1.0000
  H   H841      1.0  0.67329  0.11926  0.31951  1.0000
  H   H842      1.0  0.60418  0.35272  0.29576  1.0000
  N   N70       1.0  0.64401  0.33226  0.29499  1.0000
  C   C849      1.0  0.61308  0.33417  0.26046  1.0000
  H   H843      1.0  0.61504  0.46943  0.35068  1.0000
  C   C850      1.0  0.61475  0.34398  0.28801  1.0000
  N   N71       1.0  0.56617  0.12971  0.38805  1.0000
  C   C851      1.0  0.54897  0.12454  0.38729  1.0000
  C   C852      1.0  0.57846  0.12207  0.36845  1.0000
  H   H844      1.0  0.75579  0.20670  0.15703  1.0000
  H   H845      1.0  0.69826  0.34759  0.09065  1.0000
  H   H846      1.0  0.65726  0.03878  0.45638  1.0000
  C   C853      1.0  0.57124  0.14346  0.41024  1.0000
  C   C854      1.0  0.59982  0.01723  0.48059  1.0000
  H   H847      1.0  0.59215  0.12600  0.36909  1.0000
  H   H848      1.0  0.62747  0.48498  0.07957  1.0000
  H   H849      1.0  0.63719  0.04173  0.47934  1.0000
  H   H850      1.0  0.64224  0.45397  0.99989  1.0000
  H   H851      1.0  0.56361  0.15571  0.40560  1.0000
  C   C855      1.0  0.74618  0.20062  0.07997  1.0000
  C   C856      1.0  0.61771  0.45857  0.07961  1.0000
  H   H852      1.0  0.63445  0.09666  0.12177  1.0000
  H   H853      1.0  0.62601  0.42866  0.02208  1.0000
  H   H854      1.0  0.71896  0.32335  0.11320  1.0000
  H   H855      1.0  0.59026  0.49952  0.05651  1.0000
  C   C857      1.0  0.75628  0.20258  0.10700  1.0000
  H   H856      1.0  0.61003  0.43157  0.07287  1.0000
  Fe  Fe144     1.0  0.61541  0.09525  0.47862  1.0000
  N   N72       1.0  0.72990  0.20705  0.13787  1.0000
  C   C858      1.0  0.61729  0.44266  0.06337  1.0000
  S   S288      1.0  0.59915  0.40092  0.03414  1.0000
  C   C859      1.0  0.57363  0.10882  0.34752  1.0000
  C   C860      1.0  0.68234  0.11460  0.30043  1.0000
  H   H857      1.0  0.65258  0.04772  0.06303  1.0000
  N   N73       1.0  0.63584  0.47091  0.03852  1.0000
  H   H858      1.0  0.53932  0.13027  0.40343  1.0000
  C   C861      1.0  0.64368  0.03394  0.46027  1.0000
  H   H859      1.0  0.61073  0.45999  0.10191  1.0000
  H   H860      1.0  0.56851  0.13906  0.43485  1.0000
  C   C862      1.0  0.74787  0.20575  0.13597  1.0000
  C   C863      1.0  0.70973  0.35581  0.09690  1.0000
  C   C864      1.0  0.51454  0.10838  0.45997  1.0000
  H   H861      1.0  0.63648  0.39756  0.01577  1.0000
  C   C865      1.0  0.60728  0.49168  0.48219  1.0000
  H   H862      1.0  0.70817  0.20446  0.16951  1.0000
  H   H863      1.0  0.63592  0.03645  0.43855  1.0000
  H   H864      1.0  0.50988  0.44598  0.40507  1.0000
  C   C866      1.0  0.51284  0.08241  0.41398  1.0000
  N   N74       1.0  0.64404  0.01524  0.46875  1.0000
  C   C867      1.0  0.64621  0.48556  0.02609  1.0000
  H   H865      1.0  0.65480  0.14215  0.00107  1.0000
  S   S289      1.0  0.59104  0.07967  0.48961  1.0000
  C   C868      1.0  0.60932  0.02306  0.00160  1.0000
  H   H866      1.0  0.64004  0.49841  0.03253  1.0000
  C   C869      1.0  0.75815  0.32966  0.07593  1.0000
  C   C870      1.0  0.75539  0.34693  0.06584  1.0000
  H   H867      1.0  0.74709  0.30787  0.10169  1.0000
  H   H868      1.0  0.55033  0.48634  0.00413  1.0000
  H   H869      1.0  0.63307  0.44979  0.49666  1.0000
  C   C871      1.0  0.55596  0.49886  0.99739  1.0000
  C   C872      1.0  0.65104  0.01022  0.49704  1.0000
  Fe  Fe145     1.0  0.66407  0.36691  0.66586  1.0000
  S   S290      1.0  0.68512  0.37561  0.69948  1.0000
  S   S291      1.0  0.64692  0.38698  0.64017  1.0000
  Fe  Fe146     1.0  0.66657  0.32866  0.68740  1.0000
  S   S292      1.0  0.68722  0.33474  0.72306  1.0000
  S   S293      1.0  0.65261  0.30267  0.67943  1.0000
  Fe  Fe147     1.0  0.67105  0.35894  0.73550  1.0000
  S   S294      1.0  0.66772  0.36723  0.78741  1.0000
  Fe  Fe148     1.0  0.69974  0.35098  0.68425  1.0000
  S   S295      1.0  0.72984  0.34770  0.68137  1.0000
  S   S296      1.0  0.64939  0.35148  0.70284  1.0000
  S   S297      1.0  0.67962  0.34354  0.64773  1.0000
  H   H870      1.0  0.72689  0.16049  0.52982  1.0000
  S   S298      1.0  0.61892  0.42418  0.95418  1.0000
  H   H871      1.0  0.75246  0.14555  0.55237  1.0000
  Fe  Fe149     1.0  0.56782  0.43281  0.94821  1.0000
  S   S299      1.0  0.58771  0.44319  0.91362  1.0000
  S   S300      1.0  0.54015  0.44356  0.93867  1.0000
  Fe  Fe150     1.0  0.60067  0.41643  0.91470  1.0000
  S   S301      1.0  0.60418  0.40379  0.86566  1.0000
  Fe  Fe151     1.0  0.60397  0.45008  0.95549  1.0000
  S   S302      1.0  0.61598  0.47735  0.95696  1.0000
  S   S303      1.0  0.57963  0.40560  0.94735  1.0000
  H   H872      1.0  0.58835  0.47595  0.50727  1.0000
  Fe  Fe152     1.0  0.65843  0.17079  0.64836  1.0000
  S   S304      1.0  0.66796  0.14845  0.67859  1.0000
  S   S305      1.0  0.64091  0.16801  0.60548  1.0000
  Fe  Fe153     1.0  0.67630  0.19904  0.68896  1.0000
  S   S306      1.0  0.68676  0.17839  0.72236  1.0000
  S   S307      1.0  0.68773  0.22644  0.69595  1.0000
  Fe  Fe154     1.0  0.69371  0.16325  0.67830  1.0000
  S   S308      1.0  0.72089  0.15064  0.67153  1.0000
  Fe  Fe155     1.0  0.66010  0.16557  0.72005  1.0000
  S   S309      1.0  0.64097  0.15887  0.76095  1.0000
  S   S310      1.0  0.68455  0.18430  0.64525  1.0000
  S   S311      1.0  0.64916  0.18742  0.68932  1.0000
  Fe  Fe156     1.0  0.57186  0.08327  0.93937  1.0000
  S   S312      1.0  0.59401  0.06853  0.91473  1.0000
  S   S313      1.0  0.54441  0.07188  0.93235  1.0000
  H   H873      1.0  0.72646  0.21308  0.67949  1.0000
  S   S314      1.0  0.62151  0.09046  0.95741  1.0000
  H   H874      1.0  0.61814  0.01277  0.55341  1.0000
  Fe  Fe157     1.0  0.60791  0.09456  0.91072  1.0000
  S   S315      1.0  0.62640  0.10082  0.86864  1.0000
  Fe  Fe158     1.0  0.60576  0.06569  0.96287  1.0000
  H   H875      1.0  0.62513  0.15533  0.99453  1.0000
  S   S316      1.0  0.58486  0.10964  0.93193  1.0000
  C   C873      1.0  0.61044  0.35915  0.63873  1.0000
  H   H876      1.0  0.71962  0.19054  0.68133  1.0000
  H   H877      1.0  0.69665  0.17213  0.53947  1.0000
  H   H878      1.0  0.66695  0.41054  0.53749  1.0000
  H   H879      1.0  0.53236  0.10878  0.93211  1.0000
  Fe  Fe159     1.0  0.59796  0.10404  0.97869  1.0000
  C   C874      1.0  0.62588  0.46748  0.54911  1.0000
  H   H880      1.0  0.69136  0.13677  0.61807  1.0000
  C   C875      1.0  0.63973  0.32420  0.60396  1.0000
  H   H881      1.0  0.59592  0.15020  0.96554  1.0000
  C   C876      1.0  0.65888  0.42234  0.53984  1.0000
  C   C877      1.0  0.63637  0.11936  0.54191  1.0000
  C   C878      1.0  0.64809  0.11923  0.56743  1.0000
  C   C879      1.0  0.64963  0.13399  0.58713  1.0000
  C   C880      1.0  0.63962  0.14916  0.58119  1.0000
  C   C881      1.0  0.62783  0.14928  0.55581  1.0000
  C   C882      1.0  0.62614  0.13443  0.53632  1.0000
  H   H882      1.0  0.65599  0.10758  0.57198  1.0000
  H   H883      1.0  0.65847  0.13359  0.60695  1.0000
  H   H884      1.0  0.61996  0.16092  0.55113  1.0000
  H   H885      1.0  0.65591  0.01998  0.51327  1.0000
  C   C883      1.0  0.63728  0.14250  0.79069  1.0000
  C   C884      1.0  0.62235  0.14413  0.81057  1.0000
  C   C885      1.0  0.61870  0.13154  0.83429  1.0000
  C   C886      1.0  0.63000  0.11707  0.83864  1.0000
  C   C887      1.0  0.64490  0.11542  0.81868  1.0000
  C   C888      1.0  0.64852  0.12798  0.79488  1.0000
  H   H886      1.0  0.61348  0.15522  0.80752  1.0000
  H   H887      1.0  0.60705  0.13297  0.84897  1.0000
  H   H888      1.0  0.65376  0.10431  0.82169  1.0000
  H   H889      1.0  0.66006  0.12646  0.77993  1.0000
  H   H890      1.0  0.55539  0.43956  0.87225  1.0000
  C   C889      1.0  0.73282  0.17214  0.62300  1.0000
  C   C890      1.0  0.73677  0.15854  0.64413  1.0000
  C   C891      1.0  0.72871  0.20027  0.69158  1.0000
  H   H891      1.0  0.71989  0.17816  0.62318  1.0000
  H   H892      1.0  0.74990  0.36874  0.57662  1.0000
  C   C892      1.0  0.51971  0.43271  0.94382  1.0000
  H   H893      1.0  0.62194  0.13360  0.90237  1.0000
  N   N75       1.0  0.61988  0.34821  0.61556  1.0000
  C   C893      1.0  0.63971  0.44438  0.51713  1.0000
  H   H894      1.0  0.53048  0.40874  0.96304  1.0000
  C   C894      1.0  0.64585  0.12795  0.92703  1.0000
  H   H895      1.0  0.54874  0.37246  0.89981  1.0000
  H   H896      1.0  0.58067  0.49928  0.54619  1.0000
  S   S317      1.0  0.58320  0.07904  0.98770  1.0000
  C   C895      1.0  0.52806  0.41614  0.87127  1.0000
  H   H897      1.0  0.59155  0.16603  0.66517  1.0000
  C   C896      1.0  0.74356  0.13512  0.56146  1.0000
  C   C897      1.0  0.66274  0.28158  0.68301  1.0000
  C   C898      1.0  0.68055  0.27954  0.69051  1.0000
  C   C899      1.0  0.68794  0.26257  0.69429  1.0000
  C   C900      1.0  0.67768  0.24745  0.69040  1.0000
  C   C901      1.0  0.65988  0.24949  0.68273  1.0000
  C   C902      1.0  0.65247  0.26647  0.67912  1.0000
  H   H898      1.0  0.68864  0.29102  0.69353  1.0000
  H   H899      1.0  0.70172  0.26116  0.70017  1.0000
  H   H900      1.0  0.65182  0.23800  0.67972  1.0000
  H   H901      1.0  0.63867  0.26788  0.67335  1.0000
  C   C903      1.0  0.64999  0.37783  0.80838  1.0000
  C   C904      1.0  0.63354  0.38110  0.79475  1.0000
  C   C905      1.0  0.61980  0.38907  0.81262  1.0000
  C   C906      1.0  0.62225  0.39402  0.84430  1.0000
  C   C907      1.0  0.63872  0.39078  0.85790  1.0000
  C   C908      1.0  0.65243  0.38269  0.84010  1.0000
  H   H902      1.0  0.63139  0.37750  0.77045  1.0000
  H   H903      1.0  0.60717  0.39148  0.80174  1.0000
  H   H904      1.0  0.64089  0.39444  0.88218  1.0000
  H   H905      1.0  0.66505  0.38025  0.85101  1.0000
  C   C909      1.0  0.64188  0.38718  0.59965  1.0000
  C   C910      1.0  0.62803  0.39805  0.58912  1.0000
  C   C911      1.0  0.62356  0.39870  0.55701  1.0000
  C   C912      1.0  0.63302  0.38852  0.53516  1.0000
  C   C913      1.0  0.64687  0.37765  0.54568  1.0000
  C   C914      1.0  0.65129  0.37694  0.57784  1.0000
  H   H906      1.0  0.62072  0.40605  0.60591  1.0000
  H   H907      1.0  0.61289  0.40714  0.54913  1.0000
  H   H908      1.0  0.65430  0.36980  0.52884  1.0000
  H   H909      1.0  0.66201  0.36857  0.58570  1.0000
  C   C915      1.0  0.58518  0.02012  0.93266  1.0000
  C   C916      1.0  0.74520  0.35070  0.64991  1.0000
  C   C917      1.0  0.74060  0.35893  0.62158  1.0000
  H   H910      1.0  0.66215  0.42407  0.59018  1.0000
  H   H911      1.0  0.72709  0.36307  0.61784  1.0000
  H   H912      1.0  0.60748  0.37243  0.62899  1.0000
  C   C918      1.0  0.52452  0.38710  0.89315  1.0000
  H   H913      1.0  0.64844  0.31376  0.61224  1.0000
  C   C919      1.0  0.62619  0.34055  0.56162  1.0000
  H   H914      1.0  0.60346  0.16625  0.62800  1.0000
  C   C920      1.0  0.75359  0.36217  0.59828  1.0000
  C   C921      1.0  0.55332  0.39802  0.87931  1.0000
  H   H915      1.0  0.64469  0.31915  0.55467  1.0000
  H   H916      1.0  0.57122  0.42395  0.85693  1.0000
  C   C922      1.0  0.61847  0.14524  0.69275  1.0000
  C   C923      1.0  0.61166  0.00902  0.53187  1.0000
  H   H917      1.0  0.50975  0.05736  0.93010  1.0000
  C   C924      1.0  0.51863  0.41558  0.95571  1.0000
  H   H918      1.0  0.61190  0.46353  0.54678  1.0000
  H   H919      1.0  0.55323  0.43099  0.83264  1.0000
  H   H920      1.0  0.65138  0.12005  0.90797  1.0000
  H   H921      1.0  0.74290  0.12443  0.54377  1.0000
  N   N76       1.0  0.56488  0.50055  0.96935  1.0000
  H   H922      1.0  0.61050  0.03563  0.51357  1.0000
  H   H923      1.0  0.56543  0.47284  0.96080  1.0000
  C   C925      1.0  0.54276  0.38461  0.89146  1.0000
  H   H924      1.0  0.52225  0.42866  0.86446  1.0000
  H   H925      1.0  0.74385  0.17438  0.72389  1.0000
  H   H926      1.0  0.62899  0.47723  0.53033  1.0000
  N   N77       1.0  0.74698  0.19398  0.68830  1.0000
  C   C926      1.0  0.52095  0.10042  0.93128  1.0000
  N   N78       1.0  0.61294  0.14789  0.66248  1.0000
  C   C927      1.0  0.61460  0.13477  0.64060  1.0000
  H   H927      1.0  0.61702  0.15559  0.71019  1.0000
  C   C928      1.0  0.62247  0.11867  0.64856  1.0000
  C   C929      1.0  0.62624  0.12924  0.70163  1.0000
  C   C930      1.0  0.62833  0.11592  0.67931  1.0000
  C   C931      1.0  0.60478  0.16478  0.65399  1.0000
  H   H928      1.0  0.61014  0.13680  0.61661  1.0000
  H   H929      1.0  0.59298  0.02888  0.91805  1.0000
  C   C932      1.0  0.64778  0.14037  0.97913  1.0000
  H   H930      1.0  0.62452  0.34317  0.53662  1.0000
  H   H931      1.0  0.62411  0.10848  0.63086  1.0000
  C   C933      1.0  0.65045  0.42945  0.51356  1.0000
  H   H932      1.0  0.62745  0.47424  0.57209  1.0000
  C   C934      1.0  0.62911  0.13561  0.92400  1.0000
  C   C935      1.0  0.61732  0.35094  0.58400  1.0000
  C   C936      1.0  0.63063  0.33482  0.62566  1.0000
  C   C937      1.0  0.51708  0.40290  0.88276  1.0000
  H   H933      1.0  0.60878  0.36153  0.57590  1.0000
  C   C938      1.0  0.55700  0.42770  0.85720  1.0000
  C   C939      1.0  0.69190  0.15508  0.57916  1.0000
  H   H934      1.0  0.63076  0.12730  0.72564  1.0000
  H   H935      1.0  0.75685  0.14020  0.65929  1.0000
  C   C940      1.0  0.60432  0.15336  0.94469  1.0000
  C   C941      1.0  0.75366  0.15077  0.64313  1.0000
  H   H936      1.0  0.63452  0.10353  0.68586  1.0000
  H   H937      1.0  0.56391  0.03880  0.93952  1.0000
  C   C942      1.0  0.63099  0.14783  0.97529  1.0000
  H   H938      1.0  0.61321  0.17577  0.66185  1.0000
  H   H939      1.0  0.63232  0.33230  0.65063  1.0000
  S   S318      1.0  0.61903  0.04020  0.97907  1.0000
  H   H940      1.0  0.74974  0.12988  0.58327  1.0000
  N   N79       1.0  0.63744  0.45200  0.54610  1.0000
  N   N80       1.0  0.54591  0.41356  0.86952  1.0000
  N   N81       1.0  0.67194  0.31708  0.79595  1.0000
  C   C943      1.0  0.65534  0.32267  0.78807  1.0000
  C   C944      1.0  0.67844  0.30142  0.78478  1.0000
  C   C945      1.0  0.64467  0.31231  0.76906  1.0000
  C   C946      1.0  0.66804  0.29063  0.76607  1.0000
  C   C947      1.0  0.65104  0.29614  0.75825  1.0000
  C   C948      1.0  0.68325  0.32837  0.81482  1.0000
  H   H941      1.0  0.65030  0.33528  0.79622  1.0000
  H   H942      1.0  0.69181  0.29726  0.79005  1.0000
  H   H943      1.0  0.63166  0.31692  0.76236  1.0000
  H   H944      1.0  0.67320  0.27823  0.75711  1.0000
  H   H945      1.0  0.64300  0.28807  0.74310  1.0000
  H   H946      1.0  0.69201  0.32049  0.83035  1.0000
  H   H947      1.0  0.69141  0.33668  0.79892  1.0000
  H   H948      1.0  0.67529  0.33732  0.83020  1.0000
  H   H949      1.0  0.59798  0.35276  0.64601  1.0000
  H   H950      1.0  0.61870  0.36136  0.65985  1.0000
  N   N82       1.0  0.72584  0.14220  0.56796  1.0000
  C   C949      1.0  0.71594  0.13540  0.59213  1.0000
  C   C950      1.0  0.71904  0.15512  0.54898  1.0000
  C   C951      1.0  0.69891  0.14184  0.59826  1.0000
  C   C952      1.0  0.70199  0.16178  0.55434  1.0000
  C   C953      1.0  0.56641  0.48552  0.94787  1.0000
  C   C954      1.0  0.65621  0.42997  0.56941  1.0000
  H   H951      1.0  0.72137  0.12533  0.60751  1.0000
  C   C955      1.0  0.52321  0.08215  0.93138  1.0000
  S   S319      1.0  0.63525  0.10051  0.51756  1.0000
  H   H952      1.0  0.74229  0.18818  0.58454  1.0000
  C   C956      1.0  0.64529  0.44484  0.57217  1.0000
  H   H953      1.0  0.61708  0.13469  0.51677  1.0000
  H   H954      1.0  0.66808  0.12422  0.95765  1.0000
  C   C957      1.0  0.56895  0.02572  0.94492  1.0000
  C   C958      1.0  0.74557  0.17780  0.60104  1.0000
  H   H955      1.0  0.67870  0.16024  0.58371  1.0000
  H   H956      1.0  0.64305  0.45050  0.59533  1.0000
  H   H957      1.0  0.56750  0.39597  0.87811  1.0000
  C   C959      1.0  0.75783  0.20090  0.66560  1.0000
  H   H958      1.0  0.55572  0.48604  0.93017  1.0000
  S   S320      1.0  0.58346  0.44139  0.99005  1.0000
  H   H959      1.0  0.72507  0.20218  0.71681  1.0000
  C   C960      1.0  0.63756  0.32718  0.57174  1.0000
  N   N83       1.0  0.62183  0.14526  0.94809  1.0000
  C   C961      1.0  0.59021  0.50194  0.52771  1.0000
  H   H960      1.0  0.59740  0.14842  0.92354  1.0000
  C   C962      1.0  0.65519  0.13030  0.95486  1.0000
  H   H961      1.0  0.60551  0.16784  0.94261  1.0000
  C   C963      1.0  0.55940  0.01446  0.96464  1.0000
  C   C964      1.0  0.60995  0.49379  0.98468  1.0000
  C   C965      1.0  0.59457  0.48865  0.50567  1.0000
  Fe  Fe160     1.0  0.59713  0.41497  0.98673  1.0000
  H   H962      1.0  0.51615  0.37696  0.90305  1.0000
  C   C966      1.0  0.75275  0.18044  0.70698  1.0000
  H   H963      1.0  0.54689  0.01901  0.97439  1.0000
  C   C967      1.0  0.60739  0.02201  0.50925  1.0000
  H   H964      1.0  0.75305  0.21110  0.64986  1.0000
  H   H965      1.0  0.57942  0.48536  0.93554  1.0000
  Fe  Fe161     1.0  0.59769  0.56598  0.05834  1.0000
  S   S321      1.0  0.57637  0.57958  0.03063  1.0000
  S   S322      1.0  0.59869  0.53588  0.06021  1.0000
  Fe  Fe162     1.0  0.60869  0.60053  0.09208  1.0000
  S   S323      1.0  0.58764  0.61605  0.06671  1.0000
  S   S324      1.0  0.63020  0.61510  0.11978  1.0000
  Fe  Fe163     1.0  0.56951  0.59331  0.07591  1.0000
  S   S325      1.0  0.54155  0.59505  0.09639  1.0000
  Fe  Fe164     1.0  0.59626  0.60112  0.02334  1.0000
  H   H966      1.0  0.54687  0.93618  0.49482  1.0000
  S   S326      1.0  0.58994  0.57877  0.10455  1.0000
  S   S327      1.0  0.61821  0.58655  0.04771  1.0000
  Fe  Fe165     1.0  0.66253  0.66153  0.28888  1.0000
  S   S328      1.0  0.64910  0.68393  0.31488  1.0000
  S   S329      1.0  0.64396  0.64367  0.26046  1.0000
  Fe  Fe166     1.0  0.69767  0.66834  0.32444  1.0000
  S   S330      1.0  0.68615  0.69060  0.35278  1.0000
  S   S331      1.0  0.72692  0.66061  0.32591  1.0000
  Fe  Fe167     1.0  0.66238  0.67321  0.35829  1.0000
  S   S332      1.0  0.64598  0.67178  0.40355  1.0000
  Fe  Fe168     1.0  0.67392  0.69936  0.30720  1.0000
  S   S333      1.0  0.67792  0.72723  0.28829  1.0000
  S   S334      1.0  0.67472  0.65019  0.33319  1.0000
  S   S335      1.0  0.68656  0.67776  0.27804  1.0000
  Fe  Fe169     1.0  0.59172  0.94825  0.05969  1.0000
  C   C968      1.0  0.52191  0.59312  0.07443  1.0000
  S   S336      1.0  0.58424  0.97756  0.05766  1.0000
  Fe  Fe170     1.0  0.60316  0.91636  0.10196  1.0000
  S   S337      1.0  0.59689  0.89697  0.06359  1.0000
  S   S338      1.0  0.60905  0.90871  0.15370  1.0000
  Fe  Fe171     1.0  0.60979  0.91616  0.03024  1.0000
  C   C969      1.0  0.64432  0.97995  0.48595  1.0000
  Fe  Fe172     1.0  0.57218  0.91321  0.05576  1.0000
  S   S339      1.0  0.54569  0.89979  0.04936  1.0000
  S   S340      1.0  0.61776  0.93479  0.06912  1.0000
  S   S341      1.0  0.57756  0.93149  0.09567  1.0000
  Fe  Fe173     1.0  0.66533  0.86499  0.34829  1.0000
  S   S342      1.0  0.68712  0.86939  0.31239  1.0000
  S   S343      1.0  0.65692  0.88928  0.37615  1.0000
  Fe  Fe174     1.0  0.66176  0.82656  0.32926  1.0000
  S   S344      1.0  0.68250  0.82881  0.29183  1.0000
  S   S345      1.0  0.64873  0.80047  0.34044  1.0000
  Fe  Fe175     1.0  0.69801  0.84324  0.32856  1.0000
  S   S346      1.0  0.72597  0.83217  0.33463  1.0000
  Fe  Fe176     1.0  0.66955  0.85467  0.27926  1.0000
  S   S347      1.0  0.66654  0.86211  0.22706  1.0000
  S   S348      1.0  0.67753  0.83994  0.36672  1.0000
  S   S349      1.0  0.64742  0.85141  0.31429  1.0000
  H   H967      1.0  0.56112  0.54021  0.02600  1.0000
  C   C970      1.0  0.74331  0.84071  0.35795  1.0000
  C   C971      1.0  0.74125  0.85600  0.37593  1.0000
  H   H968      1.0  0.62711  0.91648  0.46755  1.0000
  C   C972      1.0  0.55704  0.87676  0.48430  1.0000
  H   H969      1.0  0.72879  0.86304  0.37584  1.0000
  C   C973      1.0  0.52560  0.91120  0.05612  1.0000
  C   C974      1.0  0.52511  0.92942  0.05990  1.0000
  S   S350      1.0  0.58460  0.93075  0.01922  1.0000
  H   H970      1.0  0.53729  0.93669  0.06015  1.0000
  H   H971      1.0  0.54785  0.51164  0.04080  1.0000
  C   C975      1.0  0.61736  0.89048  0.45936  1.0000
  C   C976      1.0  0.62820  0.90484  0.45307  1.0000
  C   C977      1.0  0.64033  0.90421  0.42765  1.0000
  C   C978      1.0  0.64196  0.88915  0.40862  1.0000
  C   C979      1.0  0.63126  0.87472  0.41514  1.0000
  C   C980      1.0  0.61893  0.87546  0.44022  1.0000
  C   C981      1.0  0.59564  0.99948  0.47571  1.0000
  H   H972      1.0  0.64855  0.91543  0.42280  1.0000
  H   H973      1.0  0.63234  0.86307  0.40068  1.0000
  H   H974      1.0  0.61062  0.86428  0.44488  1.0000
  C   C982      1.0  0.62442  0.89420  0.17242  1.0000
  C   C983      1.0  0.62128  0.88909  0.20396  1.0000
  C   C984      1.0  0.63379  0.87897  0.22086  1.0000
  C   C985      1.0  0.64969  0.87385  0.20642  1.0000
  C   C986      1.0  0.65263  0.87857  0.17467  1.0000
  C   C987      1.0  0.64011  0.88866  0.15776  1.0000
  H   H975      1.0  0.60919  0.89325  0.21554  1.0000
  H   H976      1.0  0.63125  0.87544  0.24519  1.0000
  H   H977      1.0  0.66483  0.87465  0.16316  1.0000
  H   H978      1.0  0.64278  0.89249  0.13361  1.0000
  H   H979      1.0  0.74595  0.68005  0.43098  1.0000
  C   C988      1.0  0.59461  0.99492  0.03670  1.0000
  H   H980      1.0  0.62862  0.89683  0.32617  1.0000
  H   H981      1.0  0.58973  0.99562  0.45370  1.0000
  C   C989      1.0  0.63049  0.91086  0.31966  1.0000
  C   C990      1.0  0.66982  0.74729  0.30401  1.0000
  C   C991      1.0  0.67672  0.76308  0.29218  1.0000
  C   C992      1.0  0.67063  0.77941  0.30359  1.0000
  C   C993      1.0  0.65741  0.78015  0.32675  1.0000
  C   C994      1.0  0.65050  0.76437  0.33860  1.0000
  C   C995      1.0  0.65677  0.74798  0.32748  1.0000
  H   H982      1.0  0.68686  0.76265  0.27408  1.0000
  H   H983      1.0  0.67602  0.79140  0.29409  1.0000
  H   H984      1.0  0.64022  0.76480  0.35647  1.0000
  H   H985      1.0  0.65134  0.73591  0.33675  1.0000
  C   C996      1.0  0.55437  0.51311  0.01809  1.0000
  C   C997      1.0  0.73727  0.67333  0.38423  1.0000
  C   C998      1.0  0.74241  0.66820  0.35382  1.0000
  H   H986      1.0  0.65503  0.87858  0.01298  1.0000
  H   H987      1.0  0.72341  0.67406  0.39036  1.0000
  H   H988      1.0  0.51441  0.93281  0.49130  1.0000
  H   H989      1.0  0.61728  0.63661  0.48625  1.0000
  H   H990      1.0  0.69430  0.73719  0.36333  1.0000
  H   H991      1.0  0.74677  0.62343  0.33615  1.0000
  H   H992      1.0  0.53381  0.59835  0.02918  1.0000
  H   H993      1.0  0.60714  0.64974  0.02406  1.0000
  C   C999      1.0  0.63625  0.62111  0.46011  1.0000
  C   C1000     1.0  0.62690  0.63655  0.46725  1.0000
  C   C1001     1.0  0.63026  0.65206  0.45007  1.0000
  C   C1002     1.0  0.64267  0.65215  0.42519  1.0000
  C   C1003     1.0  0.65185  0.63665  0.41788  1.0000
  C   C1004     1.0  0.64874  0.62125  0.43543  1.0000
  H   H994      1.0  0.65937  0.62923  0.07961  1.0000
  H   H995      1.0  0.62308  0.66401  0.45582  1.0000
  H   H996      1.0  0.66146  0.63657  0.39889  1.0000
  H   H997      1.0  0.65610  0.60937  0.42989  1.0000
  C   C1005     1.0  0.63346  0.62322  0.15902  1.0000
  C   C1006     1.0  0.62176  0.61983  0.18398  1.0000
  C   C1007     1.0  0.62520  0.62625  0.21462  1.0000
  C   C1008     1.0  0.64028  0.63630  0.22088  1.0000
  C   C1009     1.0  0.65190  0.63982  0.19586  1.0000
  C   C1010     1.0  0.64854  0.63327  0.16528  1.0000
  H   H998      1.0  0.61012  0.61213  0.17977  1.0000
  H   H999      1.0  0.61606  0.62340  0.23362  1.0000
  H   H1000     1.0  0.66357  0.64745  0.20011  1.0000
  H   H1001     1.0  0.65776  0.63600  0.14635  1.0000
  C   C1011     1.0  0.60295  0.52018  0.03023  1.0000
  H   H1002     1.0  0.63781  0.91720  0.33911  1.0000
  H   H1003     1.0  0.64047  0.60081  0.32989  1.0000
  N   N84       1.0  0.62660  0.62407  0.34534  1.0000
  C   C1012     1.0  0.61961  0.61559  0.37101  1.0000
  C   C1013     1.0  0.62344  0.64162  0.34081  1.0000
  C   C1014     1.0  0.60912  0.62474  0.39291  1.0000
  C   C1015     1.0  0.61310  0.65118  0.36231  1.0000
  C   C1016     1.0  0.60585  0.64265  0.38844  1.0000
  C   C1017     1.0  0.63725  0.61438  0.32201  1.0000
  H   H1004     1.0  0.62230  0.60175  0.37500  1.0000
  H   H1005     1.0  0.62908  0.64838  0.32064  1.0000
  H   H1006     1.0  0.60400  0.61811  0.41372  1.0000
  H   H1007     1.0  0.61122  0.66524  0.35922  1.0000
  H   H1008     1.0  0.59822  0.65003  0.40575  1.0000
  C   C1018     1.0  0.52307  0.92145  0.48865  1.0000
  H   H1009     1.0  0.63009  0.61373  0.29928  1.0000
  C   C1019     1.0  0.61804  0.00668  0.00348  1.0000
  N   N85       1.0  0.64260  0.78696  0.24435  1.0000
  C   C1020     1.0  0.63213  0.79502  0.26656  1.0000
  C   C1021     1.0  0.65203  0.79677  0.22313  1.0000
  C   C1022     1.0  0.63101  0.81336  0.26810  1.0000
  C   C1023     1.0  0.65119  0.81516  0.22399  1.0000
  C   C1024     1.0  0.64051  0.82345  0.24650  1.0000
  H   H1010     1.0  0.62489  0.78731  0.28381  1.0000
  H   H1011     1.0  0.66030  0.79041  0.20546  1.0000
  H   H1012     1.0  0.62307  0.81966  0.28635  1.0000
  H   H1013     1.0  0.65880  0.82304  0.20746  1.0000
  H   H1014     1.0  0.63973  0.83769  0.24732  1.0000
  H   H1015     1.0  0.61734  0.97998  0.02141  1.0000
  H   H1016     1.0  0.51337  0.63067  0.11489  1.0000
  C   C1025     1.0  0.72167  0.76325  0.32056  1.0000
  H   H1017     1.0  0.73169  0.76255  0.30220  1.0000
  H   H1018     1.0  0.69658  0.80726  0.34727  1.0000
  N   N86       1.0  0.64056  0.91209  0.29006  1.0000
  C   C1026     1.0  0.65728  0.90523  0.28888  1.0000
  C   C1027     1.0  0.63326  0.91965  0.26383  1.0000
  C   C1028     1.0  0.66710  0.90559  0.26078  1.0000
  C   C1029     1.0  0.64283  0.92052  0.23547  1.0000
  C   C1030     1.0  0.65979  0.91330  0.23395  1.0000
  H   H1019     1.0  0.68424  0.79728  0.37835  1.0000
  H   H1020     1.0  0.66299  0.89926  0.30973  1.0000
  H   H1021     1.0  0.61988  0.92479  0.26442  1.0000
  H   H1022     1.0  0.68009  0.89949  0.25957  1.0000
  H   H1023     1.0  0.63681  0.92599  0.21438  1.0000
  H   H1024     1.0  0.66702  0.91312  0.21172  1.0000
  H   H1025     1.0  0.71729  0.73524  0.32160  1.0000
  H   H1026     1.0  0.61731  0.91727  0.31807  1.0000
  C   C1031     1.0  0.54129  0.92332  0.49075  1.0000
  C   C1032     1.0  0.71375  0.74793  0.33166  1.0000
  C   C1033     1.0  0.55221  0.90841  0.48880  1.0000
  H   H1027     1.0  0.64988  0.62122  0.31752  1.0000
  H   H1028     1.0  0.75364  0.87415  0.40765  1.0000
  C   C1034     1.0  0.63743  0.98516  0.45697  1.0000
  C   C1035     1.0  0.75540  0.86227  0.39399  1.0000
  H   H1029     1.0  0.72240  0.79147  0.32409  1.0000
  S   S351      1.0  0.63342  0.60152  0.48207  1.0000
  H   H1030     1.0  0.64002  0.76151  0.26538  1.0000
  H   H1031     1.0  0.70723  0.80276  0.38419  1.0000
  H   H1032     1.0  0.51625  0.63695  0.05770  1.0000
  H   H1033     1.0  0.63318  0.76325  0.22479  1.0000
  C   C1036     1.0  0.63100  0.63711  0.04037  1.0000
  H   H1034     1.0  0.65630  0.76281  0.23497  1.0000
  S   S352      1.0  0.60114  0.89096  0.48984  1.0000
  H   H1035     1.0  0.62455  0.63147  0.06088  1.0000
  H   H1036     1.0  0.55315  0.99342  0.01596  1.0000
  C   C1037     1.0  0.75010  0.67665  0.40726  1.0000
  C   C1038     1.0  0.69753  0.79772  0.36706  1.0000
  C   C1039     1.0  0.50968  0.90191  0.05584  1.0000
  C   C1040     1.0  0.64301  0.76772  0.24217  1.0000
  N   N87       1.0  0.70319  0.78049  0.35522  1.0000
  C   C1041     1.0  0.71629  0.77953  0.33286  1.0000
  C   C1042     1.0  0.69564  0.76551  0.36677  1.0000
  N   N88       1.0  0.54516  0.89209  0.48535  1.0000
  H   H1037     1.0  0.62492  0.51091  0.46246  1.0000
  H   H1038     1.0  0.67184  0.61940  0.04761  1.0000
  C   C1043     1.0  0.61064  0.99260  0.02060  1.0000
  C   C1044     1.0  0.70081  0.74902  0.35519  1.0000
  C   C1045     1.0  0.52162  0.59591  0.04183  1.0000
  C   C1046     1.0  0.62115  0.64769  0.01991  1.0000
  H   H1039     1.0  0.68514  0.76628  0.38427  1.0000
  H   H1040     1.0  0.73508  0.62969  0.38974  1.0000
  H   H1041     1.0  0.54242  0.56880  0.49181  1.0000
  C   C1047     1.0  0.61507  0.50836  0.48045  1.0000
  C   C1048     1.0  0.56171  0.52921  0.00970  1.0000
  H   H1042     1.0  0.56656  0.87806  0.46432  1.0000
  H   H1043     1.0  0.59680  0.97291  0.49393  1.0000
  C   C1049     1.0  0.65658  0.64080  0.00846  1.0000
  C   C1050     1.0  0.63735  0.00298  0.44871  1.0000
  H   H1044     1.0  0.54986  0.86425  0.48146  1.0000
  C   C1051     1.0  0.51599  0.90477  0.48473  1.0000
  H   H1045     1.0  0.56638  0.90987  0.49046  1.0000
  C   C1052     1.0  0.52729  0.89011  0.48335  1.0000
  C   C1053     1.0  0.74921  0.62867  0.38578  1.0000
  C   C1054     1.0  0.75580  0.62511  0.35562  1.0000
  N   N89       1.0  0.64844  0.63371  0.03441  1.0000
  H   H1046     1.0  0.65139  0.60993  0.06026  1.0000
  H   H1047     1.0  0.67035  0.63795  0.00337  1.0000
  H   H1048     1.0  0.63148  0.97556  0.44165  1.0000
  C   C1055     1.0  0.61204  0.52431  0.00240  1.0000
  H   H1049     1.0  0.52160  0.87717  0.48118  1.0000
  H   H1050     1.0  0.50999  0.88778  0.05297  1.0000
  C   C1056     1.0  0.65835  0.62255  0.05640  1.0000
  H   H1051     1.0  0.64364  0.96632  0.49345  1.0000
  H   H1052     1.0  0.56290  0.97430  0.99878  1.0000
  H   H1053     1.0  0.75589  0.63547  0.43351  1.0000
  H   H1054     1.0  0.63122  0.00702  0.42679  1.0000
  H   H1055     1.0  0.61660  0.53758  0.99855  1.0000
  Fe  Fe177     1.0  0.59735  0.56429  0.55371  1.0000
  C   C1057     1.0  0.64716  0.65156  0.98761  1.0000
  S   S353      1.0  0.59284  0.53451  0.55568  1.0000
  Fe  Fe178     1.0  0.60402  0.59875  0.59144  1.0000
  S   S354      1.0  0.59689  0.61563  0.54928  1.0000
  S   S355      1.0  0.60865  0.61302  0.63890  1.0000
  Fe  Fe179     1.0  0.57433  0.59695  0.54213  1.0000
  S   S356      1.0  0.54714  0.60522  0.52433  1.0000
  C   C1058     1.0  0.52651  0.54205  0.56379  1.0000
  H   H1056     1.0  0.52576  0.88966  0.99065  1.0000
  S   S357      1.0  0.58024  0.58127  0.58561  1.0000
  S   S358      1.0  0.62165  0.58033  0.56331  1.0000
  Fe  Fe180     1.0  0.67121  0.65619  0.78077  1.0000
  S   S359      1.0  0.65087  0.66363  0.81786  1.0000
  S   S360      1.0  0.66790  0.64072  0.73418  1.0000
  Fe  Fe181     1.0  0.70214  0.66952  0.82248  1.0000
  S   S361      1.0  0.68380  0.67765  0.86167  1.0000
  S   S362      1.0  0.73171  0.67535  0.82321  1.0000
  Fe  Fe182     1.0  0.66981  0.65221  0.85327  1.0000
  S   S363      1.0  0.66554  0.63254  0.89333  1.0000
  Fe  Fe183     1.0  0.66659  0.68872  0.82330  1.0000
  S   S364      1.0  0.65393  0.71560  0.83333  1.0000
  S   S365      1.0  0.68940  0.64332  0.81614  1.0000
  S   S366      1.0  0.68566  0.68203  0.78414  1.0000
  Fe  Fe184     1.0  0.60544  0.94721  0.55729  1.0000
  S   S367      1.0  0.58546  0.93710  0.52354  1.0000
  S   S368      1.0  0.61647  0.97496  0.55289  1.0000
  Fe  Fe185     1.0  0.60284  0.91461  0.60160  1.0000
  S   S369      1.0  0.58212  0.90275  0.57036  1.0000
  S   S370      1.0  0.60683  0.90017  0.64931  1.0000
  Fe  Fe186     1.0  0.59942  0.91107  0.52950  1.0000
  C   C1059     1.0  0.54900  0.92888  0.64813  1.0000
  Fe  Fe187     1.0  0.56987  0.92957  0.56670  1.0000
  S   S371      1.0  0.54144  0.93921  0.57134  1.0000
  S   S372      1.0  0.62089  0.92149  0.56064  1.0000
  S   S373      1.0  0.58918  0.94111  0.60047  1.0000
  Fe  Fe188     1.0  0.65470  0.84666  0.85367  1.0000
  S   S374      1.0  0.67197  0.86888  0.83836  1.0000
  S   S375      1.0  0.63267  0.84917  0.89023  1.0000
  Fe  Fe189     1.0  0.67521  0.81936  0.81422  1.0000
  S   S376      1.0  0.69397  0.84009  0.79660  1.0000
  S   S377      1.0  0.68218  0.79177  0.79596  1.0000
  Fe  Fe190     1.0  0.69459  0.84987  0.84664  1.0000
  S   S378      1.0  0.71615  0.85684  0.88201  1.0000
  Fe  Fe191     1.0  0.66966  0.85723  0.78947  1.0000
  S   S379      1.0  0.66796  0.87294  0.74280  1.0000
  S   S380      1.0  0.67721  0.82818  0.86447  1.0000
  S   S381      1.0  0.65099  0.83591  0.80441  1.0000
  C   C1060     1.0  0.68344  0.74474  0.88758  1.0000
  C   C1061     1.0  0.73956  0.85479  0.88033  1.0000
  C   C1062     1.0  0.59160  0.00337  0.93999  1.0000
  H   H1057     1.0  0.62168  0.66274  0.97683  1.0000
  C   C1063     1.0  0.66148  0.87313  0.99215  1.0000
  H   H1058     1.0  0.74138  0.84833  0.83106  1.0000
  C   C1064     1.0  0.52122  0.92813  0.56675  1.0000
  C   C1065     1.0  0.62373  0.65159  0.59857  1.0000
  C   C1066     1.0  0.56196  0.90021  0.66101  1.0000
  H   H1059     1.0  0.57008  0.89404  0.67983  1.0000
  H   H1060     1.0  0.58517  0.92037  0.69093  1.0000
  C   C1067     1.0  0.62854  0.89480  0.96112  1.0000
  C   C1068     1.0  0.61759  0.88021  0.96409  1.0000
  C   C1069     1.0  0.61855  0.86660  0.94157  1.0000
  C   C1070     1.0  0.63046  0.86743  0.91599  1.0000
  C   C1071     1.0  0.64092  0.88233  0.91244  1.0000
  C   C1072     1.0  0.63993  0.89593  0.93486  1.0000
  H   H1061     1.0  0.56783  0.89628  0.63794  1.0000
  H   H1062     1.0  0.61033  0.85517  0.94443  1.0000
  H   H1063     1.0  0.64997  0.88326  0.89271  1.0000
  H   H1064     1.0  0.64837  0.90721  0.93228  1.0000
  C   C1073     1.0  0.62415  0.89291  0.67500  1.0000
  C   C1074     1.0  0.61969  0.88383  0.70298  1.0000
  C   C1075     1.0  0.63278  0.87787  0.72420  1.0000
  C   C1076     1.0  0.65063  0.88091  0.71783  1.0000
  C   C1077     1.0  0.65509  0.88989  0.68978  1.0000
  C   C1078     1.0  0.64200  0.89585  0.66855  1.0000
  H   H1065     1.0  0.60597  0.88142  0.70839  1.0000
  H   H1066     1.0  0.62905  0.87095  0.74552  1.0000
  H   H1067     1.0  0.66882  0.89232  0.68440  1.0000
  H   H1068     1.0  0.64575  0.90278  0.64726  1.0000
  H   H1069     1.0  0.61666  0.53447  0.50051  1.0000
  C   C1079     1.0  0.60806  0.99118  0.52647  1.0000
  C   C1080     1.0  0.57474  0.92783  0.67951  1.0000
  C   C1081     1.0  0.52119  0.90136  0.97705  1.0000
  C   C1082     1.0  0.57188  0.51636  0.96072  1.0000
  C   C1083     1.0  0.66116  0.73668  0.82076  1.0000
  C   C1084     1.0  0.65271  0.75180  0.83299  1.0000
  C   C1085     1.0  0.65874  0.76879  0.82533  1.0000
  C   C1086     1.0  0.67320  0.77084  0.80501  1.0000
  C   C1087     1.0  0.68132  0.75574  0.79205  1.0000
  C   C1088     1.0  0.67543  0.73876  0.80001  1.0000
  H   H1070     1.0  0.64160  0.75035  0.84892  1.0000
  H   H1071     1.0  0.65228  0.78026  0.83537  1.0000
  H   H1072     1.0  0.69243  0.75716  0.77612  1.0000
  H   H1073     1.0  0.68195  0.72729  0.79015  1.0000
  H   H1074     1.0  0.56245  0.97019  0.66521  1.0000
  C   C1089     1.0  0.74211  0.66250  0.88194  1.0000
  C   C1090     1.0  0.74678  0.67173  0.85460  1.0000
  H   H1075     1.0  0.56476  0.87593  0.50646  1.0000
  H   H1076     1.0  0.72887  0.65754  0.88462  1.0000
  H   H1077     1.0  0.53235  0.90207  0.56312  1.0000
  C   C1091     1.0  0.52653  0.60069  0.54264  1.0000
  H   H1078     1.0  0.65389  0.60675  0.54823  1.0000
  C   C1092     1.0  0.52533  0.59284  0.57243  1.0000
  C   C1093     1.0  0.69165  0.72945  0.87619  1.0000
  H   H1079     1.0  0.53722  0.58976  0.58529  1.0000
  C   C1094     1.0  0.61642  0.62065  0.95392  1.0000
  C   C1095     1.0  0.63245  0.61201  0.95948  1.0000
  C   C1096     1.0  0.64730  0.61574  0.94051  1.0000
  C   C1097     1.0  0.64636  0.62831  0.91617  1.0000
  C   C1098     1.0  0.63035  0.63702  0.91072  1.0000
  C   C1099     1.0  0.61542  0.63307  0.92933  1.0000
  N   N90       1.0  0.56174  0.91942  0.66349  1.0000
  H   H1080     1.0  0.65963  0.60890  0.94483  1.0000
  H   H1081     1.0  0.62945  0.64676  0.89215  1.0000
  H   H1082     1.0  0.60306  0.63983  0.92492  1.0000
  C   C1100     1.0  0.62546  0.62068  0.66484  1.0000
  C   C1101     1.0  0.64335  0.61653  0.66057  1.0000
  C   C1102     1.0  0.65606  0.62305  0.68166  1.0000
  C   C1103     1.0  0.65119  0.63382  0.70739  1.0000
  C   C1104     1.0  0.63331  0.63803  0.71161  1.0000
  C   C1105     1.0  0.62059  0.63148  0.69055  1.0000
  H   H1083     1.0  0.64744  0.60810  0.64131  1.0000
  H   H1084     1.0  0.66981  0.61959  0.67812  1.0000
  H   H1085     1.0  0.62925  0.64628  0.73117  1.0000
  H   H1086     1.0  0.60683  0.63487  0.69418  1.0000
  C   C1106     1.0  0.59810  0.51859  0.52612  1.0000
  C   C1107     1.0  0.63985  0.62751  0.57293  1.0000
  C   C1108     1.0  0.57040  0.53092  0.98075  1.0000
  H   H1087     1.0  0.69054  0.88634  0.90334  1.0000
  H   H1088     1.0  0.51067  0.56711  0.50489  1.0000
  C   C1109     1.0  0.67668  0.86050  0.93687  1.0000
  H   H1089     1.0  0.65674  0.65826  0.50710  1.0000
  N   N91       1.0  0.66818  0.83125  0.70978  1.0000
  C   C1110     1.0  0.66816  0.81679  0.72902  1.0000
  C   C1111     1.0  0.65266  0.83819  0.69893  1.0000
  C   C1112     1.0  0.65228  0.80910  0.73838  1.0000
  C   C1113     1.0  0.63653  0.83102  0.70824  1.0000
  C   C1114     1.0  0.63638  0.81639  0.72815  1.0000
  C   C1115     1.0  0.68504  0.83906  0.70058  1.0000
  H   H1090     1.0  0.68046  0.81127  0.73760  1.0000
  H   H1091     1.0  0.65264  0.84963  0.68361  1.0000
  H   H1092     1.0  0.65235  0.79779  0.75406  1.0000
  H   H1093     1.0  0.62427  0.83698  0.70037  1.0000
  H   H1094     1.0  0.62398  0.81079  0.73587  1.0000
  H   H1095     1.0  0.68314  0.85193  0.68847  1.0000
  H   H1096     1.0  0.69293  0.84180  0.72195  1.0000
  H   H1097     1.0  0.69251  0.83005  0.68472  1.0000
  H   H1098     1.0  0.60444  0.99913  0.93129  1.0000
  H   H1099     1.0  0.60880  0.87915  0.98422  1.0000
  C   C1116     1.0  0.74865  0.85053  0.85249  1.0000
  H   H1100     1.0  0.62060  0.66580  0.59587  1.0000
  C   C1117     1.0  0.64131  0.65598  0.55010  1.0000
  C   C1118     1.0  0.65229  0.64962  0.52589  1.0000
  C   C1119     1.0  0.74931  0.85776  0.90789  1.0000
  H   H1101     1.0  0.68480  0.61215  0.76748  1.0000
  Fe  Fe192     1.0  0.61317  0.59639  0.52096  1.0000
  H   H1102     1.0  0.68316  0.77306  0.88593  1.0000
  C   C1120     1.0  0.71393  0.71423  0.84402  1.0000
  S   S382      1.0  0.59017  0.57923  0.51004  1.0000
  H   H1103     1.0  0.67165  0.74386  0.90214  1.0000
  H   H1104     1.0  0.75097  0.65202  0.92653  1.0000
  N   N92       1.0  0.63526  0.64494  0.57324  1.0000
  C   C1121     1.0  0.54454  0.54261  0.55664  1.0000
  H   H1105     1.0  0.63754  0.66977  0.55001  1.0000
  H   H1106     1.0  0.53904  0.95466  0.63592  1.0000
  N   N93       1.0  0.51454  0.55065  0.54518  1.0000
  H   H1107     1.0  0.68721  0.59888  0.80241  1.0000
  N   N94       1.0  0.70604  0.73044  0.85661  1.0000
  C   C1122     1.0  0.53799  0.56086  0.51160  1.0000
  N   N95       1.0  0.68072  0.87693  0.94736  1.0000
  H   H1108     1.0  0.63015  0.64962  0.62180  1.0000
  C   C1123     1.0  0.52039  0.90993  0.56271  1.0000
  N   N96       1.0  0.56586  0.99809  0.97196  1.0000
  H   H1109     1.0  0.71481  0.70393  0.86261  1.0000
  C   C1124     1.0  0.68987  0.76110  0.87843  1.0000
  H   H1110     1.0  0.56418  0.55260  0.52464  1.0000
  H   H1111     1.0  0.68235  0.85558  0.91502  1.0000
  C   C1125     1.0  0.52006  0.55993  0.51928  1.0000
  H   H1112     1.0  0.66064  0.83756  0.94393  1.0000
  H   H1113     1.0  0.58567  0.95277  0.69280  1.0000
  H   H1114     1.0  0.63338  0.60242  0.97827  1.0000
  C   C1126     1.0  0.57510  0.94619  0.68068  1.0000
  C   C1127     1.0  0.62932  0.65498  0.99341  1.0000
  H   H1115     1.0  0.55412  0.53590  0.57141  1.0000
  H   H1116     1.0  0.66506  0.62660  0.50630  1.0000
  H   H1117     1.0  0.70583  0.70920  0.82440  1.0000
  H   H1118     1.0  0.69168  0.90185  0.93485  1.0000
  H   H1119     1.0  0.52511  0.89980  0.95192  1.0000
  C   C1128     1.0  0.59958  0.98656  0.49857  1.0000
  H   H1120     1.0  0.63048  0.00475  0.99121  1.0000
  H   H1121     1.0  0.65585  0.98863  0.52929  1.0000
  H   H1122     1.0  0.70681  0.88322  0.93352  1.0000
  C   C1129     1.0  0.58171  0.99245  0.95980  1.0000
  H   H1123     1.0  0.61108  0.64435  0.59878  1.0000
  H   H1124     1.0  0.72757  0.71622  0.83501  1.0000
  C   C1130     1.0  0.61040  0.52179  0.50204  1.0000
  H   H1125     1.0  0.54842  0.89490  0.66301  1.0000
  C   C1131     1.0  0.75469  0.65939  0.90569  1.0000
  C   C1132     1.0  0.70438  0.76199  0.85806  1.0000
  C   C1133     1.0  0.71232  0.74642  0.84720  1.0000
  H   H1126     1.0  0.68606  0.71680  0.88220  1.0000
  S   S383      1.0  0.59744  0.61681  0.97751  1.0000
  C   C1134     1.0  0.67354  0.88319  0.97492  1.0000
  C   C1135     1.0  0.54893  0.94726  0.64890  1.0000
  H   H1127     1.0  0.72320  0.74721  0.83054  1.0000
  H   H1128     1.0  0.70889  0.77465  0.84956  1.0000
  N   N97       1.0  0.66067  0.60554  0.78971  1.0000
  C   C1136     1.0  0.65642  0.61062  0.81980  1.0000
  C   C1137     1.0  0.64804  0.60525  0.76693  1.0000
  C   C1138     1.0  0.63914  0.61556  0.82768  1.0000
  C   C1139     1.0  0.63062  0.61015  0.77398  1.0000
  C   C1140     1.0  0.62619  0.61540  0.80457  1.0000
  C   C1141     1.0  0.67897  0.60114  0.78122  1.0000
  H   H1129     1.0  0.66644  0.61109  0.83787  1.0000
  H   H1130     1.0  0.65151  0.60169  0.74288  1.0000
  H   H1131     1.0  0.63590  0.61972  0.85151  1.0000
  H   H1132     1.0  0.62076  0.61024  0.75560  1.0000
  H   H1133     1.0  0.61280  0.61950  0.81030  1.0000
  H   H1134     1.0  0.67957  0.58906  0.76661  1.0000
  H   H1135     1.0  0.74244  0.86114  0.92955  1.0000
  H   H1136     1.0  0.53902  0.92228  0.63449  1.0000
  H   H1137     1.0  0.57907  0.51767  0.93863  1.0000
  C   C1142     1.0  0.65074  0.62070  0.54904  1.0000
  C   C1143     1.0  0.56210  0.95594  0.66521  1.0000
  H   H1138     1.0  0.52216  0.53477  0.58439  1.0000
  C   C1144     1.0  0.65702  0.63186  0.52547  1.0000
  H   H1139     1.0  0.63483  0.61871  0.59094  1.0000
  C   C1145     1.0  0.66459  0.85013  0.95340  1.0000
  H   H1140     1.0  0.54293  0.98329  0.98215  1.0000
  C   C1146     1.0  0.55024  0.55204  0.53033  1.0000
  H   H1141     1.0  0.62311  0.51433  0.95877  1.0000
  C   C1147     1.0  0.69306  0.88767  0.92904  1.0000
  C   C1148     1.0  0.55566  0.98670  0.99309  1.0000
  H   H1142     1.0  0.75703  0.81835  0.91845  1.0000
  H   H1143     1.0  0.52830  0.91274  0.98706  1.0000
  H   H1144     1.0  0.51168  0.61069  0.50323  1.0000
  H   H1145     1.0  0.58708  0.97966  0.96617  1.0000
  H   H1146     1.0  0.57650  0.54329  0.97443  1.0000
  H   H1147     1.0  0.65348  0.65670  0.96649  1.0000
  C   C1149     1.0  0.65687  0.85658  0.98110  1.0000
  C   C1150     1.0  0.51090  0.60459  0.52628  1.0000
  H   H1148     1.0  0.67645  0.89632  0.98308  1.0000
  S   S384      1.0  0.63013  0.91079  0.99128  1.0000
  C   C1151     1.0  0.65122  0.99252  0.50612  1.0000
  C   C1152     1.0  0.61567  0.51112  0.97988  1.0000
  H   H1149     1.0  0.64687  0.84903  0.99336  1.0000
  Fe  Fe193     1.0  0.84853  0.35704  0.03695  1.0000
  S   S385      1.0  0.86376  0.33423  0.05772  1.0000
  H   H1150     1.0  0.85256  0.03752  0.31082  1.0000
  Fe  Fe194     1.0  0.81975  0.35473  0.08974  1.0000
  S   S386      1.0  0.83316  0.33205  0.11401  1.0000
  S   S387      1.0  0.79465  0.36856  0.10722  1.0000
  Fe  Fe195     1.0  0.85797  0.34726  0.10467  1.0000
  S   S388      1.0  0.87923  0.34925  0.14174  1.0000
  Fe  Fe196     1.0  0.83767  0.32094  0.06539  1.0000
  S   S389      1.0  0.83000  0.29328  0.04989  1.0000
  S   S390      1.0  0.84441  0.37079  0.08356  1.0000
  S   S391      1.0  0.82260  0.34288  0.04150  1.0000
  Fe  Fe197     1.0  0.90348  0.41730  0.27712  1.0000
  S   S392      1.0  0.89540  0.43699  0.31454  1.0000
  S   S393      1.0  0.88323  0.41274  0.23851  1.0000
  Fe  Fe198     1.0  0.94055  0.41316  0.30437  1.0000
  S   S394      1.0  0.93474  0.43212  0.34348  1.0000
  S   S395      1.0  0.96761  0.40086  0.29409  1.0000
  Fe  Fe199     1.0  0.90858  0.41830  0.34875  1.0000
  S   S396      1.0  0.89670  0.41442  0.39861  1.0000
  Fe  Fe200     1.0  0.92197  0.44905  0.30612  1.0000
  S   S397      1.0  0.93115  0.47764  0.30430  1.0000
  S   S398      1.0  0.91526  0.39796  0.31168  1.0000
  S   S399      1.0  0.92916  0.43065  0.26665  1.0000
  Fe  Fe201     1.0  0.84624  0.19245  0.08109  1.0000
  S   S400      1.0  0.82832  0.18733  0.04047  1.0000
  S   S401      1.0  0.85615  0.21844  0.10006  1.0000
  Fe  Fe202     1.0  0.85371  0.15308  0.09156  1.0000
  S   S402      1.0  0.83588  0.14506  0.05202  1.0000
  S   S403      1.0  0.87411  0.13457  0.11276  1.0000
  Fe  Fe203     1.0  0.84826  0.16691  0.02405  1.0000
  N   N98       1.0  0.86665  0.05003  0.27357  1.0000
  Fe  Fe204     1.0  0.81726  0.16592  0.07189  1.0000
  S   S404      1.0  0.78729  0.16267  0.07289  1.0000
  S   S405      1.0  0.86693  0.17384  0.06260  1.0000
  S   S406      1.0  0.83434  0.17220  0.11356  1.0000
  Fe  Fe205     1.0  0.91058  0.09782  0.35265  1.0000
  S   S407      1.0  0.91767  0.11647  0.31314  1.0000
  S   S408      1.0  0.90703  0.10634  0.40455  1.0000
  Fe  Fe206     1.0  0.91244  0.06562  0.30740  1.0000
  S   S409      1.0  0.91893  0.08219  0.26527  1.0000
  S   S410      1.0  0.90963  0.03573  0.30613  1.0000
  Fe  Fe207     1.0  0.93773  0.09593  0.29787  1.0000
  S   S411      1.0  0.96479  0.10136  0.27610  1.0000
  Fe  Fe208     1.0  0.89851  0.10113  0.28412  1.0000
  S   S412      1.0  0.87566  0.11401  0.25806  1.0000
  S   S413      1.0  0.93222  0.07829  0.33922  1.0000
  S   S414      1.0  0.89044  0.08349  0.32439  1.0000
  C   C1153     1.0  0.98572  0.09800  0.29369  1.0000
  C   C1154     1.0  0.98748  0.09345  0.32548  1.0000
  C   C1155     1.0  0.96992  0.06020  0.24467  1.0000
  H   H1151     1.0  0.97586  0.09234  0.34030  1.0000
  C   C1156     1.0  0.91640  0.39752  0.47353  1.0000
  C   C1157     1.0  0.91220  0.02084  0.27403  1.0000
  C   C1158     1.0  0.91626  0.02646  0.24337  1.0000
  H   H1152     1.0  0.95718  0.06724  0.24099  1.0000
  H   H1153     1.0  0.91830  0.04027  0.23870  1.0000
  C   C1159     1.0  0.89588  0.36909  0.06831  1.0000
  C   C1160     1.0  0.87401  0.12835  0.15291  1.0000
  C   C1161     1.0  0.85987  0.13253  0.17296  1.0000
  C   C1162     1.0  0.86046  0.12772  0.20500  1.0000
  C   C1163     1.0  0.87530  0.11901  0.21736  1.0000
  C   C1164     1.0  0.88946  0.11483  0.19734  1.0000
  C   C1165     1.0  0.88874  0.11938  0.16517  1.0000
  H   H1154     1.0  0.84844  0.13937  0.16374  1.0000
  H   H1155     1.0  0.84939  0.13087  0.22032  1.0000
  H   H1156     1.0  0.90097  0.10815  0.20662  1.0000
  H   H1157     1.0  0.89975  0.11612  0.14976  1.0000
  C   C1166     1.0  0.86227  0.13380  0.46230  1.0000
  C   C1167     1.0  0.87762  0.12762  0.47690  1.0000
  C   C1168     1.0  0.89101  0.11911  0.45893  1.0000
  C   C1169     1.0  0.88931  0.11658  0.42615  1.0000
  C   C1170     1.0  0.87391  0.12268  0.41162  1.0000
  C   C1171     1.0  0.86053  0.13117  0.42957  1.0000
  C   C1172     1.0  0.89108  0.16328  0.18807  1.0000
  H   H1158     1.0  0.90281  0.11444  0.47054  1.0000
  H   H1159     1.0  0.87233  0.12088  0.38651  1.0000
  H   H1160     1.0  0.84873  0.13582  0.41793  1.0000
  C   C1173     1.0  0.77252  0.16187  0.10570  1.0000
  C   C1174     1.0  0.77801  0.16477  0.13665  1.0000
  H   H1161     1.0  0.88416  0.17232  0.25987  1.0000
  H   H1162     1.0  0.79182  0.16687  0.14129  1.0000
  C   C1175     1.0  0.98794  0.40833  0.30925  1.0000
  C   C1176     1.0  0.98863  0.42039  0.33402  1.0000
  H   H1163     1.0  0.87190  0.02256  0.26879  1.0000
  H   H1164     1.0  0.97653  0.42507  0.34495  1.0000
  H   H1165     1.0  0.00346  0.39285  0.27649  1.0000
  C   C1177     1.0  0.90814  0.49305  0.26115  1.0000
  C   C1178     1.0  0.92322  0.49486  0.27950  1.0000
  H   H1166     1.0  0.89893  0.16511  0.13905  1.0000
  H   H1167     1.0  0.90104  0.48080  0.26156  1.0000
  H   H1168     1.0  0.89052  0.15103  0.24502  1.0000
  C   C1179     1.0  0.83649  0.27282  0.06658  1.0000
  C   C1180     1.0  0.85043  0.27132  0.08779  1.0000
  C   C1181     1.0  0.85603  0.25459  0.09841  1.0000
  C   C1182     1.0  0.84780  0.23924  0.08791  1.0000
  C   C1183     1.0  0.83369  0.24076  0.06707  1.0000
  C   C1184     1.0  0.82807  0.25746  0.05653  1.0000
  H   H1169     1.0  0.85706  0.28301  0.09566  1.0000
  H   H1170     1.0  0.86695  0.25356  0.11456  1.0000
  H   H1171     1.0  0.82721  0.22907  0.05884  1.0000
  H   H1172     1.0  0.91424  0.39827  0.15709  1.0000
  C   C1185     1.0  0.86850  0.37025  0.45420  1.0000
  C   C1186     1.0  0.87643  0.36666  0.42466  1.0000
  C   C1187     1.0  0.88438  0.38010  0.40654  1.0000
  C   C1188     1.0  0.88454  0.39739  0.41776  1.0000
  C   C1189     1.0  0.87608  0.40107  0.44678  1.0000
  C   C1190     1.0  0.86809  0.38765  0.46485  1.0000
  H   H1173     1.0  0.87677  0.35330  0.41604  1.0000
  H   H1174     1.0  0.89083  0.37699  0.38436  1.0000
  H   H1175     1.0  0.87601  0.41438  0.45566  1.0000
  C   C1191     1.0  0.76439  0.33459  0.15848  1.0000
  C   C1192     1.0  0.88007  0.36689  0.16868  1.0000
  C   C1193     1.0  0.89297  0.36670  0.19225  1.0000
  C   C1194     1.0  0.89427  0.38072  0.21370  1.0000
  C   C1195     1.0  0.88265  0.39505  0.21167  1.0000
  C   C1196     1.0  0.86975  0.39523  0.18809  1.0000
  C   C1197     1.0  0.86848  0.38125  0.16662  1.0000
  H   H1176     1.0  0.90202  0.35565  0.19395  1.0000
  H   H1177     1.0  0.90420  0.38041  0.23187  1.0000
  H   H1178     1.0  0.86069  0.40627  0.18644  1.0000
  H   H1179     1.0  0.85853  0.38160  0.14854  1.0000
  C   C1198     1.0  0.77740  0.35901  0.12977  1.0000
  C   C1199     1.0  0.77865  0.34188  0.14160  1.0000
  H   H1180     1.0  0.86770  0.15613  0.25036  1.0000
  H   H1181     1.0  0.79051  0.33417  0.13751  1.0000
  H   H1182     1.0  0.81721  0.25848  0.04026  1.0000
  H   H1183     1.0  0.86838  0.20047  0.00882  1.0000
  C   C1200     1.0  0.86658  0.24492  0.01661  1.0000
  H   H1184     1.0  0.97382  0.03685  0.36307  1.0000
  H   H1185     1.0  0.89402  0.42351  0.14736  1.0000
  C   C1201     1.0  0.87164  0.06774  0.22738  1.0000
  N   N99       1.0  0.87090  0.18418  0.47105  1.0000
  H   H1186     1.0  0.94572  0.03475  0.33346  1.0000
  C   C1202     1.0  0.00502  0.42645  0.34466  1.0000
  H   H1187     1.0  0.81644  0.35598  0.16056  1.0000
  H   H1188     1.0  0.94427  0.04573  0.27874  1.0000
  H   H1189     1.0  0.98398  0.47599  0.34703  1.0000
  C   C1203     1.0  0.88364  0.41245  0.10458  1.0000
  C   C1204     1.0  0.87138  0.03526  0.25709  1.0000
  H   H1190     1.0  0.85571  0.27643  0.00378  1.0000
  H   H1191     1.0  0.87021  0.17091  0.42687  1.0000
  C   C1205     1.0  0.97315  0.04135  0.33881  1.0000
  H   H1192     1.0  0.84266  0.34196  0.18573  1.0000
  C   C1206     1.0  0.98675  0.05445  0.29291  1.0000
  C   C1207     1.0  0.97972  0.44206  0.25981  1.0000
  C   C1208     1.0  0.97454  0.47263  0.32820  1.0000
  H   H1193     1.0  0.92002  0.01869  0.19469  1.0000
  H   H1194     1.0  0.87396  0.04576  0.32111  1.0000
  C   C1209     1.0  0.86466  0.21406  0.00440  1.0000
  C   C1210     1.0  0.87161  0.22749  0.02262  1.0000
  C   C1211     1.0  0.86683  0.06616  0.25918  1.0000
  C   C1212     1.0  0.83717  0.35416  0.19498  1.0000
  C   C1213     1.0  0.88277  0.12957  0.03005  1.0000
  C   C1214     1.0  0.95661  0.04650  0.29129  1.0000
  C   C1215     1.0  0.89368  0.16449  0.45245  1.0000
  H   H1195     1.0  0.87176  0.13799  0.02150  1.0000
  C   C1216     1.0  0.81606  0.37803  0.19213  1.0000
  H   H1196     1.0  0.91486  0.15928  0.48471  1.0000
  H   H1197     1.0  0.87993  0.02456  0.21229  1.0000
  H   H1198     1.0  0.76998  0.16732  0.18547  1.0000
  N   N100      1.0  0.97110  0.05377  0.27721  1.0000
  H   H1199     1.0  0.96908  0.48492  0.31772  1.0000
  H   H1200     1.0  0.91463  0.37297  0.12048  1.0000
  H   H1201     1.0  0.87563  0.39798  0.06378  1.0000
  C   C1217     1.0  0.90202  0.50724  0.24258  1.0000
  N   N101      1.0  0.89316  0.12304  0.00312  1.0000
  N   N102      1.0  0.98277  0.46182  0.30346  1.0000
  S   S415      1.0  0.86049  0.35240  0.47759  1.0000
  H   H1202     1.0  0.92570  0.38285  0.43324  1.0000
  N   N103      1.0  0.83847  0.37804  0.23188  1.0000
  C   C1218     1.0  0.84490  0.36230  0.22092  1.0000
  C   C1219     1.0  0.82416  0.38586  0.21801  1.0000
  H   H1203     1.0  0.86334  0.07797  0.27223  1.0000
  H   H1204     1.0  0.80478  0.38423  0.18086  1.0000
  H   H1205     1.0  0.90728  0.37037  0.05191  1.0000
  C   C1220     1.0  0.84648  0.38633  0.25937  1.0000
  H   H1206     1.0  0.85637  0.35618  0.23161  1.0000
  H   H1207     1.0  0.81901  0.39827  0.22682  1.0000
  H   H1208     1.0  0.88387  0.09675  0.00714  1.0000
  C   C1221     1.0  0.00073  0.46111  0.30014  1.0000
  H   H1209     1.0  0.99982  0.10302  0.25024  1.0000
  H   H1210     1.0  0.83869  0.38342  0.28101  1.0000
  H   H1211     1.0  0.00537  0.43585  0.36374  1.0000
  H   H1212     1.0  0.84722  0.40082  0.25609  1.0000
  H   H1213     1.0  0.76543  0.32128  0.16737  1.0000
  C   C1222     1.0  0.88420  0.39802  0.08416  1.0000
  H   H1214     1.0  0.91489  0.35430  0.45417  1.0000
  H   H1215     1.0  0.87175  0.25523  0.03142  1.0000
  C   C1223     1.0  0.91715  0.01421  0.21840  1.0000
  C   C1224     1.0  0.88055  0.16182  0.24310  1.0000
  H   H1216     1.0  0.87708  0.11875  0.04444  1.0000
  C   C1225     1.0  0.91941  0.38218  0.45632  1.0000
  H   H1217     1.0  0.88013  0.05376  0.18566  1.0000
  C   C1226     1.0  0.90417  0.36579  0.49682  1.0000
  H   H1218     1.0  0.86029  0.38169  0.26287  1.0000
  C   C1227     1.0  0.00102  0.09944  0.27484  1.0000
  H   H1219     1.0  0.90086  0.15320  0.19319  1.0000
  C   C1228     1.0  0.91333  0.36618  0.46803  1.0000
  H   H1220     1.0  0.88364  0.36825  0.05420  1.0000
  H   H1221     1.0  0.85577  0.19840  0.16822  1.0000
  H   H1222     1.0  0.85767  0.18574  0.22220  1.0000
  C   C1229     1.0  0.86192  0.04846  0.30707  1.0000
  C   C1230     1.0  0.87760  0.17331  0.44816  1.0000
  H   H1223     1.0  0.85388  0.20022  0.44346  1.0000
  H   H1224     1.0  0.87657  0.18822  0.12670  1.0000
  C   C1231     1.0  0.89014  0.17006  0.15741  1.0000
  H   H1225     1.0  0.89713  0.35651  0.08157  1.0000
  H   H1226     1.0  0.97109  0.04906  0.22793  1.0000
  C   C1232     1.0  0.87745  0.18282  0.15035  1.0000
  C   C1233     1.0  0.86574  0.18853  0.17378  1.0000
  N   N104      1.0  0.87949  0.16890  0.21094  1.0000
  C   C1234     1.0  0.86691  0.18134  0.20414  1.0000
  H   H1227     1.0  0.95808  0.45339  0.28587  1.0000
  C   C1235     1.0  0.90615  0.38420  0.11551  1.0000
  H   H1228     1.0  0.76594  0.35398  0.05406  1.0000
  C   C1236     1.0  0.87605  0.03633  0.22515  1.0000
  C   C1237     1.0  0.90601  0.39846  0.13628  1.0000
  C   C1238     1.0  0.00435  0.09031  0.33817  1.0000
  N   N105      1.0  0.89520  0.38404  0.09005  1.0000
  H   H1229     1.0  0.77080  0.32323  0.07179  1.0000
  H   H1230     1.0  0.84327  0.18286  0.46562  1.0000
  C   C1239     1.0  0.76558  0.16507  0.16165  1.0000
  C   C1240     1.0  0.89460  0.41262  0.13083  1.0000
  H   H1231     1.0  0.96345  0.46546  0.33959  1.0000
  H   H1232     1.0  0.87463  0.42335  0.10026  1.0000
  C   C1241     1.0  0.82263  0.36209  0.18064  1.0000
  H   H1233     1.0  0.98038  0.06993  0.23936  1.0000
  H   H1234     1.0  0.97132  0.43420  0.24497  1.0000
  H   H1235     1.0  0.89109  0.13744  0.04602  1.0000
  H   H1236     1.0  0.89868  0.15547  0.43459  1.0000
  S   S416      1.0  0.84525  0.14564  0.48304  1.0000
  H   H1237     1.0  0.86186  0.39074  0.48722  1.0000
  C   C1242     1.0  0.76186  0.36882  0.13540  1.0000
  H   H1238     1.0  0.88045  0.22440  0.04188  1.0000
  H   H1239     1.0  0.85559  0.06067  0.31631  1.0000
  H   H1240     1.0  0.89021  0.50574  0.22878  1.0000
  C   C1243     1.0  0.99801  0.44096  0.25665  1.0000
  H   H1241     1.0  0.00394  0.43223  0.23929  1.0000
  C   C1244     1.0  0.85381  0.19287  0.46608  1.0000
  C   C1245     1.0  0.97229  0.45272  0.28333  1.0000
  H   H1242     1.0  0.88924  0.38459  0.00530  1.0000
  H   H1243     1.0  0.99829  0.06016  0.28179  1.0000
  H   H1244     1.0  0.00554  0.08683  0.36283  1.0000
  C   C1246     1.0  0.98798  0.04842  0.32402  1.0000
  H   H1245     1.0  0.87186  0.08059  0.21620  1.0000
  C   C1247     1.0  0.00385  0.40225  0.29557  1.0000
  H   H1246     1.0  0.76083  0.38214  0.12656  1.0000
  C   C1248     1.0  0.90270  0.16655  0.48068  1.0000
  C   C1249     1.0  0.95739  0.04022  0.32228  1.0000
  H   H1247     1.0  0.00029  0.04957  0.33668  1.0000
  H   H1248     1.0  0.92029  0.41011  0.46374  1.0000
  C   C1250     1.0  0.87625  0.05271  0.21029  1.0000
  H   H1249     1.0  0.77051  0.20094  0.10568  1.0000
  H   H1250     1.0  0.85051  0.20235  0.48523  1.0000
  C   C1251     1.0  0.00862  0.45064  0.27676  1.0000
  Fe  Fe209     1.0  0.84876  0.35096  0.52774  1.0000
  S   S417      1.0  0.86567  0.34025  0.56704  1.0000
  H   H1251     1.0  0.93224  0.03528  0.83648  1.0000
  Fe  Fe210     1.0  0.81652  0.35513  0.57269  1.0000
  S   S418      1.0  0.83167  0.34598  0.61484  1.0000
  S   S419      1.0  0.78729  0.36265  0.57367  1.0000
  Fe  Fe211     1.0  0.85393  0.36233  0.59592  1.0000
  S   S420      1.0  0.87235  0.38196  0.61858  1.0000
  Fe  Fe212     1.0  0.84197  0.32459  0.58228  1.0000
  S   S421      1.0  0.83939  0.29721  0.60406  1.0000
  S   S422      1.0  0.83786  0.37352  0.55602  1.0000
  S   S423      1.0  0.82594  0.33335  0.54075  1.0000
  Fe  Fe213     1.0  0.90405  0.41477  0.78836  1.0000
  S   S424      1.0  0.89388  0.43278  0.82680  1.0000
  S   S425      1.0  0.88448  0.39658  0.76475  1.0000
  Fe  Fe214     1.0  0.94260  0.42316  0.80268  1.0000
  S   S426      1.0  0.93500  0.44123  0.84234  1.0000
  S   S427      1.0  0.97026  0.41838  0.78246  1.0000
  Fe  Fe215     1.0  0.91507  0.42071  0.85683  1.0000
  S   S428      1.0  0.91264  0.41283  0.90918  1.0000
  Fe  Fe216     1.0  0.91442  0.45184  0.80906  1.0000
  S   S429      1.0  0.91014  0.48173  0.80970  1.0000
  S   S430      1.0  0.92439  0.40181  0.81938  1.0000
  S   S431      1.0  0.92291  0.43467  0.76843  1.0000
  Fe  Fe217     1.0  0.84144  0.19389  0.56372  1.0000
  S   S432      1.0  0.82307  0.18175  0.52922  1.0000
  S   S433      1.0  0.85118  0.22052  0.54577  1.0000
  Fe  Fe218     1.0  0.84056  0.16061  0.60483  1.0000
  S   S434      1.0  0.82233  0.14650  0.57165  1.0000
  S   S435      1.0  0.84410  0.14835  0.65364  1.0000
  Fe  Fe219     1.0  0.83981  0.15720  0.53259  1.0000
  H   H1252     1.0  0.97137  0.04737  0.73591  1.0000
  Fe  Fe220     1.0  0.80741  0.17217  0.57088  1.0000
  S   S436      1.0  0.77767  0.17735  0.57112  1.0000
  S   S437      1.0  0.85905  0.16969  0.56586  1.0000
  S   S438      1.0  0.82468  0.18598  0.60528  1.0000
  Fe  Fe221     1.0  0.90226  0.09818  0.83999  1.0000
  S   S439      1.0  0.92389  0.11349  0.81562  1.0000
  S   S440      1.0  0.88539  0.10344  0.88465  1.0000
  Fe  Fe222     1.0  0.90927  0.06531  0.79756  1.0000
  S   S441      1.0  0.93089  0.07833  0.77046  1.0000
  S   S442      1.0  0.90204  0.03635  0.79429  1.0000
  Fe  Fe223     1.0  0.94035  0.08854  0.81689  1.0000
  S   S443      1.0  0.96777  0.08244  0.83639  1.0000
  Fe  Fe224     1.0  0.91275  0.10214  0.77061  1.0000
  S   S444      1.0  0.91151  0.11605  0.72299  1.0000
  S   S445      1.0  0.91953  0.07408  0.84424  1.0000
  S   S446      1.0  0.89029  0.08823  0.79474  1.0000
  C   C1252     1.0  0.98870  0.08700  0.81935  1.0000
  C   C1253     1.0  0.99065  0.09832  0.79356  1.0000
  H   H1253     1.0  0.89524  0.36924  0.55810  1.0000
  H   H1254     1.0  0.97912  0.10429  0.78295  1.0000
  C   C1254     1.0  0.91191  0.50506  0.72240  1.0000
  C   C1255     1.0  0.90654  0.02117  0.76350  1.0000
  C   C1256     1.0  0.91335  0.02636  0.73418  1.0000
  H   H1255     1.0  0.90253  0.17922  0.52617  1.0000
  H   H1256     1.0  0.91644  0.04001  0.73000  1.0000
  H   H1257     1.0  0.83691  0.39242  0.63570  1.0000
  C   C1257     1.0  0.86308  0.13938  0.67221  1.0000
  C   C1258     1.0  0.86139  0.13254  0.70296  1.0000
  C   C1259     1.0  0.87606  0.12540  0.71888  1.0000
  C   C1260     1.0  0.89262  0.12500  0.70414  1.0000
  C   C1261     1.0  0.89430  0.13174  0.67332  1.0000
  C   C1262     1.0  0.87962  0.13889  0.65740  1.0000
  H   H1258     1.0  0.84866  0.13292  0.71466  1.0000
  H   H1259     1.0  0.87458  0.12042  0.74266  1.0000
  H   H1260     1.0  0.90706  0.13151  0.66174  1.0000
  H   H1261     1.0  0.88112  0.14410  0.63379  1.0000
  C   C1263     1.0  0.86697  0.14945  0.94887  1.0000
  C   C1264     1.0  0.86097  0.13234  0.95382  1.0000
  C   C1265     1.0  0.86629  0.11865  0.93326  1.0000
  C   C1266     1.0  0.87773  0.12176  0.90751  1.0000
  C   C1267     1.0  0.88348  0.13894  0.90220  1.0000
  C   C1268     1.0  0.87809  0.15267  0.92271  1.0000
  H   H1262     1.0  0.91979  0.13828  0.94495  1.0000
  H   H1263     1.0  0.86164  0.10546  0.93751  1.0000
  H   H1264     1.0  0.89223  0.14162  0.88252  1.0000
  H   H1265     1.0  0.88274  0.16585  0.91840  1.0000
  C   C1269     1.0  0.77509  0.19452  0.66162  1.0000
  H   H1266     1.0  0.79304  0.28176  0.61984  1.0000
  H   H1267     1.0  0.90723  0.45947  0.91795  1.0000
  H   H1268     1.0  0.77950  0.15054  0.62088  1.0000
  C   C1270     1.0  0.99046  0.41755  0.80320  1.0000
  C   C1271     1.0  0.96458  0.03795  0.75081  1.0000
  C   C1272     1.0  0.99114  0.41901  0.83603  1.0000
  H   H1269     1.0  0.79443  0.17560  0.67759  1.0000
  H   H1270     1.0  0.97906  0.42050  0.84958  1.0000
  C   C1273     1.0  0.91201  0.49223  0.74655  1.0000
  C   C1274     1.0  0.91109  0.49732  0.77821  1.0000
  S   S447      1.0  0.86149  0.16711  0.97506  1.0000
  H   H1271     1.0  0.91248  0.47842  0.74062  1.0000
  H   H1272     1.0  0.87312  0.46996  0.81782  1.0000
  C   C1275     1.0  0.84337  0.27607  0.58753  1.0000
  C   C1276     1.0  0.84013  0.26110  0.60620  1.0000
  C   C1277     1.0  0.84220  0.24402  0.59374  1.0000
  C   C1278     1.0  0.84795  0.24171  0.56257  1.0000
  C   C1279     1.0  0.85143  0.25667  0.54402  1.0000
  C   C1280     1.0  0.84904  0.27376  0.55632  1.0000
  H   H1273     1.0  0.83586  0.26273  0.63045  1.0000
  H   H1274     1.0  0.83967  0.23265  0.60840  1.0000
  H   H1275     1.0  0.85600  0.25504  0.51995  1.0000
  H   H1276     1.0  0.85166  0.28513  0.54171  1.0000
  C   C1281     1.0  0.87097  0.38193  0.96726  1.0000
  C   C1282     1.0  0.86806  0.38593  0.93521  1.0000
  C   C1283     1.0  0.88071  0.39507  0.91693  1.0000
  C   C1284     1.0  0.89648  0.40048  0.93051  1.0000
  C   C1285     1.0  0.89933  0.39664  0.96261  1.0000
  C   C1286     1.0  0.88675  0.38739  0.98082  1.0000
  H   H1277     1.0  0.85594  0.38182  0.92437  1.0000
  H   H1278     1.0  0.87822  0.39792  0.89235  1.0000
  H   H1279     1.0  0.91142  0.40083  0.97348  1.0000
  H   H1280     1.0  0.00251  0.07066  0.85285  1.0000
  C   C1287     1.0  0.87564  0.38569  0.65935  1.0000
  C   C1288     1.0  0.88746  0.39877  0.66859  1.0000
  C   C1289     1.0  0.89032  0.40234  0.70074  1.0000
  C   C1290     1.0  0.88124  0.39290  0.72395  1.0000
  C   C1291     1.0  0.86946  0.37978  0.71471  1.0000
  C   C1292     1.0  0.86670  0.37613  0.68258  1.0000
  H   H1281     1.0  0.89441  0.40626  0.65077  1.0000
  H   H1282     1.0  0.89939  0.41249  0.70751  1.0000
  H   H1283     1.0  0.86251  0.37231  0.73256  1.0000
  H   H1284     1.0  0.85774  0.36588  0.67580  1.0000
  C   C1293     1.0  0.77128  0.35716  0.60290  1.0000
  C   C1294     1.0  0.77587  0.34873  0.63106  1.0000
  H   H1285     1.0  0.78350  0.19961  0.64293  1.0000
  H   H1286     1.0  0.78944  0.34495  0.63515  1.0000
  C   C1295     1.0  0.78120  0.18094  0.68096  1.0000
  H   H1287     1.0  0.95169  0.04829  0.84015  1.0000
  C   C1296     1.0  0.85271  0.21812  0.98064  1.0000
  C   C1297     1.0  0.00387  0.07943  0.83287  1.0000
  H   H1288     1.0  0.79890  0.38449  0.70984  1.0000
  H   H1289     1.0  0.85220  0.12962  0.97344  1.0000
  H   H1290     1.0  0.90300  0.14846  0.99199  1.0000
  C   C1298     1.0  0.76250  0.17015  0.60020  1.0000
  H   H1291     1.0  0.83847  0.23877  0.95703  1.0000
  C   C1299     1.0  0.77010  0.38823  0.67506  1.0000
  H   H1292     1.0  0.80885  0.24847  0.54292  1.0000
  H   H1293     1.0  0.90016  0.08626  0.95977  1.0000
  H   H1294     1.0  0.84719  0.20763  0.96659  1.0000
  H   H1295     1.0  0.76082  0.38634  0.65524  1.0000
  S   S448      1.0  0.85431  0.37048  0.98911  1.0000
  N   N106      1.0  0.88034  0.06051  0.70727  1.0000
  C   C1300     1.0  0.88339  0.05101  0.68037  1.0000
  C   C1301     1.0  0.87369  0.05253  0.73371  1.0000
  C   C1302     1.0  0.87941  0.03310  0.67927  1.0000
  C   C1303     1.0  0.86945  0.03468  0.73339  1.0000
  C   C1304     1.0  0.87239  0.02492  0.70599  1.0000
  C   C1305     1.0  0.88541  0.07901  0.70847  1.0000
  H   H1296     1.0  0.88917  0.05722  0.65972  1.0000
  H   H1297     1.0  0.87201  0.05982  0.75552  1.0000
  H   H1298     1.0  0.88223  0.02546  0.65820  1.0000
  H   H1299     1.0  0.86474  0.02832  0.75474  1.0000
  H   H1300     1.0  0.86988  0.01090  0.70583  1.0000
  H   H1301     1.0  0.88418  0.08554  0.68508  1.0000
  H   H1302     1.0  0.87686  0.08660  0.72509  1.0000
  H   H1303     1.0  0.89930  0.08007  0.71628  1.0000
  N   N107      1.0  0.78844  0.38899  0.66396  1.0000
  C   C1306     1.0  0.79214  0.39240  0.63290  1.0000
  H   H1304     1.0  0.91230  0.50093  0.69800  1.0000
  H   H1305     1.0  0.87923  0.12948  0.50199  1.0000
  C   C1307     1.0  0.82330  0.39151  0.64366  1.0000
  C   C1308     1.0  0.76654  0.15663  0.62144  1.0000
  C   C1309     1.0  0.00762  0.10230  0.78191  1.0000
  H   H1306     1.0  0.90434  0.40874  0.51488  1.0000
  H   H1307     1.0  0.76661  0.33918  0.67623  1.0000
  C   C1310     1.0  0.90149  0.09972  0.96766  1.0000
  C   C1311     1.0  0.80553  0.27602  0.53211  1.0000
  C   C1312     1.0  0.94682  0.03510  0.83349  1.0000
  H   H1308     1.0  0.96414  0.05493  0.79112  1.0000
  C   C1313     1.0  0.81943  0.38826  0.67536  1.0000
  C   C1314     1.0  0.89222  0.10580  0.99425  1.0000
  H   H1309     1.0  0.80021  0.25210  0.59911  1.0000
  C   C1315     1.0  0.84788  0.23570  0.97538  1.0000
  H   H1310     1.0  0.00592  0.41432  0.76061  1.0000
  H   H1311     1.0  0.85445  0.47950  0.83887  1.0000
  H   H1312     1.0  0.88676  0.43670  0.93775  1.0000
  H   H1313     1.0  0.81240  0.39585  0.59743  1.0000
  H   H1314     1.0  0.78100  0.31159  0.60470  1.0000
  H   H1315     1.0  0.78160  0.39391  0.61594  1.0000
  C   C1316     1.0  0.80115  0.29259  0.54434  1.0000
  C   C1317     1.0  0.76289  0.34551  0.65435  1.0000
  C   C1318     1.0  0.91172  0.11140  0.95015  1.0000
  H   H1316     1.0  0.87669  0.37817  0.53682  1.0000
  H   H1317     1.0  0.80982  0.27465  0.50776  1.0000
  C   C1319     1.0  0.89075  0.38021  0.54269  1.0000
  C   C1320     1.0  0.80003  0.26336  0.58338  1.0000
  N   N108      1.0  0.87356  0.46624  0.86734  1.0000
  C   C1321     1.0  0.86248  0.45326  0.87738  1.0000
  C   C1322     1.0  0.88948  0.46852  0.88160  1.0000
  C   C1323     1.0  0.86698  0.44254  0.90302  1.0000
  C   C1324     1.0  0.89442  0.45798  0.90718  1.0000
  C   C1325     1.0  0.88297  0.44509  0.91815  1.0000
  C   C1326     1.0  0.86886  0.47689  0.83972  1.0000
  H   H1318     1.0  0.80417  0.31665  0.60142  1.0000
  H   H1319     1.0  0.95262  0.02537  0.85005  1.0000
  H   H1320     1.0  0.85835  0.43206  0.91075  1.0000
  H   H1321     1.0  0.89167  0.39248  0.55673  1.0000
  H   H1322     1.0  0.99523  0.45643  0.81330  1.0000
  H   H1323     1.0  0.85020  0.45095  0.86527  1.0000
  C   C1327     1.0  0.91572  0.01386  0.70991  1.0000
  C   C1328     1.0  0.90301  0.13462  0.98588  1.0000
  N   N109      1.0  0.95145  0.37209  0.77998  1.0000
  C   C1329     1.0  0.93936  0.36085  0.79278  1.0000
  C   C1330     1.0  0.94743  0.38174  0.75365  1.0000
  C   C1331     1.0  0.92293  0.35868  0.77867  1.0000
  C   C1332     1.0  0.93110  0.37992  0.73900  1.0000
  C   C1333     1.0  0.91889  0.36818  0.75148  1.0000
  C   C1334     1.0  0.96830  0.37459  0.79593  1.0000
  H   H1324     1.0  0.94226  0.35374  0.81435  1.0000
  H   H1325     1.0  0.95673  0.39112  0.74410  1.0000
  H   H1326     1.0  0.91323  0.35001  0.78908  1.0000
  H   H1327     1.0  0.92777  0.38780  0.71848  1.0000
  H   H1328     1.0  0.90610  0.36679  0.74057  1.0000
  H   H1329     1.0  0.97846  0.37995  0.77955  1.0000
  H   H1330     1.0  0.96649  0.38410  0.81560  1.0000
  H   H1331     1.0  0.97353  0.36198  0.80544  1.0000
  C   C1335     1.0  0.79252  0.31194  0.58835  1.0000
  C   C1336     1.0  0.80959  0.39356  0.62225  1.0000
  N   N110      1.0  0.90132  0.38090  0.51361  1.0000
  H   H1332     1.0  0.85335  0.27102  0.96277  1.0000
  C   C1337     1.0  0.90723  0.39666  0.50229  1.0000
  H   H1333     1.0  0.91828  0.10702  0.92863  1.0000
  N   N111      1.0  0.85483  0.24883  0.99325  1.0000
  C   C1338     1.0  0.79599  0.28015  0.59494  1.0000
  C   C1339     1.0  0.80492  0.26133  0.55180  1.0000
  H   H1334     1.0  0.87554  0.48983  0.84004  1.0000
  C   C1340     1.0  0.80181  0.38703  0.68516  1.0000
  N   N112      1.0  0.79634  0.29446  0.57535  1.0000
  C   C1341     1.0  0.96038  0.04219  0.78211  1.0000
  H   H1335     1.0  0.83004  0.38672  0.69219  1.0000
  H   H1336     1.0  0.92062  0.01801  0.68706  1.0000
  N   N113      1.0  0.95149  0.03054  0.80088  1.0000
  H   H1337     1.0  0.78933  0.32169  0.56958  1.0000
  H   H1338     1.0  0.80189  0.30396  0.52895  1.0000
  H   H1339     1.0  0.89860  0.47834  0.87292  1.0000
  H   H1340     1.0  0.00632  0.45585  0.75811  1.0000
  C   C1342     1.0  0.95092  0.00976  0.75832  1.0000
  C   C1343     1.0  0.84953  0.26711  0.98710  1.0000
  C   C1344     1.0  0.91252  0.12897  0.95928  1.0000
  H   H1341     1.0  0.83503  0.26873  0.99021  1.0000
  C   C1345     1.0  0.00630  0.41553  0.78602  1.0000
  H   H1342     1.0  0.77441  0.16289  0.71828  1.0000
  C   C1346     1.0  0.76997  0.17382  0.70378  1.0000
  H   H1343     1.0  0.89865  0.35347  0.50497  1.0000
  H   H1344     1.0  0.00794  0.41976  0.87683  1.0000
  C   C1347     1.0  0.00754  0.41862  0.85142  1.0000
  C   C1348     1.0  0.87981  0.18652  0.49861  1.0000
  H   H1345     1.0  0.76641  0.40057  0.68748  1.0000
  H   H1346     1.0  0.76820  0.37690  0.69134  1.0000
  C   C1349     1.0  0.94673  0.01453  0.78937  1.0000
  C   C1350     1.0  0.95978  0.02163  0.73888  1.0000
  H   H1347     1.0  0.87447  0.19504  0.51691  1.0000
  H   H1348     1.0  0.96266  0.01825  0.71450  1.0000
  C   C1351     1.0  0.89577  0.17766  0.50394  1.0000
  Fe  Fe225     1.0  0.94570  0.58941  0.18622  1.0000
  S   S449      1.0  0.92561  0.57383  0.15981  1.0000
  S   S450      1.0  0.97401  0.58558  0.16816  1.0000
  Fe  Fe226     1.0  0.91707  0.60585  0.22786  1.0000
  S   S451      1.0  0.89509  0.59141  0.20444  1.0000
  S   S452      1.0  0.91463  0.62505  0.26874  1.0000
  Fe  Fe227     1.0  0.91357  0.56793  0.20718  1.0000
  S   S453      1.0  0.90220  0.54093  0.21880  1.0000
  Fe  Fe228     1.0  0.90878  0.59848  0.15863  1.0000
  S   S454      1.0  0.89575  0.60371  0.11047  1.0000
  S   S455      1.0  0.93465  0.58194  0.23377  1.0000
  S   S456      1.0  0.92980  0.61448  0.18196  1.0000
  Fe  Fe229     1.0  0.84848  0.69111  0.42474  1.0000
  S   S457      1.0  0.83013  0.68609  0.46516  1.0000
  S   S458      1.0  0.86130  0.71752  0.41551  1.0000
  Fe  Fe230     1.0  0.84528  0.65361  0.40020  1.0000
  S   S459      1.0  0.82656  0.64614  0.43966  1.0000
  S   S460      1.0  0.84919  0.63246  0.36277  1.0000
  Fe  Fe231     1.0  0.81337  0.67215  0.42975  1.0000
  S   S461      1.0  0.78366  0.67723  0.43109  1.0000
  Fe  Fe232     1.0  0.84512  0.66051  0.47150  1.0000
  S   S462      1.0  0.85952  0.66635  0.03089  1.0000
  S   S463      1.0  0.83084  0.67882  0.38869  1.0000
  S   S464      1.0  0.86470  0.66639  0.43272  1.0000
  Fe  Fe233     1.0  0.91490  0.95129  0.19510  1.0000
  S   S465      1.0  0.92258  0.93818  0.24025  1.0000
  S   S466      1.0  0.91447  0.98140  0.19125  1.0000
  Fe  Fe234     1.0  0.91092  0.91563  0.16016  1.0000
  S   S467      1.0  0.91881  0.90045  0.20400  1.0000
  S   S468      1.0  0.90614  0.89796  0.11665  1.0000
  Fe  Fe235     1.0  0.90100  0.91913  0.23028  1.0000
  S   S469      1.0  0.88039  0.91322  0.26811  1.0000
  Fe  Fe236     1.0  0.93996  0.92072  0.21010  1.0000
  S   S470      1.0  0.96699  0.91503  0.23139  1.0000
  S   S471      1.0  0.89184  0.93334  0.18652  1.0000
  S   S472      1.0  0.93349  0.93479  0.16491  1.0000
  Fe  Fe237     1.0  0.83918  0.81926  0.44625  1.0000
  S   S473      1.0  0.82555  0.84176  0.47186  1.0000
  S   S474      1.0  0.83385  0.79190  0.46640  1.0000
  Fe  Fe238     1.0  0.85354  0.84370  0.39539  1.0000
  S   S475      1.0  0.84059  0.86741  0.41689  1.0000
  S   S476      1.0  0.87201  0.84461  0.35285  1.0000
  Fe  Fe239     1.0  0.85041  0.85712  0.46360  1.0000
  C   C1352     1.0  0.90075  0.87086  0.39192  1.0000
  Fe  Fe240     1.0  0.81684  0.85023  0.42345  1.0000
  S   S477      1.0  0.78917  0.86194  0.41754  1.0000
  S   S478      1.0  0.86471  0.83402  0.44148  1.0000
  S   S479      1.0  0.82910  0.82709  0.39840  1.0000
  C   C1353     1.0  0.77176  0.85337  0.39439  1.0000
  C   C1354     1.0  0.77380  0.83802  0.37653  1.0000
  H   H1349     1.0  0.78629  0.83104  0.37649  1.0000
  H   H1350     1.0  0.80175  0.70874  0.39562  1.0000
  C   C1355     1.0  0.98757  0.91354  0.21136  1.0000
  H   H1351     1.0  0.88512  0.86825  0.43436  1.0000
  C   C1356     1.0  0.98895  0.91457  0.17850  1.0000
  H   H1352     1.0  0.91103  0.90407  0.32113  1.0000
  H   H1353     1.0  0.97715  0.91596  0.16453  1.0000
  C   C1357     1.0  0.87801  0.89369  0.29040  1.0000
  C   C1358     1.0  0.86489  0.89315  0.31398  1.0000
  C   C1359     1.0  0.86282  0.87816  0.33307  1.0000
  C   C1360     1.0  0.87374  0.86346  0.32854  1.0000
  C   C1361     1.0  0.88681  0.86394  0.30480  1.0000
  C   C1362     1.0  0.88905  0.87904  0.28594  1.0000
  H   H1354     1.0  0.85630  0.90443  0.31759  1.0000
  H   H1355     1.0  0.85268  0.87794  0.35114  1.0000
  H   H1356     1.0  0.89537  0.85263  0.30128  1.0000
  H   H1357     1.0  0.89937  0.87937  0.26818  1.0000
  C   C1363     1.0  0.89047  0.89411  0.08607  1.0000
  C   C1364     1.0  0.87539  0.90460  0.08188  1.0000
  C   C1365     1.0  0.86305  0.90045  0.05825  1.0000
  C   C1366     1.0  0.86555  0.88581  0.03830  1.0000
  C   C1367     1.0  0.88071  0.87541  0.04230  1.0000
  C   C1368     1.0  0.89303  0.87954  0.06597  1.0000
  H   H1358     1.0  0.87318  0.91588  0.09693  1.0000
  H   H1359     1.0  0.85145  0.90868  0.05539  1.0000
  H   H1360     1.0  0.88290  0.86408  0.02736  1.0000
  H   H1361     1.0  0.90460  0.87128  0.06887  1.0000
  C   C1369     1.0  0.93217  0.61552  0.07567  1.0000
  C   C1370     1.0  0.91420  0.99619  0.22377  1.0000
  C   C1371     1.0  0.91047  0.99058  0.25455  1.0000
  H   H1362     1.0  0.96806  0.62454  0.16431  1.0000
  H   H1363     1.0  0.90811  0.97681  0.25909  1.0000
  C   C1372     1.0  0.85426  0.73805  0.43133  1.0000
  C   C1373     1.0  0.86166  0.75360  0.41940  1.0000
  C   C1374     1.0  0.85575  0.77021  0.43008  1.0000
  C   C1375     1.0  0.84252  0.77141  0.45320  1.0000
  C   C1376     1.0  0.83547  0.75583  0.46575  1.0000
  C   C1377     1.0  0.84120  0.73924  0.45475  1.0000
  H   H1364     1.0  0.87185  0.75282  0.40141  1.0000
  H   H1365     1.0  0.86138  0.78207  0.42036  1.0000
  H   H1366     1.0  0.89477  0.91965  0.33363  1.0000
  H   H1367     1.0  0.83551  0.72741  0.46441  1.0000
  H   H1368     1.0  0.81184  0.62185  0.38724  1.0000
  C   C1378     1.0  0.77336  0.67064  0.36938  1.0000
  H   H1369     1.0  0.98497  0.62024  0.13535  1.0000
  H   H1370     1.0  0.78721  0.66950  0.36344  1.0000
  C   C1379     1.0  0.99405  0.59212  0.18557  1.0000
  C   C1380     1.0  0.99465  0.59960  0.21561  1.0000
  H   H1371     1.0  0.84418  0.71974  0.06091  1.0000
  H   H1372     1.0  0.98254  0.60198  0.22869  1.0000
  H   H1373     1.0  0.91648  0.91983  0.35111  1.0000
  C   C1381     1.0  0.89544  0.62840  0.29221  1.0000
  C   C1382     1.0  0.88030  0.61835  0.28822  1.0000
  C   C1383     1.0  0.86598  0.62019  0.30942  1.0000
  C   C1384     1.0  0.86662  0.63212  0.33467  1.0000
  C   C1385     1.0  0.88155  0.64252  0.33811  1.0000
  C   C1386     1.0  0.89589  0.64062  0.31701  1.0000
  H   H1374     1.0  0.87976  0.60894  0.26921  1.0000
  H   H1375     1.0  0.85448  0.61212  0.30652  1.0000
  H   H1376     1.0  0.88221  0.65174  0.35743  1.0000
  H   H1377     1.0  0.90754  0.64845  0.32024  1.0000
  C   C1387     1.0  0.88551  0.62139  0.08921  1.0000
  C   C1388     1.0  0.88010  0.61844  0.05797  1.0000
  C   C1389     1.0  0.87220  0.63197  0.03981  1.0000
  C   C1390     1.0  0.86955  0.64873  0.05265  1.0000
  C   C1391     1.0  0.87508  0.65172  0.08383  1.0000
  C   C1392     1.0  0.88300  0.63819  0.10199  1.0000
  H   H1378     1.0  0.88192  0.60554  0.04774  1.0000
  H   H1379     1.0  0.86051  0.70232  0.05892  1.0000
  H   H1380     1.0  0.87307  0.66457  0.09416  1.0000
  H   H1381     1.0  0.88700  0.64072  0.12595  1.0000
  C   C1393     1.0  0.91099  0.52333  0.24176  1.0000
  H   H1382     1.0  0.97604  0.64206  0.13917  1.0000
  C   C1394     1.0  0.92621  0.52507  0.25981  1.0000
  H   H1383     1.0  0.88892  0.57030  0.26575  1.0000
  H   H1384     1.0  0.93330  0.53732  0.25938  1.0000
  H   H1385     1.0  0.94465  0.64764  0.12565  1.0000
  H   H1386     1.0  0.99988  0.55016  0.18927  1.0000
  C   C1395     1.0  0.97266  0.62791  0.14009  1.0000
  C   C1396     1.0  0.77404  0.62495  0.35034  1.0000
  H   H1387     1.0  0.92082  0.64057  0.08835  1.0000
  N   N114      1.0  0.80760  0.73592  0.40228  1.0000
  C   C1397     1.0  0.82102  0.73601  0.38050  1.0000
  C   C1398     1.0  0.80137  0.75136  0.41488  1.0000
  C   C1399     1.0  0.82813  0.75188  0.36996  1.0000
  C   C1400     1.0  0.80826  0.76747  0.40501  1.0000
  C   C1401     1.0  0.82167  0.76769  0.38230  1.0000
  C   C1402     1.0  0.80074  0.71915  0.41392  1.0000
  H   H1388     1.0  0.82670  0.72375  0.37189  1.0000
  H   H1389     1.0  0.79135  0.75127  0.43327  1.0000
  H   H1390     1.0  0.83912  0.75186  0.35340  1.0000
  N   N115      1.0  0.86178  0.72045  0.02089  1.0000
  H   H1391     1.0  0.87444  0.89910  0.43313  1.0000
  H   H1392     1.0  0.90630  0.99830  0.30302  1.0000
  H   H1393     1.0  0.94386  0.51252  0.29284  1.0000
  H   H1394     1.0  0.85634  0.74574  0.04069  1.0000
  N   N116      1.0  0.87760  0.87574  0.17296  1.0000
  C   C1403     1.0  0.87338  0.88647  0.19783  1.0000
  C   C1404     1.0  0.86808  0.87660  0.14576  1.0000
  C   C1405     1.0  0.85919  0.89829  0.19598  1.0000
  C   C1406     1.0  0.85376  0.88823  0.14311  1.0000
  C   C1407     1.0  0.84935  0.89918  0.16839  1.0000
  C   C1408     1.0  0.89292  0.86388  0.17472  1.0000
  H   H1395     1.0  0.88107  0.88607  0.21921  1.0000
  H   H1396     1.0  0.87180  0.86856  0.12562  1.0000
  H   H1397     1.0  0.85606  0.90687  0.21574  1.0000
  H   H1398     1.0  0.84643  0.88901  0.12128  1.0000
  H   H1399     1.0  0.83847  0.90848  0.16649  1.0000
  H   H1400     1.0  0.89675  0.86123  0.19954  1.0000
  H   H1401     1.0  0.89006  0.85107  0.16350  1.0000
  H   H1402     1.0  0.90432  0.86990  0.16222  1.0000
  C   C1409     1.0  0.93182  0.63153  0.09159  1.0000
  H   H1403     1.0  0.96959  0.59835  0.10660  1.0000
  C   C1410     1.0  0.77902  0.63165  0.40419  1.0000
  C   C1411     1.0  0.87272  0.74753  0.99937  1.0000
  H   H1404     1.0  0.92145  0.61213  0.06010  1.0000
  H   H1405     1.0  0.92024  0.58755  0.30137  1.0000
  H   H1406     1.0  0.76145  0.81996  0.34457  1.0000
  H   H1407     1.0  0.76463  0.66337  0.32288  1.0000
  H   H1408     1.0  0.88926  0.55151  0.29184  1.0000
  H   H1409     1.0  0.94574  0.59073  0.06995  1.0000
  H   H1410     1.0  0.91899  0.65998  0.49044  1.0000
  C   C1412     1.0  0.93221  0.51095  0.27871  1.0000
  H   H1411     1.0  0.80825  0.62271  0.34568  1.0000
  N   N117      1.0  0.89544  0.57614  0.31311  1.0000
  C   C1413     1.0  0.88090  0.57682  0.33242  1.0000
  C   C1414     1.0  0.90914  0.58736  0.31767  1.0000
  C   C1415     1.0  0.88000  0.58870  0.35756  1.0000
  C   C1416     1.0  0.90873  0.59931  0.34269  1.0000
  C   C1417     1.0  0.89404  0.59998  0.36268  1.0000
  C   C1418     1.0  0.89576  0.56416  0.28611  1.0000
  H   H1412     1.0  0.86978  0.56837  0.32808  1.0000
  H   H1413     1.0  0.00207  0.91066  0.25458  1.0000
  H   H1414     1.0  0.86825  0.58966  0.37226  1.0000
  H   H1415     1.0  0.91934  0.60861  0.34542  1.0000
  H   H1416     1.0  0.89319  0.60973  0.38128  1.0000
  C   C1419     1.0  0.87010  0.71125  0.99732  1.0000
  H   H1417     1.0  0.80827  0.71479  0.43489  1.0000
  H   H1418     1.0  0.87318  0.76179  0.99980  1.0000
  N   N118      1.0  0.95891  0.62375  0.11729  1.0000
  C   C1420     1.0  0.95917  0.60787  0.10217  1.0000
  C   C1421     1.0  0.94531  0.63540  0.11264  1.0000
  C   C1422     1.0  0.94579  0.60351  0.08121  1.0000
  H   H1419     1.0  0.82756  0.78007  0.37536  1.0000
  C   C1423     1.0  0.85158  0.71084  0.04472  1.0000
  C   C1424     1.0  0.90604  0.88229  0.36780  1.0000
  C   C1425     1.0  0.88937  0.87698  0.41555  1.0000
  H   H1420     1.0  0.89664  0.68151  0.47192  1.0000
  H   H1421     1.0  0.80873  0.64278  0.36791  1.0000
  H   H1422     1.0  0.82532  0.75662  0.48380  1.0000
  H   H1423     1.0  0.78657  0.72025  0.42061  1.0000
  H   H1424     1.0  0.88396  0.91885  0.38961  1.0000
  H   H1425     1.0  0.00163  0.95094  0.25645  1.0000
  C   C1426     1.0  0.76087  0.63192  0.41028  1.0000
  N   N119      1.0  0.78538  0.62811  0.37455  1.0000
  C   C1427     1.0  0.76819  0.67494  0.40019  1.0000
  H   H1426     1.0  0.90947  0.56079  0.27868  1.0000
  C   C1428     1.0  0.86306  0.73837  0.02226  1.0000
  H   H1427     1.0  0.78794  0.63498  0.42307  1.0000
  C   C1429     1.0  0.90944  0.00284  0.27943  1.0000
  C   C1430     1.0  0.81374  0.89594  0.47055  1.0000
  H   H1428     1.0  0.78630  0.87463  0.47841  1.0000
  H   H1429     1.0  0.86805  0.62936  0.01596  1.0000
  S   S480      1.0  0.84933  0.88120  0.00902  1.0000
  H   H1430     1.0  0.91470  0.87732  0.34930  1.0000
  H   H1431     1.0  0.87076  0.69806  0.48016  1.0000
  C   C1431     1.0  0.90589  0.91130  0.34212  1.0000
  N   N120      1.0  0.89991  0.89927  0.36700  1.0000
  C   C1432     1.0  0.80441  0.62889  0.36850  1.0000
  C   C1433     1.0  0.00303  0.91158  0.22915  1.0000
  H   H1432     1.0  0.80381  0.77967  0.41587  1.0000
  C   C1434     1.0  0.75966  0.83176  0.35844  1.0000
  C   C1435     1.0  0.00564  0.91359  0.16366  1.0000
  H   H1433     1.0  0.80773  0.90904  0.47531  1.0000
  H   H1434     1.0  0.84186  0.70220  0.03309  1.0000
  H   H1435     1.0  0.80814  0.89063  0.44838  1.0000
  C   C1436     1.0  0.88333  0.89434  0.41476  1.0000
  H   H1436     1.0  0.82815  0.89738  0.46632  1.0000
  C   C1437     1.0  0.88876  0.90538  0.39016  1.0000
  H   H1437     1.0  0.90503  0.85720  0.39179  1.0000
  S   S481      1.0  0.86385  0.87910  0.49179  1.0000
  H   H1438     1.0  0.00654  0.91423  0.13821  1.0000
  H   H1439     1.0  0.77900  0.62282  0.32657  1.0000
  H   H1440     1.0  0.99992  0.95095  0.19844  1.0000
  H   H1441     1.0  0.00699  0.56277  0.24116  1.0000
  C   C1438     1.0  0.76052  0.66724  0.34638  1.0000
  C   C1439     1.0  0.89678  0.67773  0.49661  1.0000
  Fe  Fe241     1.0  0.94029  0.59755  0.70023  1.0000
  S   S482      1.0  0.93306  0.57888  0.66179  1.0000
  S   S483      1.0  0.96716  0.60367  0.72105  1.0000
  Fe  Fe242     1.0  0.90159  0.60595  0.71559  1.0000
  S   S484      1.0  0.89152  0.58738  0.67859  1.0000
  S   S485      1.0  0.88421  0.62633  0.74034  1.0000
  Fe  Fe243     1.0  0.91271  0.56869  0.69627  1.0000
  S   S486      1.0  0.91069  0.53861  0.69782  1.0000
  Fe  Fe244     1.0  0.91239  0.59900  0.64703  1.0000
  S   S487      1.0  0.90913  0.60633  0.59461  1.0000
  S   S488      1.0  0.92104  0.58645  0.73566  1.0000
  S   S489      1.0  0.92147  0.61843  0.68307  1.0000
  Fe  Fe245     1.0  0.84639  0.69303  0.92431  1.0000
  S   S490      1.0  0.82872  0.68764  0.96593  1.0000
  S   S491      1.0  0.85438  0.72008  0.90609  1.0000
  Fe  Fe246     1.0  0.85300  0.65387  0.91180  1.0000
  S   S492      1.0  0.83568  0.64597  0.95272  1.0000
  S   S493      1.0  0.86681  0.63106  0.88693  1.0000
  Fe  Fe247     1.0  0.81693  0.66687  0.93467  1.0000
  S   S494      1.0  0.78766  0.66004  0.93229  1.0000
  Fe  Fe248     1.0  0.84909  0.66708  0.98001  1.0000
  H   H1442     1.0  0.88046  0.63084  0.49997  1.0000
  S   S495      1.0  0.83349  0.67335  0.89213  1.0000
  S   S496      1.0  0.86752  0.67394  0.94005  1.0000
  Fe  Fe249     1.0  0.91526  0.95109  0.68934  1.0000
  S   S497      1.0  0.93273  0.93952  0.72652  1.0000
  S   S498      1.0  0.91376  0.98100  0.68317  1.0000
  Fe  Fe250     1.0  0.90516  0.91415  0.66262  1.0000
  S   S499      1.0  0.92235  0.90049  0.69873  1.0000
  S   S500      1.0  0.88769  0.89511  0.63430  1.0000
  Fe  Fe251     1.0  0.91098  0.91981  0.73384  1.0000
  S   S501      1.0  0.89695  0.91604  0.78125  1.0000
  Fe  Fe252     1.0  0.94265  0.92137  0.68820  1.0000
  S   S502      1.0  0.97134  0.91801  0.67155  1.0000
  S   S503      1.0  0.89289  0.93257  0.69858  1.0000
  S   S504      1.0  0.92606  0.93388  0.65013  1.0000
  Fe  Fe253     1.0  0.84447  0.82170  0.95063  1.0000
  S   S505      1.0  0.82397  0.84190  0.96521  1.0000
  S   S506      1.0  0.84095  0.79430  0.97199  1.0000
  Fe  Fe254     1.0  0.86316  0.84807  0.90707  1.0000
  S   S507      1.0  0.84397  0.86977  0.91858  1.0000
  S   S508      1.0  0.88600  0.85039  0.87210  1.0000
  Fe  Fe255     1.0  0.84692  0.86063  0.96929  1.0000
  H   H1443     1.0  0.83740  0.61642  0.85294  1.0000
  Fe  Fe256     1.0  0.82285  0.84924  0.91374  1.0000
  S   S509      1.0  0.80036  0.85012  0.87790  1.0000
  S   S510      1.0  0.86737  0.83994  0.95781  1.0000
  S   S511      1.0  0.84219  0.82801  0.89926  1.0000
  H   H1444     1.0  0.90966  0.51952  0.80969  1.0000
  C   C1440     1.0  0.79624  0.80388  0.94731  1.0000
  H   H1445     1.0  0.77518  0.85880  0.92908  1.0000
  H   H1446     1.0  0.99418  0.56787  0.74386  1.0000
  C   C1441     1.0  0.99143  0.91844  0.69256  1.0000
  C   C1442     1.0  0.99294  0.91156  0.72305  1.0000
  H   H1447     1.0  0.91916  0.65078  0.54685  1.0000
  H   H1448     1.0  0.98129  0.90708  0.73542  1.0000
  C   C1443     1.0  0.89729  0.66768  0.55951  1.0000
  C   C1444     1.0  0.89344  0.89699  0.80429  1.0000
  C   C1445     1.0  0.87964  0.89719  0.82662  1.0000
  C   C1446     1.0  0.87679  0.88273  0.84670  1.0000
  C   C1447     1.0  0.88796  0.86803  0.84506  1.0000
  C   C1448     1.0  0.90169  0.86775  0.82252  1.0000
  C   C1449     1.0  0.90438  0.88213  0.80206  1.0000
  H   H1449     1.0  0.87116  0.90868  0.82857  1.0000
  H   H1450     1.0  0.86623  0.88317  0.86400  1.0000
  H   H1451     1.0  0.91049  0.85647  0.82129  1.0000
  H   H1452     1.0  0.91519  0.88194  0.78524  1.0000
  C   C1450     1.0  0.88187  0.89067  0.59418  1.0000
  C   C1451     1.0  0.88579  0.90213  0.56925  1.0000
  C   C1452     1.0  0.88030  0.89826  0.53822  1.0000
  C   C1453     1.0  0.87102  0.88280  0.53141  1.0000
  C   C1454     1.0  0.86726  0.87124  0.55626  1.0000
  C   C1455     1.0  0.87251  0.87523  0.58737  1.0000
  H   H1453     1.0  0.89290  0.91407  0.57391  1.0000
  H   H1454     1.0  0.88331  0.90737  0.51935  1.0000
  C   C1456     1.0  0.90217  0.91418  0.88712  1.0000
  H   H1455     1.0  0.86943  0.86620  0.60630  1.0000
  H   H1456     1.0  0.90091  0.92634  0.87385  1.0000
  C   C1457     1.0  0.91163  0.99606  0.71488  1.0000
  C   C1458     1.0  0.90532  0.99084  0.74449  1.0000
  H   H1457     1.0  0.84600  0.90990  0.73542  1.0000
  H   H1458     1.0  0.90207  0.97721  0.74861  1.0000
  C   C1459     1.0  0.84892  0.74075  0.92315  1.0000
  C   C1460     1.0  0.83877  0.74221  0.95076  1.0000
  C   C1461     1.0  0.83606  0.75878  0.96497  1.0000
  C   C1462     1.0  0.84334  0.77404  0.95164  1.0000
  C   C1463     1.0  0.85295  0.77267  0.92344  1.0000
  C   C1464     1.0  0.85578  0.75610  0.90939  1.0000
  H   H1459     1.0  0.83336  0.73053  0.96154  1.0000
  H   H1460     1.0  0.79770  0.79707  0.84205  1.0000
  H   H1461     1.0  0.85868  0.78429  0.91296  1.0000
  H   H1462     1.0  0.86363  0.75510  0.88802  1.0000
  C   C1465     1.0  0.77205  0.66553  0.90260  1.0000
  C   C1466     1.0  0.77666  0.67497  0.87544  1.0000
  C   C1467     1.0  0.91536  0.88546  0.89391  1.0000
  H   H1463     1.0  0.78996  0.67975  0.87263  1.0000
  C   C1468     1.0  0.98810  0.60011  0.70293  1.0000
  H   H1464     1.0  0.89695  0.66332  0.58390  1.0000
  C   C1469     1.0  0.98987  0.59408  0.67192  1.0000
  C   C1470     1.0  0.98128  0.54416  0.68051  1.0000
  H   H1465     1.0  0.97825  0.59199  0.65791  1.0000
  C   C1471     1.0  0.87915  0.62709  0.78103  1.0000
  C   C1472     1.0  0.88414  0.61361  0.80163  1.0000
  C   C1473     1.0  0.88031  0.61507  0.83407  1.0000
  C   C1474     1.0  0.87163  0.63005  0.84616  1.0000
  C   C1475     1.0  0.86666  0.64354  0.82557  1.0000
  C   C1476     1.0  0.87032  0.64200  0.79309  1.0000
  H   H1466     1.0  0.89092  0.60207  0.79256  1.0000
  H   H1467     1.0  0.88410  0.60454  0.84990  1.0000
  H   H1468     1.0  0.85991  0.65510  0.83463  1.0000
  H   H1469     1.0  0.86642  0.65248  0.77724  1.0000
  C   C1477     1.0  0.89213  0.61850  0.57506  1.0000
  C   C1478     1.0  0.89250  0.61975  0.54187  1.0000
  C   C1479     1.0  0.87983  0.62991  0.52541  1.0000
  C   C1480     1.0  0.86661  0.63907  0.54199  1.0000
  C   C1481     1.0  0.86611  0.63765  0.57513  1.0000
  C   C1482     1.0  0.87874  0.62744  0.59157  1.0000
  H   H1470     1.0  0.90274  0.61286  0.52880  1.0000
  C   C1483     1.0  0.79249  0.86225  0.52250  1.0000
  H   H1471     1.0  0.85595  0.64462  0.58828  1.0000
  H   H1472     1.0  0.87818  0.62660  0.61704  1.0000
  C   C1484     1.0  0.91108  0.52312  0.72948  1.0000
  H   H1473     1.0  0.81859  0.79660  0.91870  1.0000
  C   C1485     1.0  0.91051  0.52823  0.76116  1.0000
  H   H1474     1.0  0.86650  0.90348  0.69068  1.0000
  H   H1475     1.0  0.90980  0.54204  0.76705  1.0000
  H   H1476     1.0  0.00802  0.58606  0.63498  1.0000
  N   N121      1.0  0.81217  0.62496  0.86983  1.0000
  H   H1477     1.0  0.88718  0.87830  0.69406  1.0000
  H   H1478     1.0  0.86800  0.89821  0.95418  1.0000
  N   N122      1.0  0.88446  0.68443  0.51722  1.0000
  H   H1479     1.0  0.92423  0.87508  0.88585  1.0000
  S   S512      1.0  0.85124  0.65351  0.52302  1.0000
  C   C1486     1.0  0.80440  0.86127  0.54736  1.0000
  C   C1487     1.0  0.00677  0.59068  0.65901  1.0000
  C   C1488     1.0  0.88146  0.89262  0.95747  1.0000
  H   H1480     1.0  0.77312  0.81322  0.86837  1.0000
  H   H1481     1.0  0.78139  0.64671  0.82712  1.0000
  H   H1482     1.0  0.83337  0.62901  0.79964  1.0000
  C   C1489     1.0  0.79651  0.63301  0.86260  1.0000
  H   H1483     1.0  0.78105  0.85383  0.52213  1.0000
  H   H1484     1.0  0.80230  0.85204  0.56654  1.0000
  C   C1490     1.0  0.85474  0.89854  0.73634  1.0000
  C   C1491     1.0  0.90953  0.66563  0.50695  1.0000
  C   C1492     1.0  0.95257  0.53123  0.66842  1.0000
  H   H1485     1.0  0.98642  0.53949  0.65807  1.0000
  C   C1493     1.0  0.86631  0.87312  0.76365  1.0000
  N   N123      1.0  0.96417  0.54110  0.68923  1.0000
  N   N124      1.0  0.89250  0.89539  0.92940  1.0000
  H   H1486     1.0  0.86029  0.85923  0.55156  1.0000
  C   C1494     1.0  0.95754  0.54773  0.71692  1.0000
  H   H1487     1.0  0.88781  0.74522  0.95619  1.0000
  H   H1488     1.0  0.81777  0.79314  0.86312  1.0000
  H   H1489     1.0  0.88745  0.89887  0.97839  1.0000
  H   H1490     1.0  0.80933  0.60371  0.90179  1.0000
  H   H1491     1.0  0.88558  0.71270  0.95440  1.0000
  H   H1492     1.0  0.82839  0.87163  0.56655  1.0000
  C   C1495     1.0  0.89065  0.85545  0.74093  1.0000
  C   C1496     1.0  0.79378  0.64016  0.83258  1.0000
  H   H1493     1.0  0.83318  0.89214  0.52222  1.0000
  C   C1497     1.0  0.98582  0.56011  0.72878  1.0000
  C   C1498     1.0  0.90974  0.66059  0.53862  1.0000
  C   C1499     1.0  0.90264  0.00336  0.76853  1.0000
  H   H1494     1.0  0.00572  0.92929  0.65306  1.0000
  H   H1495     1.0  0.88204  0.92109  0.92098  1.0000
  C   C1500     1.0  0.76410  0.67802  0.85160  1.0000
  H   H1496     1.0  0.94477  0.52156  0.68226  1.0000
  H   H1497     1.0  0.80767  0.62527  0.91953  1.0000
  H   H1498     1.0  0.90427  0.86043  0.73768  1.0000
  N   N125      1.0  0.79662  0.80418  0.89063  1.0000
  C   C1501     1.0  0.76789  0.85649  0.90771  1.0000
  H   H1499     1.0  0.90496  0.87014  0.93218  1.0000
  H   H1500     1.0  0.94316  0.54038  0.65665  1.0000
  C   C1502     1.0  0.77699  0.85243  0.87977  1.0000
  C   C1503     1.0  0.80633  0.80230  0.86075  1.0000
  C   C1504     1.0  0.86633  0.89505  0.71137  1.0000
  H   H1501     1.0  0.80525  0.64446  0.78653  1.0000
  C   C1505     1.0  0.87800  0.88075  0.71338  1.0000
  H   H1502     1.0  0.96004  0.52387  0.65002  1.0000
  N   N126      1.0  0.87800  0.87012  0.73942  1.0000
  C   C1506     1.0  0.85461  0.88745  0.76260  1.0000
  H   H1503     1.0  0.87453  0.68449  0.56442  1.0000
  C   C1507     1.0  0.82516  0.62322  0.84743  1.0000
  C   C1508     1.0  0.88097  0.73825  0.97492  1.0000
  N   N127      1.0  0.92415  0.64761  0.76005  1.0000
  C   C1509     1.0  0.91482  0.65040  0.78737  1.0000
  C   C1510     1.0  0.93643  0.63434  0.75824  1.0000
  C   C1511     1.0  0.91780  0.63988  0.81395  1.0000
  C   C1512     1.0  0.93966  0.62348  0.78425  1.0000
  C   C1513     1.0  0.93022  0.62626  0.81224  1.0000
  C   C1514     1.0  0.92020  0.65827  0.73209  1.0000
  H   H1504     1.0  0.90460  0.66047  0.78845  1.0000
  H   H1505     1.0  0.94371  0.63196  0.73652  1.0000
  H   H1506     1.0  0.91005  0.64189  0.83533  1.0000
  H   H1507     1.0  0.94928  0.61284  0.78240  1.0000
  H   H1508     1.0  0.93233  0.61772  0.83242  1.0000
  H   H1509     1.0  0.93135  0.65810  0.71490  1.0000
  H   H1510     1.0  0.90838  0.65298  0.72022  1.0000
  H   H1511     1.0  0.91754  0.67217  0.73868  1.0000
  C   C1515     1.0  0.00339  0.60276  0.72076  1.0000
  H   H1512     1.0  0.89733  0.99921  0.79109  1.0000
  H   H1513     1.0  0.86631  0.86477  0.78444  1.0000
  H   H1514     1.0  0.78607  0.63403  0.88017  1.0000
  H   H1515     1.0  0.94387  0.54572  0.72346  1.0000
  C   C1516     1.0  0.96824  0.55736  0.73705  1.0000
  C   C1517     1.0  0.76724  0.84952  0.85220  1.0000
  H   H1516     1.0  0.76788  0.68519  0.83058  1.0000
  H   H1517     1.0  0.00593  0.55620  0.69320  1.0000
  C   C1518     1.0  0.88463  0.67961  0.54833  1.0000
  H   H1518     1.0  0.88788  0.84580  0.72205  1.0000
  H   H1519     1.0  0.77411  0.84644  0.83040  1.0000
  C   C1519     1.0  0.77039  0.81311  0.91878  1.0000
  C   C1520     1.0  0.82291  0.63024  0.81719  1.0000
  H   H1520     1.0  0.80309  0.80161  0.96936  1.0000
  C   C1521     1.0  0.80714  0.63886  0.80983  1.0000
  H   H1521     1.0  0.89012  0.84856  0.76408  1.0000
  C   C1522     1.0  0.81904  0.87219  0.54734  1.0000
  H   H1522     1.0  0.81129  0.81537  0.85320  1.0000
  C   C1523     1.0  0.80499  0.80106  0.91855  1.0000
  C   C1524     1.0  0.91422  0.90128  0.87733  1.0000
  H   H1523     1.0  0.96282  0.56300  0.75856  1.0000
  H   H1524     1.0  0.84579  0.89013  0.78234  1.0000
  C   C1525     1.0  0.77955  0.81013  0.89047  1.0000
  C   C1526     1.0  0.91040  0.51540  0.78532  1.0000
  C   C1527     1.0  0.82176  0.88371  0.52206  1.0000
  C   C1528     1.0  0.99242  0.55354  0.70030  1.0000
  C   C1529     1.0  0.81460  0.61724  0.90120  1.0000
  C   C1530     1.0  0.89142  0.91104  0.91350  1.0000
  C   C1531     1.0  0.87970  0.71999  0.97387  1.0000
  H   H1525     1.0  0.00219  0.60743  0.74477  1.0000
  C   C1532     1.0  0.90432  0.88270  0.92001  1.0000
  N   N128      1.0  0.81039  0.88410  0.49720  1.0000
  H   H1526     1.0  0.92224  0.90335  0.85633  1.0000
  H   H1527     1.0  0.87978  0.87842  0.96270  1.0000
  H   H1528     1.0  0.94675  0.99719  0.74903  1.0000
  C   C1533     1.0  0.77886  0.81004  0.94737  1.0000
  H   H1529     1.0  0.82852  0.75972  0.98669  1.0000
  H   H1530     1.0  0.82880  0.61677  0.90759  1.0000
  H   H1531     1.0  0.87388  0.71037  0.51578  1.0000
  C   C1534     1.0  0.00676  0.92399  0.67668  1.0000
  H   H1532     1.0  0.00607  0.89583  0.62248  1.0000
  H   H1533     1.0  0.93922  0.00552  0.80396  1.0000
  H   H1534     1.0  0.85781  0.69296  0.51446  1.0000
  H   H1535     1.0  0.77208  0.81267  0.96951  1.0000
  C   C1535     1.0  0.79561  0.87396  0.49764  1.0000
  C   C1536     1.0  0.87112  0.69710  0.50634  1.0000
  H   H1536     1.0  0.86910  0.69707  0.99633  1.0000
