data_image0
_chemical_formula_structural       Fe2S2FeSCSCNHSH2CHCHNHC3SH4CHC2HC4HCNCHCFeH2SC4HCSHCH3CHCHC2H4C3H2CHCSCH2CHFeSCFeS2FeSCS2HSH3FeCFeSCH2C6H4C2HC2SFeSC3H3CHNC6H3CHCH2NCHCHCSHCH3CFeCSNH2SCH2SCHFeSCFeS2FeSFeS4FeSC6H4CFeHC2HC6H3CHCHCHC3H2CSNC3NH2SNH4CH2C3H3C3H5FeH3C2FeS2FeSHFeSFeS4C6H4C2HCHCHNH2CHCH2FeCH2CHNHCSC2HSCHCHC4HCHNC2H2C4H5C2H2FeH2CHCH2SCHC2FeHSCH4SFeS2FeSFeSFeS3C6H5CH2CH3CHC2HNCHCHCHNC3SCSCSH2CH2Fe2S2FeSHSHC2HC2HC3H5C2H2C6HCH5C2HC6HCH4C2SH2SHNHCNHCH2SC2HNHC3HCHCHS2FeSFeS2FeSFeHS2FeHSFeSC8H4C6H6C2HFeHNH2NSHCHCHCH2C2HCHC2H2NSHCH3C2HSH3FeS2FeSHFeSFeS3H5C7HCH2CH4CH2C4H2CHC2NHC2H2CHC2HCSC5H3CHCHCSNC2H4C2FeS2FeS2FeSFeS4HC2H3C7H4C4NH3C2H3C2H3CH2CH2CNH5C2HFeC4HSH3CFeS2FeSHFeSFeS3HFeS2C2HC6H4NCH3SHCH2CSHC5HFeH2C2HC2NH2FeS2FeS2FeSFeS3H3C8HCH3C3HCH3CHC2H2CSHNC3NC2HCHCH2C3HC4H4C2H4CH2C2H2C2HNHCHC3H3SFeS2FeSFeSFeS3FeS2CHC2H2C6H4C6H4C2HSNC2H4C2H2CH4NC4H3SH2CNH2C3HCH2CH3C4HFe
_chemical_formula_sum              "Fe64 S128 C384 N32 H384"
_cell_length_a       40.5177
_cell_length_b       40.3553
_cell_length_c       36.412
_cell_angle_alpha    89.7158
_cell_angle_beta     90.3904
_cell_angle_gamma    89.8014

_space_group_name_H-M_alt    "P 1"
_space_group_IT_number       1

loop_
  _space_group_symop_operation_xyz
  'x, y, z'

loop_
  _atom_site_type_symbol
  _atom_site_label
  _atom_site_symmetry_multiplicity
  _atom_site_fract_x
  _atom_site_fract_y
  _atom_site_fract_z
  _atom_site_occupancy
  Fe  Fe1       1.0  0.45942  0.14695  0.37519  1.0000
  Fe  Fe2       1.0  0.43615  0.10975  0.30558  1.0000
  S   S1        1.0  0.44781  0.15305  0.26849  1.0000
  S   S2        1.0  0.43065  0.05684  0.28430  1.0000
  Fe  Fe3       1.0  0.42417  0.18492  0.31257  1.0000
  S   S3        1.0  0.39668  0.23460  0.30295  1.0000
  C   C1        1.0  0.10530  0.26553  0.29653  1.0000
  S   S4        1.0  0.40951  0.14109  0.34771  1.0000
  C   C2        1.0  0.40800  0.99784  0.09797  1.0000
  N   N1        1.0  0.37763  0.01006  0.10713  1.0000
  H   H1        1.0  0.27571  0.23384  0.32494  1.0000
  S   S5        1.0  0.04519  0.28646  0.16770  1.0000
  H   H2        1.0  0.33066  0.20682  0.31829  1.0000
  H   H3        1.0  0.39608  0.17216  0.43462  1.0000
  C   C3        1.0  0.37500  0.25800  0.39352  1.0000
  H   H4        1.0  0.08064  0.26539  0.30796  1.0000
  C   C4        1.0  0.39885  0.03777  0.25830  1.0000
  H   H5        1.0  0.20179  0.26304  0.22126  1.0000
  N   N2        1.0  0.40724  0.24861  0.39828  1.0000
  H   H6        1.0  0.35053  0.04244  0.14204  1.0000
  C   C5        1.0  0.34514  0.03752  0.22778  1.0000
  C   C6        1.0  0.36935  0.05400  0.24893  1.0000
  C   C7        1.0  0.35031  0.00484  0.21571  1.0000
  S   S6        1.0  0.47281  0.19191  0.34227  1.0000
  H   H7        1.0  0.32243  0.05023  0.22060  1.0000
  H   H8        1.0  0.36516  0.07914  0.25804  1.0000
  H   H9        1.0  0.37371  0.30189  0.29677  1.0000
  H   H10       1.0  0.14597  0.24800  0.21793  1.0000
  C   C8        1.0  0.20106  0.27135  0.25026  1.0000
  H   H11       1.0  0.36892  0.28163  0.38079  1.0000
  C   C9        1.0  0.40380  0.00507  0.24641  1.0000
  C   C10       1.0  0.09329  0.31834  0.20727  1.0000
  H   H12       1.0  0.09012  0.24501  0.24454  1.0000
  C   C11       1.0  0.35239  0.28690  0.30312  1.0000
  C   C12       1.0  0.35624  0.25231  0.30706  1.0000
  C   C13       1.0  0.32828  0.23339  0.31515  1.0000
  C   C14       1.0  0.29708  0.24887  0.31897  1.0000
  H   H13       1.0  0.32385  0.24415  0.39904  1.0000
  C   C15       1.0  0.16295  0.27980  0.30106  1.0000
  N   N3        1.0  0.16793  0.26893  0.26601  1.0000
  C   C16       1.0  0.14230  0.25613  0.24595  1.0000
  H   H14       1.0  0.18327  0.28993  0.31689  1.0000
  C   C17       1.0  0.43617  0.00710  0.11779  1.0000
  Fe  Fe4       1.0  0.99171  0.29328  0.15031  1.0000
  H   H15       1.0  0.12748  0.28848  0.34399  1.0000
  H   H16       1.0  0.43966  0.26436  0.35647  1.0000
  S   S7        1.0  0.46361  0.14738  0.43777  1.0000
  C   C18       1.0  0.13157  0.27851  0.31675  1.0000
  C   C19       1.0  0.37460  0.03272  0.13474  1.0000
  C   C20       1.0  0.34935  0.23680  0.40369  1.0000
  C   C21       1.0  0.29327  0.28350  0.31518  1.0000
  H   H17       1.0  0.39968  0.06014  0.17738  1.0000
  C   C22       1.0  0.41481  0.21821  0.41288  1.0000
  S   S8        1.0  0.25292  0.30132  0.31989  1.0000
  H   H18       1.0  0.20972  0.29748  0.25117  1.0000
  C   C23       1.0  0.11065  0.25411  0.26095  1.0000
  H   H19       1.0  0.44034  0.21052  0.41617  1.0000
  H   H20       1.0  0.02382  0.30195  0.03811  1.0000
  H   H21       1.0  0.21876  0.25599  0.26656  1.0000
  C   C24       1.0  0.43319  0.02959  0.14659  1.0000
  H   H22       1.0  0.45649  0.26693  0.40242  1.0000
  C   C25       1.0  0.34841  0.99983  0.08618  1.0000
  H   H23       1.0  0.42644  0.29681  0.38700  1.0000
  C   C26       1.0  0.32127  0.30242  0.30738  1.0000
  C   C27       1.0  0.43379  0.27031  0.38550  1.0000
  H   H24       1.0  0.33729  0.18878  0.42600  1.0000
  H   H25       1.0  0.46003  0.99666  0.11092  1.0000
  H   H26       1.0  0.02188  0.19741  0.01278  1.0000
  H   H27       1.0  0.32568  0.00161  0.10304  1.0000
  C   C28       1.0  0.40230  0.04279  0.15489  1.0000
  C   C29       1.0  0.38981  0.19639  0.42339  1.0000
  C   C30       1.0  0.35688  0.20574  0.41860  1.0000
  H   H28       1.0  0.01404  0.30757  0.23503  1.0000
  H   H29       1.0  0.10917  0.31324  0.18419  1.0000
  C   C31       1.0  0.06000  0.30874  0.20585  1.0000
  H   H30       1.0  0.45468  0.03674  0.16259  1.0000
  C   C32       1.0  0.99665  0.20613  0.01544  1.0000
  S   S9        1.0  0.48436  0.11208  0.33675  1.0000
  C   C33       1.0  0.03960  0.31527  0.23574  1.0000
  H   H31       1.0  0.34561  0.01536  0.06108  1.0000
  H   H32       1.0  0.47374  0.99827  0.30559  1.0000
  C   C34       1.0  0.02263  0.30587  0.00871  1.0000
  H   H33       1.0  0.42639  0.99219  0.25363  1.0000
  Fe  Fe5       1.0  0.33600  0.03378  0.86327  1.0000
  S   S10       1.0  0.29641  0.03902  0.81977  1.0000
  C   C35       1.0  0.42775  0.04303  0.72413  1.0000
  Fe  Fe6       1.0  0.37965  0.08424  0.82294  1.0000
  S   S11       1.0  0.34253  0.09348  0.77806  1.0000
  S   S12       1.0  0.42963  0.10930  0.82406  1.0000
  Fe  Fe7       1.0  0.30440  0.09416  0.82298  1.0000
  S   S13       1.0  0.26273  0.13032  0.83839  1.0000
  C   C36       1.0  0.02020  0.31576  0.93232  1.0000
  S   S14       1.0  0.34239  0.08884  0.86828  1.0000
  S   S15       1.0  0.37694  0.02857  0.82222  1.0000
  H   H34       1.0  0.35333  0.20115  0.75592  1.0000
  S   S16       1.0  0.08447  0.25969  0.82534  1.0000
  H   H35       1.0  0.05519  0.17935  0.78643  1.0000
  H   H36       1.0  0.39526  0.17212  0.79473  1.0000
  H   H37       1.0  0.30535  0.15446  0.89612  1.0000
  Fe  Fe8       1.0  0.05500  0.29358  0.78814  1.0000
  C   C37       1.0  0.48132  0.13093  0.78178  1.0000
  Fe  Fe9       1.0  0.12944  0.27787  0.79532  1.0000
  S   S17       1.0  0.17037  0.24513  0.77082  1.0000
  C   C38       1.0  0.41560  0.05062  0.68916  1.0000
  H   H38       1.0  0.42865  0.14071  0.69326  1.0000
  H   H39       1.0  0.12561  0.19081  0.80034  1.0000
  C   C39       1.0  0.23701  0.16170  0.81850  1.0000
  C   C40       1.0  0.21446  0.17842  0.84118  1.0000
  C   C41       1.0  0.19419  0.20420  0.82729  1.0000
  C   C42       1.0  0.19623  0.21368  0.79038  1.0000
  C   C43       1.0  0.21883  0.19700  0.76767  1.0000
  C   C44       1.0  0.23912  0.17120  0.78158  1.0000
  H   H40       1.0  0.21263  0.17141  0.86982  1.0000
  H   H41       1.0  0.17701  0.21672  0.84519  1.0000
  H   H42       1.0  0.22060  0.20403  0.73904  1.0000
  H   H43       1.0  0.25632  0.15867  0.76374  1.0000
  C   C45       1.0  0.37161  0.17915  0.80615  1.0000
  C   C46       1.0  0.31787  0.20446  0.79968  1.0000
  H   H44       1.0  0.42736  0.07087  0.63592  1.0000
  C   C47       1.0  0.32664  0.17180  0.89553  1.0000
  C   C48       1.0  0.44347  0.13794  0.71794  1.0000
  S   S18       1.0  0.09880  0.30757  0.75440  1.0000
  Fe  Fe10      1.0  0.33811  0.03768  0.77922  1.0000
  S   S19       1.0  0.08650  0.29955  0.92292  1.0000
  C   C49       1.0  0.42889  0.12601  0.75028  1.0000
  C   C50       1.0  0.44767  0.12269  0.78246  1.0000
  C   C51       1.0  0.31155  0.19675  0.83646  1.0000
  H   H45       1.0  0.32000  0.19450  0.91097  1.0000
  H   H46       1.0  0.34765  0.15946  0.90990  1.0000
  H   H47       1.0  0.40302  0.11982  0.75030  1.0000
  C   C52       1.0  0.46963  0.07052  0.67243  1.0000
  H   H48       1.0  0.47494  0.15042  0.51556  1.0000
  N   N4        1.0  0.09544  0.19439  0.75284  1.0000
  C   C53       1.0  0.06292  0.19347  0.76260  1.0000
  C   C54       1.0  0.10535  0.21351  0.72378  1.0000
  C   C55       1.0  0.03925  0.21136  0.74255  1.0000
  C   C56       1.0  0.08237  0.23212  0.70348  1.0000
  C   C57       1.0  0.04910  0.23095  0.71295  1.0000
  C   C58       1.0  0.11986  0.17635  0.77519  1.0000
  H   H49       1.0  0.38990  0.04578  0.68242  1.0000
  H   H50       1.0  0.13124  0.21501  0.71658  1.0000
  H   H51       1.0  0.11055  0.15154  0.78325  1.0000
  C   C59       1.0  0.05000  0.30596  0.94881  1.0000
  H   H52       1.0  0.07386  0.29331  0.00010  1.0000
  C   C60       1.0  0.43661  0.06454  0.66310  1.0000
  H   H53       1.0  0.14334  0.17258  0.76007  1.0000
  H   H54       1.0  0.09043  0.24795  0.68113  1.0000
  N   N5        1.0  0.33454  0.18025  0.85737  1.0000
  C   C61       1.0  0.36431  0.17143  0.84269  1.0000
  H   H55       1.0  0.46996  0.04367  0.75997  1.0000
  C   C62       1.0  0.05096  0.30091  0.98708  1.0000
  H   H56       1.0  0.01353  0.21120  0.75077  1.0000
  C   C63       1.0  0.34813  0.19555  0.78448  1.0000
  S   S20       1.0  0.00366  0.28135  0.76742  1.0000
  H   H57       1.0  0.29914  0.21682  0.78306  1.0000
  C   C64       1.0  0.46089  0.04931  0.73255  1.0000
  H   H58       1.0  0.38257  0.15804  0.85897  1.0000
  H   H59       1.0  0.28773  0.20320  0.84794  1.0000
  H   H60       1.0  0.03103  0.24592  0.69814  1.0000
  C   C65       1.0  0.00682  0.32008  0.70468  1.0000
  Fe  Fe11      1.0  0.09068  0.30496  0.86068  1.0000
  C   C66       1.0  0.47718  0.14573  0.71707  1.0000
  S   S21       1.0  0.31999  0.99967  0.91012  1.0000
  N   N6        1.0  0.48133  0.06301  0.70684  1.0000
  H   H61       1.0  0.41144  0.03254  0.74460  1.0000
  H   H62       1.0  0.00024  0.24122  0.97070  1.0000
  S   S22       1.0  0.33812  0.00853  0.72588  1.0000
  C   C67       1.0  0.99297  0.31607  0.99225  1.0000
  H   H63       1.0  0.03334  0.31971  0.70822  1.0000
  H   H64       1.0  0.01906  0.31969  0.90293  1.0000
  S   S23       1.0  0.13763  0.32171  0.83259  1.0000
  C   C68       1.0  0.99188  0.32082  0.95396  1.0000
  H   H65       1.0  0.48571  0.08185  0.65222  1.0000
  Fe  Fe12      1.0  0.22718  0.35256  0.32368  1.0000
  S   S24       1.0  0.18408  0.35023  0.36259  1.0000
  C   C69       1.0  0.05343  0.39551  0.17635  1.0000
  Fe  Fe13      1.0  0.20768  0.42395  0.30180  1.0000
  S   S25       1.0  0.16399  0.42537  0.33912  1.0000
  S   S26       1.0  0.21797  0.47238  0.27163  1.0000
  Fe  Fe14      1.0  0.19761  0.40163  0.38082  1.0000
  S   S27       1.0  0.19272  0.41211  0.44221  1.0000
  Fe  Fe15      1.0  0.15408  0.37428  0.31791  1.0000
  S   S28       1.0  0.10061  0.35964  0.30876  1.0000
  S   S29       1.0  0.24277  0.40286  0.34501  1.0000
  S   S30       1.0  0.19563  0.37397  0.27744  1.0000
  S   S31       1.0  0.06814  0.61675  0.13416  1.0000
  Fe  Fe16      1.0  0.12006  0.60007  0.14670  1.0000
  S   S32       1.0  0.12851  0.54449  0.15216  1.0000
  C   C70       1.0  0.18757  0.49162  0.24346  1.0000
  C   C71       1.0  0.18447  0.52634  0.24362  1.0000
  C   C72       1.0  0.16498  0.54289  0.21702  1.0000
  C   C73       1.0  0.14903  0.52480  0.18948  1.0000
  C   C74       1.0  0.15109  0.49004  0.19017  1.0000
  C   C75       1.0  0.17008  0.47348  0.21716  1.0000
  H   H66       1.0  0.19797  0.54057  0.26383  1.0000
  H   H67       1.0  0.16365  0.56966  0.21683  1.0000
  H   H68       1.0  0.13889  0.47587  0.16892  1.0000
  H   H69       1.0  0.17271  0.44679  0.21638  1.0000
  C   C76       1.0  0.00553  0.64204  0.22989  1.0000
  Fe  Fe17      1.0  0.07762  0.65489  0.17759  1.0000
  H   H70       1.0  0.20532  0.62765  0.14307  1.0000
  C   C77       1.0  0.02440  0.39151  0.19645  1.0000
  C   C78       1.0  0.01943  0.53635  0.21751  1.0000
  H   H71       1.0  0.22242  0.52297  0.15222  1.0000
  C   C79       1.0  0.22685  0.54787  0.16217  1.0000
  C   C80       1.0  0.05084  0.54587  0.20614  1.0000
  C   C81       1.0  0.19921  0.45130  0.46283  1.0000
  C   C82       1.0  0.22112  0.47439  0.44800  1.0000
  C   C83       1.0  0.02073  0.62730  0.02111  1.0000
  C   C84       1.0  0.07595  0.60303  0.28201  1.0000
  H   H72       1.0  0.23259  0.46955  0.42181  1.0000
  H   H73       1.0  0.09356  0.57497  0.21871  1.0000
  H   H74       1.0  0.19578  0.57034  0.12038  1.0000
  C   C85       1.0  0.99291  0.39410  0.25345  1.0000
  H   H75       1.0  0.25048  0.50100  0.20410  1.0000
  C   C86       1.0  0.21663  0.60664  0.15696  1.0000
  H   H76       1.0  0.31891  0.32899  0.30416  1.0000
  C   C87       1.0  0.22915  0.50327  0.46773  1.0000
  H   H77       1.0  0.02483  0.61548  0.04750  1.0000
  C   C88       1.0  0.26238  0.52498  0.21113  1.0000
  C   C89       1.0  0.23611  0.61170  0.18810  1.0000
  C   C90       1.0  0.08021  0.41655  0.23080  1.0000
  H   H78       1.0  0.28874  0.52385  0.20315  1.0000
  H   H79       1.0  0.24660  0.52068  0.45631  1.0000
  C   C91       1.0  0.25075  0.58442  0.20576  1.0000
  S   S33       1.0  0.12840  0.63612  0.19209  1.0000
  N   N7        1.0  0.05647  0.58004  0.25967  1.0000
  C   C92       1.0  0.02605  0.57015  0.27152  1.0000
  C   C93       1.0  0.06922  0.56768  0.22782  1.0000
  C   C94       1.0  0.08582  0.34029  0.26865  1.0000
  N   N8        1.0  0.24594  0.55302  0.19278  1.0000
  H   H80       1.0  0.09036  0.58918  0.30312  1.0000
  H   H81       1.0  0.10436  0.41079  0.17865  1.0000
  S   S34       1.0  0.14257  0.63344  0.10399  1.0000
  N   N9        1.0  0.02356  0.39908  0.23299  1.0000
  H   H82       1.0  0.06087  0.53683  0.18047  1.0000
  H   H83       1.0  0.01584  0.58006  0.29667  1.0000
  H   H84       1.0  0.26586  0.58850  0.23001  1.0000
  H   H85       1.0  0.05964  0.62150  0.29552  1.0000
  C   C95       1.0  0.05082  0.41191  0.25014  1.0000
  H   H86       1.0  0.26063  0.52726  0.24151  1.0000
  H   H87       1.0  0.00267  0.38164  0.18290  1.0000
  C   C96       1.0  0.08150  0.40809  0.19372  1.0000
  C   C97       1.0  0.10615  0.33437  0.23848  1.0000
  C   C98       1.0  0.05258  0.33067  0.26716  1.0000
  H   H88       1.0  0.05420  0.38827  0.14768  1.0000
  H   H89       1.0  0.10212  0.42553  0.24489  1.0000
  H   H90       1.0  0.03682  0.33500  0.29053  1.0000
  C   C99       1.0  0.21172  0.57457  0.14398  1.0000
  C   C100      1.0  0.00701  0.54830  0.25057  1.0000
  C   C101      1.0  0.18457  0.45799  0.49694  1.0000
  H   H91       1.0  0.09305  0.61773  0.26465  1.0000
  H   H92       1.0  0.05048  0.41737  0.27929  1.0000
  H   H93       1.0  0.00632  0.62164  0.17548  1.0000
  H   H94       1.0  0.00459  0.52011  0.20055  1.0000
  H   H95       1.0  0.23961  0.63671  0.19837  1.0000
  Fe  Fe18      1.0  0.09103  0.65355  0.09545  1.0000
  H   H96       1.0  0.13177  0.34175  0.23938  1.0000
  H   H97       1.0  0.08834  0.59619  0.00956  1.0000
  H   H98       1.0  0.99782  0.39077  0.28331  1.0000
  C   C102      1.0  0.04056  0.65399  0.01053  1.0000
  C   C103      1.0  0.99327  0.62269  0.20120  1.0000
  Fe  Fe19      1.0  0.21515  0.52635  0.66476  1.0000
  S   S35       1.0  0.17676  0.53042  0.62039  1.0000
  S   S36       1.0  0.22291  0.47730  0.69416  1.0000
  Fe  Fe20      1.0  0.24125  0.59746  0.65187  1.0000
  S   S37       1.0  0.20419  0.60612  0.60651  1.0000
  H   H99       1.0  0.02887  0.39512  0.71751  1.0000
  Fe  Fe21      1.0  0.16766  0.58121  0.64377  1.0000
  S   S38       1.0  0.11486  0.59946  0.64918  1.0000
  Fe  Fe22      1.0  0.21665  0.55452  0.58744  1.0000
  S   S39       1.0  0.22885  0.54439  0.52764  1.0000
  S   S40       1.0  0.20343  0.57548  0.69055  1.0000
  S   S41       1.0  0.25627  0.54739  0.63047  1.0000
  S   S42       1.0  0.10305  0.40260  0.77035  1.0000
  C   C104      1.0  0.13654  0.42195  0.74786  1.0000
  C   C105      1.0  0.16847  0.40871  0.74907  1.0000
  C   C106      1.0  0.19470  0.42582  0.73234  1.0000
  C   C107      1.0  0.18920  0.45615  0.71413  1.0000
  C   C108      1.0  0.15713  0.46900  0.71216  1.0000
  C   C109      1.0  0.13095  0.45200  0.72908  1.0000
  H   H100      1.0  0.17307  0.38561  0.76347  1.0000
  H   H101      1.0  0.21942  0.41568  0.73391  1.0000
  H   H102      1.0  0.15259  0.49205  0.69772  1.0000
  H   H103      1.0  0.10623  0.46212  0.72766  1.0000
  C   C110      1.0  0.09866  0.61440  0.69089  1.0000
  C   C111      1.0  0.08445  0.64977  0.89267  1.0000
  H   H104      1.0  0.02457  0.63753  0.72746  1.0000
  C   C112      1.0  0.22436  0.40582  0.54758  1.0000
  H   H105      1.0  0.11640  0.51614  0.76367  1.0000
  C   C113      1.0  0.06468  0.62092  0.69319  1.0000
  H   H106      1.0  0.25895  0.42978  0.51200  1.0000
  N   N10       1.0  0.07898  0.54365  0.73597  1.0000
  H   H107      1.0  0.30342  0.64220  0.60181  1.0000
  H   H108      1.0  0.04891  0.61663  0.66960  1.0000
  C   C114      1.0  0.05083  0.63275  0.72595  1.0000
  H   H109      1.0  0.19044  0.38821  0.58862  1.0000
  C   C115      1.0  0.28152  0.47822  0.55501  1.0000
  H   H110      1.0  0.09332  0.52912  0.68205  1.0000
  H   H111      1.0  0.30631  0.46922  0.56356  1.0000
  Fe  Fe23      1.0  0.10414  0.35001  0.79359  1.0000
  C   C116      1.0  0.11254  0.54101  0.75107  1.0000
  H   H112      1.0  0.03087  0.36879  0.75680  1.0000
  H   H113      1.0  0.20709  0.43067  0.63453  1.0000
  C   C117      1.0  0.01510  0.54776  0.70776  1.0000
  H   H114      1.0  0.11697  0.56030  0.77220  1.0000
  N   N11       1.0  0.25643  0.45352  0.56422  1.0000
  H   H115      1.0  0.14511  0.61566  0.71990  1.0000
  C   C118      1.0  0.24235  0.45363  0.59828  1.0000
  S   S43       1.0  0.05837  0.33724  0.82544  1.0000
  C   C119      1.0  0.21849  0.43013  0.60760  1.0000
  C   C120      1.0  0.06305  0.60081  0.92234  1.0000
  H   H116      1.0  0.05808  0.55877  0.78691  1.0000
  S   S44       1.0  0.27443  0.63836  0.67570  1.0000
  C   C121      1.0  0.99617  0.61526  0.99696  1.0000
  H   H117      1.0  0.13136  0.54486  0.72936  1.0000
  C   C122      1.0  0.06347  0.62245  0.89220  1.0000
  H   H118      1.0  0.04603  0.58010  0.92207  1.0000
  C   C123      1.0  0.24818  0.42968  0.53922  1.0000
  C   C124      1.0  0.08253  0.58322  0.98338  1.0000
  C   C125      1.0  0.02124  0.55481  0.74460  1.0000
  C   C126      1.0  0.99128  0.62967  0.96207  1.0000
  H   H119      1.0  0.03682  0.53313  0.65635  1.0000
  C   C127      1.0  0.10510  0.63281  0.75397  1.0000
  H   H120      1.0  0.02901  0.41298  0.76300  1.0000
  N   N12       1.0  0.08288  0.60641  0.95225  1.0000
  C   C128      1.0  0.10390  0.63290  0.95274  1.0000
  C   C129      1.0  0.19277  0.48676  0.51680  1.0000
  H   H121      1.0  0.13798  0.64507  0.58765  1.0000
  H   H122      1.0  0.05766  0.57210  0.98682  1.0000
  C   C130      1.0  0.07311  0.53602  0.69992  1.0000
  C   C131      1.0  0.05350  0.55261  0.75837  1.0000
  C   C132      1.0  0.04115  0.53822  0.68520  1.0000
  C   C133      1.0  0.11887  0.62035  0.72142  1.0000
  H   H123      1.0  0.18187  0.49120  0.54336  1.0000
  H   H124      1.0  0.00810  0.35074  0.65593  1.0000
  H   H125      1.0  0.04719  0.61849  0.86887  1.0000
  H   H126      1.0  0.12089  0.63765  0.77742  1.0000
  H   H127      1.0  0.24927  0.47211  0.61844  1.0000
  C   C134      1.0  0.20933  0.40622  0.58195  1.0000
  C   C135      1.0  0.07102  0.63886  0.75643  1.0000
  H   H128      1.0  0.11921  0.63767  0.97673  1.0000
  H   H129      1.0  0.16741  0.44038  0.50852  1.0000
  Fe  Fe24      1.0  0.99948  0.65109  0.80798  1.0000
  H   H130      1.0  0.28143  0.48376  0.52504  1.0000
  H   H131      1.0  0.27632  0.50219  0.56877  1.0000
  C   C136      1.0  0.01975  0.39214  0.74604  1.0000
  H   H132      1.0  0.21686  0.38796  0.52692  1.0000
  C   C137      1.0  0.99249  0.33760  0.67505  1.0000
  H   H133      1.0  0.10092  0.56319  0.97910  1.0000
  H   H134      1.0  0.00109  0.56245  0.76215  1.0000
  S   S45       1.0  0.05461  0.65419  0.79783  1.0000
  C   C138      1.0  0.10486  0.65507  0.92309  1.0000
  H   H135      1.0  0.99018  0.55005  0.69683  1.0000
  C   C139      1.0  0.01037  0.65702  0.95211  1.0000
  C   C140      1.0  0.21547  0.50933  0.50246  1.0000
  Fe  Fe25      1.0  0.14753  0.67155  0.14896  1.0000
  H   H136      1.0  0.38399  0.96349  0.21657  1.0000
  S   S46       1.0  0.19775  0.69568  0.16223  1.0000
  C   C141      1.0  0.46540  0.82869  0.19009  1.0000
  H   H137      1.0  0.44662  0.81541  0.36386  1.0000
  H   H138      1.0  0.21413  0.84312  0.23940  1.0000
  H   H139      1.0  0.46072  0.86243  0.27520  1.0000
  H   H140      1.0  0.24656  0.83049  0.20827  1.0000
  S   S47       1.0  0.09713  0.69360  0.13833  1.0000
  Fe  Fe26      1.0  0.31009  0.86605  0.13585  1.0000
  S   S48       1.0  0.36170  0.85196  0.11829  1.0000
  S   S49       1.0  0.26166  0.83767  0.12508  1.0000
  Fe  Fe27      1.0  0.33372  0.93507  0.16329  1.0000
  S   S50       1.0  0.38582  0.92525  0.14724  1.0000
  Fe  Fe28      1.0  0.36439  0.90422  0.09520  1.0000
  S   S51       1.0  0.38991  0.92165  0.04278  1.0000
  Fe  Fe29      1.0  0.37832  0.87485  0.17196  1.0000
  S   S52       1.0  0.41067  0.85932  0.22036  1.0000
  S   S53       1.0  0.31230  0.91718  0.10982  1.0000
  S   S54       1.0  0.32650  0.88578  0.19075  1.0000
  C   C142      1.0  0.24495  0.79762  0.13507  1.0000
  C   C143      1.0  0.26196  0.77380  0.15601  1.0000
  C   C144      1.0  0.24710  0.74292  0.16400  1.0000
  C   C145      1.0  0.21506  0.73530  0.15130  1.0000
  C   C146      1.0  0.19802  0.75920  0.13052  1.0000
  C   C147      1.0  0.21286  0.79007  0.12254  1.0000
  H   H141      1.0  0.28657  0.77911  0.16598  1.0000
  H   H142      1.0  0.26061  0.72476  0.18010  1.0000
  H   H143      1.0  0.17343  0.75386  0.12046  1.0000
  H   H144      1.0  0.19937  0.80817  0.10631  1.0000
  H   H145      1.0  0.35066  0.97354  0.07771  1.0000
  C   C148      1.0  0.46339  0.79972  0.34857  1.0000
  H   H146      1.0  0.45012  0.77429  0.24315  1.0000
  H   H147      1.0  0.25092  0.96923  0.17168  1.0000
  C   C149      1.0  0.24791  0.89900  0.22343  1.0000
  H   H148      1.0  0.20469  0.83320  0.19245  1.0000
  H   H149      1.0  0.20430  0.87619  0.14897  1.0000
  H   H150      1.0  0.27106  0.94674  0.23124  1.0000
  C   C150      1.0  0.45211  0.84589  0.21981  1.0000
  H   H151      1.0  0.45197  0.73262  0.26168  1.0000
  C   C151      1.0  0.37028  0.94424  0.00664  1.0000
  C   C152      1.0  0.25557  0.93163  0.21358  1.0000
  H   H152      1.0  0.45091  0.82561  0.16527  1.0000
  N   N13       1.0  0.47605  0.76888  0.29407  1.0000
  C   C153      1.0  0.45479  0.78844  0.31349  1.0000
  H   H153      1.0  0.25769  0.88898  0.24899  1.0000
  C   C154      1.0  0.22545  0.92431  0.15687  1.0000
  H   H154      1.0  0.43118  0.79580  0.30164  1.0000
  C   C155      1.0  0.47098  0.84933  0.25203  1.0000
  H   H155      1.0  0.21736  0.93352  0.13025  1.0000
  N   N14       1.0  0.22932  0.87961  0.20060  1.0000
  C   C156      1.0  0.22328  0.84496  0.21080  1.0000
  C   C157      1.0  0.21800  0.89191  0.16773  1.0000
  C   C158      1.0  0.24433  0.94425  0.18002  1.0000
  S   S55       1.0  0.07505  0.66725  0.03688  1.0000
  C   C159      1.0  0.46590  0.75602  0.25813  1.0000
  S   S56       1.0  0.04343  0.66342  0.22592  1.0000
  C   C160      1.0  0.33593  0.94703  0.00425  1.0000
  S   S57       1.0  0.32049  0.98533  0.18725  1.0000
  H   H156      1.0  0.32065  0.93513  0.02463  1.0000
  H   H157      1.0  0.41050  0.98040  0.07558  1.0000
  C   C161      1.0  0.37975  0.98871  0.22526  1.0000
  H   H158      1.0  0.99708  0.65864  0.28527  1.0000
  H   H159      1.0  0.48768  0.75125  0.24042  1.0000
  Fe  Fe30      1.0  0.46326  0.82606  0.58562  1.0000
  Fe  Fe31      1.0  0.43327  0.84089  0.66173  1.0000
  S   S58       1.0  0.43929  0.78759  0.68017  1.0000
  S   S59       1.0  0.41989  0.87485  0.70946  1.0000
  Fe  Fe32      1.0  0.42016  0.77379  0.62409  1.0000
  S   S60       1.0  0.38666  0.73075  0.60598  1.0000
  H   H160      1.0  0.29610  0.93072  0.73196  1.0000
  S   S61       1.0  0.41077  0.82694  0.60691  1.0000
  H   H161      1.0  0.24239  0.69724  0.62807  1.0000
  C   C162      1.0  0.21008  0.69139  0.67433  1.0000
  C   C163      1.0  0.46621  0.68464  0.60024  1.0000
  H   H162      1.0  0.19814  0.68713  0.58226  1.0000
  C   C164      1.0  0.15346  0.67885  0.65915  1.0000
  C   C165      1.0  0.32117  0.96442  0.97473  1.0000
  H   H163      1.0  0.31321  0.69147  0.70549  1.0000
  C   C166      1.0  0.42425  0.68256  0.69135  1.0000
  C   C167      1.0  0.33937  0.68182  0.60421  1.0000
  C   C168      1.0  0.34489  0.70973  0.66241  1.0000
  H   H164      1.0  0.36088  0.85463  0.82036  1.0000
  H   H165      1.0  0.08456  0.66696  0.86962  1.0000
  H   H166      1.0  0.39003  0.98878  0.92934  1.0000
  H   H167      1.0  0.11007  0.67517  0.60629  1.0000
  H   H168      1.0  0.44162  0.70352  0.74227  1.0000
  C   C169      1.0  0.17800  0.68440  0.68560  1.0000
  C   C170      1.0  0.19209  0.68716  0.61124  1.0000
  H   H169      1.0  0.29454  0.96586  0.97282  1.0000
  H   H170      1.0  0.30933  0.96504  0.84261  1.0000
  C   C171      1.0  0.40062  0.91425  0.71042  1.0000
  C   C172      1.0  0.40382  0.93317  0.74253  1.0000
  C   C173      1.0  0.38557  0.96253  0.74710  1.0000
  C   C174      1.0  0.36393  0.97346  0.71951  1.0000
  C   C175      1.0  0.36156  0.95519  0.68680  1.0000
  C   C176      1.0  0.37981  0.92565  0.68223  1.0000
  H   H171      1.0  0.41989  0.92456  0.76444  1.0000
  C   C177      1.0  0.43137  0.67764  0.65424  1.0000
  H   H172      1.0  0.34492  0.96344  0.66522  1.0000
  H   H173      1.0  0.37701  0.91122  0.65744  1.0000
  H   H174      1.0  0.35631  0.72843  0.67941  1.0000
  H   H175      1.0  0.04978  0.68991  0.96787  1.0000
  H   H176      1.0  0.46516  0.65795  0.59310  1.0000
  C   C178      1.0  0.13536  0.67162  0.59526  1.0000
  C   C179      1.0  0.33111  0.90352  0.76562  1.0000
  H   H177      1.0  0.00674  0.66864  0.92562  1.0000
  C   C180      1.0  0.30745  0.92818  0.75891  1.0000
  C   C181      1.0  0.31532  0.94785  0.82078  1.0000
  C   C182      1.0  0.29974  0.95061  0.78661  1.0000
  C   C183      1.0  0.30521  0.66411  0.65551  1.0000
  C   C184      1.0  0.34046  0.97961  0.94747  1.0000
  C   C185      1.0  0.32041  0.68869  0.67712  1.0000
  H   H178      1.0  0.34668  0.67889  0.57588  1.0000
  C   C186      1.0  0.37200  0.87585  0.80546  1.0000
  H   H179      1.0  0.17231  0.68255  0.71461  1.0000
  H   H180      1.0  0.28213  0.97044  0.78137  1.0000
  H   H181      1.0  0.38760  0.97604  0.77245  1.0000
  H   H182      1.0  0.41317  0.66561  0.63686  1.0000
  C   C187      1.0  0.44702  0.69902  0.71358  1.0000
  C   C188      1.0  0.35461  0.70637  0.62580  1.0000
  S   S62       1.0  0.48459  0.84488  0.63884  1.0000
  H   H183      1.0  0.33764  0.88677  0.74356  1.0000
  H   H184      1.0  0.13760  0.68721  0.57017  1.0000
  S   S63       1.0  0.47143  0.77269  0.59989  1.0000
  H   H185      1.0  0.12089  0.67653  0.92404  1.0000
  N   N15       1.0  0.34700  0.90161  0.79888  1.0000
  H   H186      1.0  0.35115  0.92132  0.85313  1.0000
  C   C189      1.0  0.33900  0.92303  0.82651  1.0000
  N   N16       1.0  0.16069  0.68020  0.62252  1.0000
  H   H187      1.0  0.39297  0.88583  0.82179  1.0000
  C   C190      1.0  0.21722  0.69290  0.63694  1.0000
  H   H188      1.0  0.38262  0.86672  0.77922  1.0000
  H   H189      1.0  0.22969  0.69469  0.69447  1.0000
  S   S64       1.0  0.47887  0.84841  0.53055  1.0000
  C   C191      1.0  0.03472  0.66914  0.97624  1.0000
  C   C192      1.0  0.38966  0.95958  0.97951  1.0000
  H   H190      1.0  0.12871  0.67291  0.66811  1.0000
  N   N17       1.0  0.46018  0.68910  0.63958  1.0000
  H   H191      1.0  0.40088  0.67424  0.70246  1.0000
  C   C193      1.0  0.48277  0.70505  0.66126  1.0000
  C   C194      1.0  0.31477  0.66092  0.61885  1.0000
  C   C195      1.0  0.47657  0.71019  0.69855  1.0000
  H   H192      1.0  0.44705  0.69821  0.58401  1.0000
  C   C196      1.0  0.37487  0.97735  0.95015  1.0000
  H   H193      1.0  0.41626  0.95751  0.98105  1.0000
  C   C197      1.0  0.97628  0.19324  0.04275  1.0000
  H   H194      1.0  0.62378  0.15566  0.12788  1.0000
  S   S65       1.0  0.96880  0.26353  0.10497  1.0000
  S   S66       1.0  0.54709  0.16132  0.28067  1.0000
  Fe  Fe33      1.0  0.71668  0.02366  0.15714  1.0000
  S   S67       1.0  0.67507  0.02016  0.11667  1.0000
  Fe  Fe34      1.0  0.72874  0.09772  0.14127  1.0000
  S   S68       1.0  0.68671  0.09866  0.10011  1.0000
  S   S69       1.0  0.75199  0.14834  0.15522  1.0000
  Fe  Fe35      1.0  0.65856  0.06833  0.14126  1.0000
  S   S70       1.0  0.60371  0.07204  0.15321  1.0000
  Fe  Fe36      1.0  0.70702  0.05020  0.07948  1.0000
  H   H195      1.0  0.67550  0.00393  0.22621  1.0000
  S   S71       1.0  0.69853  0.07026  0.18401  1.0000
  S   S72       1.0  0.75065  0.05076  0.11819  1.0000
  Fe  Fe37      1.0  0.49462  0.15633  0.30163  1.0000
  H   H196      1.0  0.66090  0.21066  0.24182  1.0000
  S   S73       1.0  0.94598  0.29234  0.18488  1.0000
  Fe  Fe38      1.0  0.92105  0.26646  0.13665  1.0000
  S   S74       1.0  0.89439  0.21603  0.13280  1.0000
  C   C198      1.0  0.67614  0.18542  0.19273  1.0000
  C   C199      1.0  0.57390  0.18002  0.16690  1.0000
  C   C200      1.0  0.85424  0.19817  0.13858  1.0000
  C   C201      1.0  0.82728  0.21607  0.15207  1.0000
  C   C202      1.0  0.79633  0.20045  0.15676  1.0000
  C   C203      1.0  0.79163  0.16681  0.14777  1.0000
  C   C204      1.0  0.81849  0.14904  0.13385  1.0000
  C   C205      1.0  0.84950  0.16458  0.12946  1.0000
  H   H197      1.0  0.83034  0.24184  0.15931  1.0000
  H   H198      1.0  0.77589  0.21455  0.16760  1.0000
  H   H199      1.0  0.81551  0.12319  0.12692  1.0000
  H   H200      1.0  0.87006  0.15033  0.11914  1.0000
  C   C206      1.0  0.56245  0.13254  0.24871  1.0000
  C   C207      1.0  0.59672  0.12909  0.24457  1.0000
  C   C208      1.0  0.60980  0.10953  0.21626  1.0000
  C   C209      1.0  0.58860  0.09330  0.19189  1.0000
  C   C210      1.0  0.55435  0.09533  0.19724  1.0000
  C   C211      1.0  0.54127  0.11481  0.22563  1.0000
  H   H201      1.0  0.61324  0.14230  0.26278  1.0000
  H   H202      1.0  0.63623  0.10788  0.21264  1.0000
  H   H203      1.0  0.53780  0.08270  0.17857  1.0000
  H   H204      1.0  0.51481  0.11722  0.22869  1.0000
  H   H205      1.0  0.60133  0.20731  0.22649  1.0000
  H   H206      1.0  0.53349  0.13824  0.41869  1.0000
  C   C212      1.0  0.53161  0.14012  0.44823  1.0000
  C   C213      1.0  0.56023  0.13768  0.47049  1.0000
  H   H207      1.0  0.92873  0.19602  0.06830  1.0000
  Fe  Fe39      1.0  0.95396  0.31190  0.07973  1.0000
  H   H208      1.0  0.68352  0.15989  0.14179  1.0000
  N   N18       1.0  0.60913  0.18150  0.17620  1.0000
  H   H209      1.0  0.55830  0.18223  0.19183  1.0000
  H   H210      1.0  0.98545  0.17433  0.06152  1.0000
  N   N19       1.0  0.55110  0.02963  0.30772  1.0000
  S   S75       1.0  0.90514  0.31434  0.10906  1.0000
  H   H211      1.0  0.89059  0.23970  0.05746  1.0000
  C   C214      1.0  0.65292  0.19898  0.21653  1.0000
  H   H212      1.0  0.58398  0.13385  0.45779  1.0000
  C   C215      1.0  0.61930  0.19712  0.20759  1.0000
  H   H213      1.0  0.56736  0.20036  0.14754  1.0000
  C   C216      1.0  0.50063  0.14463  0.46431  1.0000
  H   H214      1.0  0.50357  0.05073  0.29653  1.0000
  H   H215      1.0  0.70238  0.18649  0.19915  1.0000
  C   C217      1.0  0.63176  0.16826  0.15266  1.0000
  C   C218      1.0  0.66554  0.17021  0.16049  1.0000
  H   H216      1.0  0.56774  0.15582  0.15410  1.0000
  C   C219      1.0  0.94418  0.20567  0.04650  1.0000
  H   H217      1.0  0.58985  0.06313  0.32155  1.0000
  C   C220      1.0  0.51752  0.02850  0.30344  1.0000
  C   C221      1.0  0.50049  0.99872  0.30823  1.0000
  H   H218      1.0  0.55234  0.08270  0.30716  1.0000
  H   H219      1.0  0.90053  0.27215  0.02602  1.0000
  N   N20       1.0  0.93299  0.23068  0.02410  1.0000
  S   S76       1.0  0.71335  0.04196  0.01798  1.0000
  H   H220      1.0  0.88243  0.23406  0.00905  1.0000
  C   C222      1.0  0.56866  0.06093  0.30216  1.0000
  H   H221      1.0  0.57793  0.06241  0.27357  1.0000
  H   H222      1.0  0.77980  0.01185  0.05354  1.0000
  H   H223      1.0  0.61877  0.99718  0.16515  1.0000
  C   C223      1.0  0.89993  0.24471  0.02931  1.0000
  C   C224      1.0  0.56862  0.00132  0.31542  1.0000
  H   H224      1.0  0.59531  0.00202  0.31828  1.0000
  S   S77       1.0  0.95639  0.32178  0.01819  1.0000
  H   H225      1.0  0.56675  0.99208  0.20002  1.0000
  H   H226      1.0  0.64027  0.18187  0.49754  1.0000
  H   H227      1.0  0.68402  0.18800  0.49998  1.0000
  Fe  Fe40      1.0  0.61838  0.18913  0.65779  1.0000
  S   S78       1.0  0.64075  0.14331  0.63318  1.0000
  S   S79       1.0  0.64402  0.23837  0.67110  1.0000
  Fe  Fe41      1.0  0.54921  0.15646  0.66303  1.0000
  S   S80       1.0  0.56689  0.10925  0.63763  1.0000
  H   H228      1.0  0.66325  0.16470  0.53557  1.0000
  Fe  Fe42      1.0  0.61101  0.11452  0.67502  1.0000
  S   S81       1.0  0.62003  0.07517  0.71919  1.0000
  Fe  Fe43      1.0  0.59400  0.14223  0.59829  1.0000
  S   S82       1.0  0.59490  0.13655  0.53609  1.0000
  S   S83       1.0  0.59172  0.16074  0.70209  1.0000
  S   S84       1.0  0.57335  0.18931  0.62106  1.0000
  H   H229      1.0  0.62612  0.02661  0.77576  1.0000
  H   H230      1.0  0.59471  0.25584  0.58396  1.0000
  H   H231      1.0  0.67690  0.05141  0.67627  1.0000
  H   H232      1.0  0.64131  0.29333  0.59913  1.0000
  H   H233      1.0  0.69177  0.10144  0.72342  1.0000
  C   C225      1.0  0.98452  0.23064  0.99177  1.0000
  C   C226      1.0  0.64871  0.04222  0.72517  1.0000
  C   C227      1.0  0.66127  0.18641  0.51672  1.0000
  C   C228      1.0  0.52732  0.14470  0.52501  1.0000
  C   C229      1.0  0.67660  0.26535  0.56780  1.0000
  C   C230      1.0  0.69748  0.19661  0.72975  1.0000
  C   C231      1.0  0.72160  0.30226  0.66177  1.0000
  H   H234      1.0  0.74219  0.19233  0.69813  1.0000
  C   C232      1.0  0.67448  0.03622  0.70065  1.0000
  H   H235      1.0  0.67184  0.30286  0.68269  1.0000
  H   H236      1.0  0.60438  0.20667  0.54501  1.0000
  C   C233      1.0  0.69369  0.12821  0.72511  1.0000
  H   H237      1.0  0.94330  0.26199  0.97824  1.0000
  H   H238      1.0  0.52534  0.14641  0.55456  1.0000
  H   H239      1.0  0.52209  0.14833  0.74882  1.0000
  H   H240      1.0  0.65800  0.21280  0.78863  1.0000
  C   C234      1.0  0.64658  0.19939  0.76525  1.0000
  H   H241      1.0  0.69724  0.28123  0.57502  1.0000
  H   H242      1.0  0.93678  0.29007  0.74321  1.0000
  C   C235      1.0  0.73933  0.25020  0.63600  1.0000
  C   C236      1.0  0.70818  0.23606  0.64336  1.0000
  C   C237      1.0  0.68361  0.25489  0.66033  1.0000
  C   C238      1.0  0.69058  0.28801  0.66949  1.0000
  H   H243      1.0  0.75823  0.23537  0.62307  1.0000
  H   H244      1.0  0.70324  0.21063  0.63595  1.0000
  C   C239      1.0  0.72199  0.17913  0.71101  1.0000
  H   H245      1.0  0.69887  0.22346  0.73095  1.0000
  C   C240      1.0  0.64518  0.27224  0.58125  1.0000
  C   C241      1.0  0.74631  0.28340  0.64510  1.0000
  N   N21       1.0  0.67173  0.18025  0.74572  1.0000
  H   H246      1.0  0.63493  0.21776  0.74626  1.0000
  C   C242      1.0  0.71440  0.00345  0.95599  1.0000
  C   C243      1.0  0.66967  0.14644  0.74369  1.0000
  H   H247      1.0  0.62658  0.18337  0.77610  1.0000
  H   H248      1.0  0.72089  0.02613  0.94182  1.0000
  C   C244      1.0  0.69748  0.01062  0.70801  1.0000
  H   H249      1.0  0.64923  0.13327  0.75613  1.0000
  C   C245      1.0  0.51630  0.06841  0.71554  1.0000
  C   C246      1.0  0.68154  0.23701  0.54651  1.0000
  H   H250      1.0  0.73864  0.13078  0.69397  1.0000
  C   C247      1.0  0.49614  0.14214  0.74912  1.0000
  S   S85       1.0  0.78622  0.29959  0.63508  1.0000
  C   C248      1.0  0.95243  0.30342  0.72430  1.0000
  C   C249      1.0  0.64585  0.02206  0.75654  1.0000
  C   C250      1.0  0.71997  0.14469  0.70863  1.0000
  C   C251      1.0  0.61906  0.25110  0.57288  1.0000
  C   C252      1.0  0.66858  0.99635  0.76366  1.0000
  H   H251      1.0  0.52524  0.09161  0.70244  1.0000
  H   H252      1.0  0.70628  0.23131  0.53719  1.0000
  H   H253      1.0  0.71756  0.00629  0.68916  1.0000
  C   C253      1.0  0.62476  0.22323  0.55107  1.0000
  H   H254      1.0  0.52043  0.07128  0.74556  1.0000
  C   C254      1.0  0.70819  0.00420  0.99395  1.0000
  H   H255      1.0  0.53143  0.04738  0.70545  1.0000
  C   C255      1.0  0.93810  0.32129  0.69498  1.0000
  S   S86       1.0  0.49448  0.15919  0.67520  1.0000
  N   N22       1.0  0.65567  0.21660  0.53805  1.0000
  C   C256      1.0  0.55825  0.13985  0.50900  1.0000
  C   C257      1.0  0.98676  0.30316  0.72957  1.0000
  H   H256      1.0  0.61432  0.00897  0.89106  1.0000
  H   H257      1.0  0.91163  0.32140  0.69132  1.0000
  H   H258      1.0  0.79236  0.00918  0.98743  1.0000
  H   H259      1.0  0.49599  0.12866  0.80662  1.0000
  C   C258      1.0  0.95231  0.24242  0.99628  1.0000
  C   C259      1.0  0.49873  0.14698  0.50279  1.0000
  Fe  Fe44      1.0  0.85949  0.54822  0.36966  1.0000
  S   S87       1.0  0.80820  0.53389  0.35318  1.0000
  S   S88       1.0  0.88143  0.53551  0.42595  1.0000
  Fe  Fe45      1.0  0.87604  0.57265  0.29135  1.0000
  S   S89       1.0  0.82480  0.56029  0.27103  1.0000
  S   S90       1.0  0.91102  0.58065  0.24326  1.0000
  Fe  Fe46      1.0  0.80635  0.58332  0.32331  1.0000
  S   S91       1.0  0.75716  0.61191  0.32864  1.0000
  Fe  Fe47      1.0  0.83175  0.51293  0.30257  1.0000
  S   S92       1.0  0.82077  0.46152  0.28033  1.0000
  S   S93       1.0  0.85732  0.59884  0.34222  1.0000
  S   S94       1.0  0.88309  0.52420  0.32088  1.0000
  S   S95       1.0  0.92908  0.39084  0.18210  1.0000
  H   H260      1.0  0.91032  0.53680  0.16933  1.0000
  C   C260      1.0  0.81387  0.47772  0.47837  1.0000
  C   C261      1.0  0.94649  0.60576  0.23890  1.0000
  H   H261      1.0  0.69285  0.64175  0.33231  1.0000
  H   H262      1.0  0.80035  0.44381  0.35726  1.0000
  H   H263      1.0  0.90328  0.43051  0.46938  1.0000
  C   C262      1.0  0.80711  0.41745  0.40860  1.0000
  C   C263      1.0  0.89977  0.40786  0.21254  1.0000
  C   C264      1.0  0.90582  0.43958  0.22673  1.0000
  C   C265      1.0  0.88220  0.45578  0.24835  1.0000
  C   C266      1.0  0.85230  0.44028  0.25640  1.0000
  C   C267      1.0  0.84661  0.40807  0.24323  1.0000
  C   C268      1.0  0.87022  0.39191  0.22123  1.0000
  H   H264      1.0  0.92847  0.45224  0.21994  1.0000
  H   H265      1.0  0.88677  0.48070  0.25772  1.0000
  H   H266      1.0  0.82355  0.39586  0.24935  1.0000
  H   H267      1.0  0.86529  0.36745  0.21049  1.0000
  C   C269      1.0  0.83511  0.50472  0.18921  1.0000
  C   C270      1.0  0.81745  0.43704  0.37919  1.0000
  C   C271      1.0  0.89280  0.48849  0.15280  1.0000
  C   C272      1.0  0.82962  0.40915  0.43655  1.0000
  N   N23       1.0  0.86140  0.42049  0.43544  1.0000
  H   H268      1.0  0.79252  0.45722  0.15173  1.0000
  H   H269      1.0  0.85808  0.46349  0.35542  1.0000
  H   H270      1.0  0.94535  0.62627  0.29333  1.0000
  C   C273      1.0  0.82862  0.49958  0.45318  1.0000
  C   C274      1.0  0.86129  0.50966  0.45831  1.0000
  H   H271      1.0  0.86902  0.44212  0.14173  1.0000
  H   H272      1.0  0.95456  0.59001  0.18317  1.0000
  H   H273      1.0  0.81474  0.50844  0.42965  1.0000
  C   C275      1.0  0.95856  0.62525  0.26763  1.0000
  C   C276      1.0  0.81047  0.45116  0.17394  1.0000
  H   H274      1.0  0.81905  0.42514  0.17070  1.0000
  H   H275      1.0  0.89675  0.44917  0.40596  1.0000
  H   H276      1.0  0.89813  0.38765  0.45604  1.0000
  C   C277      1.0  0.84995  0.44818  0.37813  1.0000
  H   H277      1.0  0.78871  0.46976  0.47377  1.0000
  H   H278      1.0  0.87222  0.40595  0.49078  1.0000
  C   C278      1.0  0.86090  0.52763  0.18773  1.0000
  H   H279      1.0  0.85857  0.55161  0.20083  1.0000
  H   H280      1.0  0.74963  0.65678  0.39641  1.0000
  C   C279      1.0  0.87173  0.43971  0.40667  1.0000
  N   N24       1.0  0.83818  0.47440  0.17289  1.0000
  H   H281      1.0  0.81286  0.51111  0.20407  1.0000
  H   H282      1.0  0.91542  0.48151  0.13904  1.0000
  H   H283      1.0  0.79775  0.45239  0.20093  1.0000
  H   H284      1.0  0.82128  0.39435  0.45967  1.0000
  H   H285      1.0  0.90399  0.50605  0.49378  1.0000
  C   C280      1.0  0.86637  0.46628  0.15439  1.0000
  C   C281      1.0  0.89000  0.51932  0.16975  1.0000
  H   H286      1.0  0.78176  0.40902  0.40995  1.0000
  Fe  Fe48      1.0  0.93301  0.33996  0.15504  1.0000
  C   C282      1.0  0.96382  0.60483  0.20562  1.0000
  C   C283      1.0  0.88496  0.41058  0.46424  1.0000
  C   C284      1.0  0.87874  0.49824  0.48948  1.0000
  C   C285      1.0  0.74315  0.65293  0.31797  1.0000
  H   H287      1.0  0.98227  0.54176  0.25932  1.0000
  S   S96       1.0  0.98006  0.34138  0.12254  1.0000
  H   H288      1.0  0.97998  0.37139  0.24385  1.0000
  H   H289      1.0  0.98122  0.59436  0.00517  1.0000
  H   H290      1.0  0.97609  0.41555  0.24907  1.0000
  C   C286      1.0  0.98788  0.64352  0.26300  1.0000
  Fe  Fe49      1.0  0.83680  0.41567  0.67288  1.0000
  S   S97       1.0  0.87193  0.42716  0.62742  1.0000
  S   S98       1.0  0.83361  0.44942  0.72275  1.0000
  Fe  Fe50      1.0  0.81370  0.34963  0.63778  1.0000
  S   S99       1.0  0.84898  0.35697  0.59055  1.0000
  H   H291      1.0  0.72652  0.32775  0.66904  1.0000
  Fe  Fe51      1.0  0.88594  0.37334  0.63309  1.0000
  S   S100      1.0  0.94089  0.36256  0.63417  1.0000
  Fe  Fe52      1.0  0.83179  0.40998  0.58940  1.0000
  S   S101      1.0  0.81293  0.43468  0.53666  1.0000
  S   S102      1.0  0.85254  0.36250  0.68037  1.0000
  S   S103      1.0  0.79467  0.40222  0.63463  1.0000
  H   H292      1.0  0.80168  0.47629  0.59791  1.0000
  Fe  Fe53      1.0  0.93814  0.60980  0.79262  1.0000
  S   S104      1.0  0.92991  0.57198  0.74685  1.0000
  S   S105      1.0  0.90901  0.63353  0.83871  1.0000
  C   C287      1.0  0.93074  0.40697  0.72241  1.0000
  C   C288      1.0  0.93394  0.37440  0.77801  1.0000
  H   H293      1.0  0.83578  0.59607  0.67634  1.0000
  C   C289      1.0  0.86246  0.48158  0.73117  1.0000
  C   C290      1.0  0.88721  0.48918  0.70595  1.0000
  C   C291      1.0  0.90822  0.51630  0.71199  1.0000
  C   C292      1.0  0.90484  0.53623  0.74328  1.0000
  C   C293      1.0  0.88048  0.52841  0.76892  1.0000
  C   C294      1.0  0.85934  0.50121  0.76279  1.0000
  H   H294      1.0  0.88978  0.47469  0.68135  1.0000
  H   H295      1.0  0.92682  0.52226  0.69186  1.0000
  H   H296      1.0  0.87749  0.54365  0.79305  1.0000
  H   H297      1.0  0.84020  0.49563  0.78245  1.0000
  N   N25       1.0  0.83606  0.54557  0.66023  1.0000
  C   C295      1.0  0.84853  0.57247  0.68341  1.0000
  H   H298      1.0  0.87804  0.46672  0.53786  1.0000
  H   H299      1.0  0.78578  0.47884  0.66368  1.0000
  H   H300      1.0  0.80747  0.52348  0.70291  1.0000
  S   S106      1.0  0.96089  0.61322  0.93190  1.0000
  H   H301      1.0  0.87558  0.57562  0.67972  1.0000
  C   C296      1.0  0.83293  0.51932  0.60115  1.0000
  H   H302      1.0  0.84018  0.51818  0.57253  1.0000
  H   H303      1.0  0.84471  0.56723  0.71309  1.0000
  C   C297      1.0  0.91504  0.39075  0.75127  1.0000
  S   S107      1.0  0.98296  0.60156  0.82823  1.0000
  H   H304      1.0  0.92200  0.36121  0.80025  1.0000
  C   C298      1.0  0.84519  0.54420  0.62414  1.0000
  C   C299      1.0  0.95806  0.33860  0.67034  1.0000
  C   C300      1.0  0.80203  0.49745  0.65209  1.0000
  C   C301      1.0  0.81124  0.49582  0.61533  1.0000
  C   C302      1.0  0.81452  0.52278  0.67422  1.0000
  H   H305      1.0  0.86207  0.56239  0.61296  1.0000
  Fe  Fe54      1.0  0.95639  0.62972  0.87205  1.0000
  H   H306      1.0  0.88826  0.39063  0.75262  1.0000
  H   H307      1.0  0.91624  0.41898  0.70100  1.0000
  C   C303      1.0  0.86404  0.47609  0.51459  1.0000
  C   C304      1.0  0.96842  0.37479  0.77560  1.0000
  H   H308      1.0  0.97714  0.41907  0.69790  1.0000
  C   C305      1.0  0.83165  0.46532  0.50874  1.0000
  C   C306      1.0  0.96524  0.40691  0.72085  1.0000
  N   N26       1.0  0.98360  0.39085  0.74720  1.0000
  H   H309      1.0  0.98298  0.36167  0.79623  1.0000
  H   H310      1.0  0.96904  0.32860  0.94094  1.0000
  Fe  Fe55      1.0  0.58652  0.80217  0.27936  1.0000
  S   S108      1.0  0.57521  0.83960  0.32262  1.0000
  S   S109      1.0  0.55165  0.79263  0.23168  1.0000
  Fe  Fe56      1.0  0.65626  0.78746  0.30993  1.0000
  S   S110      1.0  0.65000  0.82578  0.35455  1.0000
  S   S111      1.0  0.70633  0.76117  0.30332  1.0000
  Fe  Fe57      1.0  0.59932  0.80391  0.36202  1.0000
  S   S112      1.0  0.58054  0.78434  0.41696  1.0000
  Fe  Fe58      1.0  0.62645  0.85824  0.31085  1.0000
  S   S113      1.0  0.62859  0.91394  0.30042  1.0000
  S   S114      1.0  0.60673  0.76420  0.31927  1.0000
  S   S115      1.0  0.63665  0.82209  0.26586  1.0000
  H   H311      1.0  0.67200  0.69931  0.32297  1.0000
  H   H312      1.0  0.65060  0.76203  0.40567  1.0000
  H   H313      1.0  0.56650  0.94873  0.32663  1.0000
  C   C307      1.0  0.66900  0.71227  0.41351  1.0000
  C   C308      1.0  0.50597  0.75992  0.30880  1.0000
  C   C309      1.0  0.62072  0.91454  0.18430  1.0000
  C   C310      1.0  0.51502  0.81607  0.22622  1.0000
  C   C311      1.0  0.65716  0.93042  0.26863  1.0000
  C   C312      1.0  0.68125  0.91054  0.25229  1.0000
  C   C313      1.0  0.70339  0.92438  0.22683  1.0000
  C   C314      1.0  0.70142  0.95808  0.21715  1.0000
  H   H314      1.0  0.53883  0.76329  0.35572  1.0000
  C   C315      1.0  0.65528  0.96416  0.25908  1.0000
  H   H315      1.0  0.68316  0.88459  0.25961  1.0000
  H   H316      1.0  0.72213  0.90887  0.21460  1.0000
  H   H317      1.0  0.76833  0.68322  0.43071  1.0000
  C   C316      1.0  0.67720  0.97793  0.23336  1.0000
  C   C317      1.0  0.55285  0.80320  0.44845  1.0000
  C   C318      1.0  0.53890  0.83451  0.44213  1.0000
  H   H318      1.0  0.77923  0.97993  0.11270  1.0000
  C   C319      1.0  0.77764  0.92764  0.00396  1.0000
  H   H319      1.0  0.54546  0.84837  0.41776  1.0000
  H   H320      1.0  0.75398  0.74731  0.38672  1.0000
  H   H321      1.0  0.76954  0.73008  0.29321  1.0000
  C   C320      1.0  0.50242  0.83481  0.25510  1.0000
  H   H322      1.0  0.50626  0.79905  0.17096  1.0000
  C   C321      1.0  0.63065  0.94513  0.16990  1.0000
  C   C322      1.0  0.51809  0.96984  0.31673  1.0000
  H   H323      1.0  0.69478  0.97504  0.04110  1.0000
  H   H324      1.0  0.73712  0.97059  0.10028  1.0000
  C   C323      1.0  0.61104  0.97314  0.17547  1.0000
  S   S116      1.0  0.72885  0.97434  0.18399  1.0000
  H   H325      1.0  0.70557  0.78445  0.38839  1.0000
  N   N27       1.0  0.59164  0.91182  0.20297  1.0000
  C   C324      1.0  0.76452  0.67810  0.30659  1.0000
  C   C325      1.0  0.57249  0.93923  0.20899  1.0000
  C   C326      1.0  0.49374  0.79050  0.36388  1.0000
  N   N28       1.0  0.72704  0.70437  0.40302  1.0000
  C   C327      1.0  0.58134  0.87974  0.21803  1.0000
  C   C328      1.0  0.49671  0.81360  0.19344  1.0000
  H   H326      1.0  0.65403  0.94737  0.15568  1.0000
  C   C329      1.0  0.75625  0.68279  0.40328  1.0000
  H   H327      1.0  0.58620  0.87896  0.24806  1.0000
  C   C330      1.0  0.67212  0.74589  0.40523  1.0000
  H   H328      1.0  0.63673  0.89316  0.18103  1.0000
  H   H329      1.0  0.50066  0.79876  0.39120  1.0000
  C   C331      1.0  0.51634  0.84797  0.46749  1.0000
  C   C332      1.0  0.70296  0.75856  0.39596  1.0000
  C   C333      1.0  0.75263  0.71081  0.30159  1.0000
  H   H330      1.0  0.50512  0.94662  0.32083  1.0000
  C   C334      1.0  0.73032  0.73735  0.39501  1.0000
  C   C335      1.0  0.71922  0.71890  0.30753  1.0000
  C   C336      1.0  0.69773  0.69362  0.31830  1.0000
  C   C337      1.0  0.50764  0.83048  0.49956  1.0000
  H   H331      1.0  0.69282  0.92200  0.00669  1.0000
  H   H332      1.0  0.54988  0.93711  0.22460  1.0000
  H   H333      1.0  0.79033  0.67249  0.30222  1.0000
  H   H334      1.0  0.64501  0.70225  0.42043  1.0000
  C   C338      1.0  0.58183  0.97027  0.19525  1.0000
  C   C339      1.0  0.69693  0.69175  0.41244  1.0000
  H   H335      1.0  0.51597  0.83662  0.28060  1.0000
  H   H336      1.0  0.63679  0.97974  0.27155  1.0000
  H   H337      1.0  0.55460  0.87553  0.21299  1.0000
  H   H338      1.0  0.76332  0.90770  0.05620  1.0000
  C   C340      1.0  0.69978  0.97477  0.01196  1.0000
  H   H339      1.0  0.59471  0.85868  0.20521  1.0000
  H   H340      1.0  0.77432  0.69083  0.38221  1.0000
  C   C341      1.0  0.55242  0.97103  0.32011  1.0000
  C   C342      1.0  0.54413  0.78572  0.48046  1.0000
  H   H341      1.0  0.50566  0.87218  0.46238  1.0000
  H   H342      1.0  0.52303  0.74475  0.29324  1.0000
  C   C343      1.0  0.51520  0.77052  0.34393  1.0000
  C   C344      1.0  0.76313  0.96209  0.09791  1.0000
  H   H343      1.0  0.55473  0.76150  0.48566  1.0000
  N   N29       1.0  0.77225  0.95973  0.05911  1.0000
  H   H344      1.0  0.76568  0.93795  0.11251  1.0000
  C   C345      1.0  0.70966  0.66095  0.32357  1.0000
  H   H345      1.0  0.69430  0.66557  0.41859  1.0000
  C   C346      1.0  0.77069  0.92987  0.04149  1.0000
  C   C347      1.0  0.78012  0.98791  0.04009  1.0000
  C   C348      1.0  0.78732  0.98656  0.00260  1.0000
  H   H346      1.0  0.86399  0.69062  0.86774  1.0000
  H   H347      1.0  0.51536  0.78550  0.53036  1.0000
  H   H348      1.0  0.71862  0.97313  0.90729  1.0000
  S   S117      1.0  0.53703  0.77274  0.68017  1.0000
  Fe  Fe59      1.0  0.73303  0.84578  0.81325  1.0000
  S   S118      1.0  0.69053  0.84513  0.85317  1.0000
  S   S119      1.0  0.75927  0.79568  0.80419  1.0000
  Fe  Fe60      1.0  0.71612  0.91768  0.79021  1.0000
  S   S120      1.0  0.67416  0.92129  0.82953  1.0000
  Fe  Fe61      1.0  0.70765  0.89594  0.87007  1.0000
  S   S121      1.0  0.70612  0.90508  0.93202  1.0000
  Fe  Fe62      1.0  0.66074  0.87064  0.80913  1.0000
  S   S122      1.0  0.60592  0.86791  0.79628  1.0000
  S   S123      1.0  0.75173  0.89563  0.83231  1.0000
  S   S124      1.0  0.70126  0.86800  0.76788  1.0000
  Fe  Fe63      1.0  0.92979  0.68205  0.81817  1.0000
  S   S125      1.0  0.97550  0.67893  0.85404  1.0000
  S   S126      1.0  0.90521  0.73359  0.81917  1.0000
  C   C349      1.0  0.85771  0.70296  0.89400  1.0000
  H   H349      1.0  0.83945  0.68760  0.90895  1.0000
  C   C350      1.0  0.71318  0.97345  0.93635  1.0000
  C   C351      1.0  0.70587  0.94386  0.95463  1.0000
  H   H350      1.0  0.62974  0.82377  0.65550  1.0000
  H   H351      1.0  0.88510  0.66009  0.94135  1.0000
  C   C352      1.0  0.80014  0.77912  0.80873  1.0000
  C   C353      1.0  0.82730  0.79849  0.81883  1.0000
  C   C354      1.0  0.85914  0.78415  0.82150  1.0000
  C   C355      1.0  0.86441  0.75026  0.81431  1.0000
  C   C356      1.0  0.83723  0.73080  0.80452  1.0000
  C   C357      1.0  0.80542  0.74517  0.80171  1.0000
  H   H352      1.0  0.82380  0.82461  0.82418  1.0000
  H   H353      1.0  0.87989  0.79957  0.82897  1.0000
  H   H354      1.0  0.84071  0.70477  0.79874  1.0000
  H   H355      1.0  0.78468  0.72991  0.79379  1.0000
  C   C358      1.0  0.55598  0.79870  0.71310  1.0000
  C   C359      1.0  0.58866  0.79247  0.72447  1.0000
  C   C360      1.0  0.60456  0.81364  0.74964  1.0000
  C   C361      1.0  0.58759  0.84081  0.76410  1.0000
  C   C362      1.0  0.55481  0.84672  0.75308  1.0000
  C   C363      1.0  0.53913  0.82594  0.72751  1.0000
  H   H356      1.0  0.60183  0.77139  0.71351  1.0000
  H   H357      1.0  0.62975  0.80870  0.75816  1.0000
  H   H358      1.0  0.54142  0.86755  0.76427  1.0000
  H   H359      1.0  0.51391  0.83092  0.71913  1.0000
  C   C364      1.0  0.59878  0.92841  0.87028  1.0000
  C   C365      1.0  0.64298  0.92196  0.71831  1.0000
  H   H360      1.0  0.59399  0.86843  0.92034  1.0000
  S   S127      1.0  0.72436  0.95892  0.74827  1.0000
  N   N30       1.0  0.62351  0.89876  0.69622  1.0000
  C   C366      1.0  0.63736  0.86963  0.68480  1.0000
  C   C367      1.0  0.59106  0.90565  0.68869  1.0000
  H   H361      1.0  0.77527  0.90418  0.98969  1.0000
  H   H362      1.0  0.57117  0.83656  0.64032  1.0000
  H   H363      1.0  0.94984  0.76281  0.92726  1.0000
  H   H364      1.0  0.61256  0.86533  0.87552  1.0000
  C   C368      1.0  0.62743  0.96681  0.92469  1.0000
  C   C369      1.0  0.69469  0.99057  0.73958  1.0000
  H   H365      1.0  0.66269  0.86354  0.69202  1.0000
  H   H366      1.0  0.57975  0.92814  0.69890  1.0000
  C   C370      1.0  0.62699  0.93221  0.92741  1.0000
  H   H367      1.0  0.79019  0.95499  0.95508  1.0000
  H   H368      1.0  0.63942  0.91668  0.74797  1.0000
  H   H369      1.0  0.66978  0.91999  0.71213  1.0000
  H   H370      1.0  0.63815  0.92035  0.95126  1.0000
  N   N31       1.0  0.88781  0.70779  0.91585  1.0000
  C   C371      1.0  0.90589  0.73612  0.91161  1.0000
  C   C372      1.0  0.89859  0.68318  0.93902  1.0000
  C   C373      1.0  0.61892  0.84709  0.66405  1.0000
  C   C374      1.0  0.61458  0.87724  0.90293  1.0000
  H   H371      1.0  0.63572  0.94806  0.71250  1.0000
  H   H372      1.0  0.58733  0.91362  0.84897  1.0000
  H   H373      1.0  0.49432  0.72349  0.71538  1.0000
  S   S128      1.0  0.95619  0.65878  0.77017  1.0000
  H   H374      1.0  0.54607  0.88892  0.66240  1.0000
  H   H375      1.0  0.96885  0.71893  0.97111  1.0000
  C   C375      1.0  0.58602  0.85426  0.65554  1.0000
  N   N32       1.0  0.61369  0.91347  0.89989  1.0000
  H   H376      1.0  0.63850  0.86879  0.91505  1.0000
  H   H377      1.0  0.84556  0.72705  0.88736  1.0000
  C   C376      1.0  0.94598  0.71600  0.95575  1.0000
  C   C377      1.0  0.57190  0.88364  0.66804  1.0000
  C   C378      1.0  0.93531  0.74059  0.93130  1.0000
  H   H378      1.0  0.89786  0.75527  0.89246  1.0000
  C   C379      1.0  0.92738  0.68724  0.95989  1.0000
  H   H379      1.0  0.66628  0.98152  0.78822  1.0000
  H   H380      1.0  0.93560  0.66777  0.97850  1.0000
  C   C380      1.0  0.59887  0.96294  0.86654  1.0000
  H   H381      1.0  0.63901  0.98148  0.94610  1.0000
  H   H382      1.0  0.50553  0.71450  0.64973  1.0000
  H   H383      1.0  0.58797  0.97458  0.84241  1.0000
  C   C381      1.0  0.61359  0.98219  0.89382  1.0000
  C   C382      1.0  0.52176  0.79926  0.50590  1.0000
  C   C383      1.0  0.69869  0.94476  0.99237  1.0000
  C   C384      1.0  0.78598  0.95621  0.98447  1.0000
  H   H384      1.0  0.49064  0.69447  0.59189  1.0000
  Fe  Fe64      1.0  0.48934  0.79151  0.65450  1.0000
