data_image0
_chemical_formula_structural       HFeNFeHSFeS2FeS2FeS2FeS2Fe2S3HSCHFeHSFeS2H3C6HCH2C6HCH2CN2HSC6H4C6H5CHSC2HCSHSH4C3H6C3HCHNC2H2CH3CHC6SHCHC2H3CHS2CHCH6CHNC3HC2H3NH4C4NHCNFeH2C6FeH2CHCH2SFeH3CS2FeS2FeHSFeSFeS4FeS2CFeSFeSHSHFeSCFeCHC7H3C7H4CH2NHC6H4C2HC2HC8H6NC3H2CHSC3SHCH4CSH4CHCNC3H2CHCH2FeHFeH2CNC5H6SCHNSC2H4C3H2C2NHCH5S2C3H4CFeHS2C2S3CSCHFeHSFeH2FeSCS2FeSCHSFeSFeHSC6HSC3SFeSH2C2HSH3C3SCH7CH6C2H2SC2HC7HNHNCHC2NHFeCHC2H2SH2Fe2S2HSHFeSHCSHFeS2FeSCFeSFeS3HC6H4C2HCH3C2H6C2HC3H2CH4CNHC2HC5FeH5CHCHC2SHNCNCSC2SC2NHC2H2CH3CH2CFeH4C4FeSCFeS2FeSFeS3HCNFeS2HSFeS2FeSFeSHFe2SHC4H2CNC2H2FeC6H4C6H4C4H2C6H4C2H2SHSHCH6SHC2N2H2C4H2CH2SH5CH2CH2C2SC2NC6H8C2HCSHCH4NC4HCH2CHFeH3SCHC5HNC3SHCNFeSCSFeS2FeS2CFeS3HFeSFeS3C2FeSHSC2HCHCH3C6H6CHC6H4C2HCHC6H4NC2H4C3HCH3C3H5NCHC5HCHSFeC2NC2S2H4CNHCH2C2SHCSFeHC3H2FeCHC2HCHC2H5CFeHCSH7CH2C5FeSHCHFeHSFeS2HFeS4FeS2C2FeHFeS2FeSFeSFeS3C6H5CH2CHC6H5CHCFeC7H3C6H4C3HCHCHSHC2HSHCH2CH2C3H2CH2SNC2HSH2C2HCHCH2SHCHC2NHCNHC6H3CHCH4C3SCHNCSH2NSHCH3CFeC2H8C2H3SHS2CFeSH3SFeHSFeSFeSHSCFeS2CSFeSFeSHSFeNC2H2C2HCH3CH2C6H4C6H5CH2CHCHC6HC2HC6H4NC3H2CH2C2H5C2HCHNHFeCHNC3HCHSCHNCSHSC2H2SC3SH2C3H2CH3CSFeC3H3CHNCH4SH3SHNCHCHC2H3CFeSHC2HC3FeSHFeHSFeSCS2FeHSFeCHFeS3C3HCNHC2HSC2SCHNC2HSHC2H2CH3SH7SHNC2H3C6H2SCHCH2CH2CH2CFeC3HC2HC2H3SHSHC2NC5HCFeCH2SHCH2CHFeSC2SHCHFeSCSFeS2FeS2Fe2S3H2C2SCNFeC5H2CH2C2H2CHCHSHC2H7CHC6H4SCHC2HFeC2H2C4NHCHSCH2CHSHNCH2C2HCH2C5NHCH2NCHCSHCS2HCFeSCFeS2FeSCFeSFeS3FeS2FeH3FeCHC4H3C6H5CH2C2H3C6H4C6H5SNH2NC6H3SHCSFeHCH2CH5FeH3FeC5H2CH4C3SHCNC2SC5H5CNC2NSHCH4CHC3HCHSC2HC2H2SNC2FeCHCSCHCHCH3CH2SC2FeS2FeSFeSCSFeS2HFeS3HCFeS2HSFeSFeSCSC6H4CFeHSC4H4C6H5C3H2CHCHC2FeH2C6H5CH3CNHCH2CSHSHFeCHC3HNSH2CHC2H3C4H2CH3C2NHCH3S2C3H2CHSC2H4C2HFeCHNCH5C
_chemical_formula_sum              "H768 Fe128 N64 S256 C768"
_cell_length_a       55.4385
_cell_length_b       55.4076
_cell_length_c       36.7992
_cell_angle_alpha    90.4431
_cell_angle_beta     90.358
_cell_angle_gamma    88.1303

_space_group_name_H-M_alt    "P 1"
_space_group_IT_number       1

loop_
  _space_group_symop_operation_xyz
  'x, y, z'

loop_
  _atom_site_type_symbol
  _atom_site_label
  _atom_site_symmetry_multiplicity
  _atom_site_fract_x
  _atom_site_fract_y
  _atom_site_fract_z
  _atom_site_occupancy
  H   H1        1.0  0.15096  0.31094  0.29510  1.0000
  Fe  Fe1       1.0  0.13243  0.29584  0.02767  1.0000
  N   N1        1.0  0.45296  0.29217  0.13980  1.0000
  Fe  Fe2       1.0  0.34683  0.29451  0.02825  1.0000
  H   H2        1.0  0.37997  0.16988  0.21262  1.0000
  S   S1        1.0  0.30657  0.30463  0.03529  1.0000
  Fe  Fe3       1.0  0.39669  0.31732  0.03727  1.0000
  S   S2        1.0  0.41586  0.28411  0.01591  1.0000
  S   S3        1.0  0.18268  0.20552  0.44371  1.0000
  Fe  Fe4       1.0  0.39143  0.26376  0.05240  1.0000
  S   S4        1.0  0.41364  0.24110  0.09282  1.0000
  S   S5        1.0  0.37322  0.29740  0.07536  1.0000
  Fe  Fe5       1.0  0.45117  0.06992  0.21786  1.0000
  S   S6        1.0  0.47228  0.08893  0.26149  1.0000
  S   S7        1.0  0.45059  0.02925  0.20473  1.0000
  Fe  Fe6       1.0  0.42644  0.11804  0.19280  1.0000
  S   S8        1.0  0.44488  0.13981  0.23545  1.0000
  S   S9        1.0  0.39892  0.13557  0.15455  1.0000
  Fe  Fe7       1.0  0.47803  0.11769  0.21934  1.0000
  Fe  Fe8       1.0  0.43736  0.10948  0.27313  1.0000
  S   S10       1.0  0.42167  0.11167  0.32990  1.0000
  S   S11       1.0  0.45974  0.09730  0.17455  1.0000
  S   S12       1.0  0.41604  0.08910  0.23171  1.0000
  H   H3        1.0  0.36828  0.19923  0.26164  1.0000
  S   S13       1.0  0.37695  0.20416  0.41077  1.0000
  C   C1        1.0  0.25694  0.26364  0.08038  1.0000
  H   H4        1.0  0.00906  0.10462  0.36750  1.0000
  Fe  Fe9       1.0  0.09796  0.16753  0.45389  1.0000
  H   H5        1.0  0.17623  0.26953  0.08097  1.0000
  S   S14       1.0  0.07634  0.13433  0.44107  1.0000
  Fe  Fe10      1.0  0.09301  0.22224  0.44845  1.0000
  S   S15       1.0  0.06585  0.24600  0.41721  1.0000
  S   S16       1.0  0.11404  0.19426  0.41617  1.0000
  H   H6        1.0  0.34958  0.14022  0.32957  1.0000
  H   H7        1.0  0.42984  0.29198  0.18606  1.0000
  H   H8        1.0  0.41566  0.16354  0.48102  1.0000
  C   C2        1.0  0.07064  0.27490  0.39902  1.0000
  C   C3        1.0  0.09161  0.28747  0.40636  1.0000
  C   C4        1.0  0.28003  0.29553  0.01205  1.0000
  C   C5        1.0  0.07794  0.31976  0.36536  1.0000
  C   C6        1.0  0.05678  0.30739  0.35858  1.0000
  C   C7        1.0  0.05310  0.28512  0.37549  1.0000
  H   H9        1.0  0.10512  0.27986  0.42468  1.0000
  C   C8        1.0  0.35756  0.17155  0.29850  1.0000
  H   H10       1.0  0.01006  0.16937  0.45913  1.0000
  H   H11       1.0  0.03684  0.27550  0.36971  1.0000
  C   C9        1.0  0.05895  0.13246  0.40064  1.0000
  C   C10       1.0  0.03874  0.11778  0.39964  1.0000
  C   C11       1.0  0.02469  0.11579  0.36777  1.0000
  C   C12       1.0  0.03114  0.12798  0.33629  1.0000
  C   C13       1.0  0.05136  0.14263  0.33732  1.0000
  C   C14       1.0  0.06504  0.14509  0.36941  1.0000
  H   H12       1.0  0.03389  0.10798  0.42369  1.0000
  C   C15       1.0  0.45298  0.29251  0.10266  1.0000
  H   H13       1.0  0.05652  0.15208  0.31308  1.0000
  H   H14       1.0  0.08068  0.15628  0.36974  1.0000
  C   C16       1.0  0.35570  0.14668  0.30354  1.0000
  N   N2        1.0  0.45005  0.14291  0.41096  1.0000
  N   N3        1.0  0.01116  0.17791  0.40281  1.0000
  H   H15       1.0  0.00879  0.18270  0.34532  1.0000
  S   S17       1.0  0.14799  0.25958  0.01021  1.0000
  C   C17       1.0  0.40761  0.13766  0.34934  1.0000
  C   C18       1.0  0.41194  0.16090  0.33689  1.0000
  C   C19       1.0  0.40228  0.18120  0.35577  1.0000
  C   C20       1.0  0.38809  0.17837  0.38690  1.0000
  C   C21       1.0  0.38316  0.15509  0.39843  1.0000
  C   C22       1.0  0.39296  0.13487  0.37985  1.0000
  H   H16       1.0  0.42322  0.16325  0.31337  1.0000
  H   H17       1.0  0.40604  0.19918  0.34651  1.0000
  H   H18       1.0  0.37204  0.15262  0.42199  1.0000
  H   H19       1.0  0.38947  0.11694  0.38961  1.0000
  C   C23       1.0  0.40883  0.21176  0.10942  1.0000
  C   C24       1.0  0.42502  0.20214  0.13550  1.0000
  C   C25       1.0  0.42211  0.17889  0.14959  1.0000
  C   C26       1.0  0.40306  0.16493  0.13749  1.0000
  C   C27       1.0  0.38677  0.17458  0.11157  1.0000
  C   C28       1.0  0.38962  0.19792  0.09754  1.0000
  H   H20       1.0  0.43987  0.21276  0.14492  1.0000
  H   H21       1.0  0.43459  0.17180  0.16981  1.0000
  H   H22       1.0  0.37195  0.16390  0.10212  1.0000
  H   H23       1.0  0.37706  0.20513  0.07746  1.0000
  H   H24       1.0  0.23178  0.21883  0.43225  1.0000
  C   C29       1.0  0.13842  0.27498  0.34209  1.0000
  H   H25       1.0  0.47021  0.02199  0.27847  1.0000
  S   S18       1.0  0.13387  0.30743  0.08696  1.0000
  C   C30       1.0  0.23204  0.20613  0.45444  1.0000
  C   C31       1.0  0.06569  0.33161  0.11165  1.0000
  H   H26       1.0  0.25783  0.32363  0.03699  1.0000
  C   C32       1.0  0.03226  0.19294  0.40740  1.0000
  S   S19       1.0  0.36897  0.31789  0.99232  1.0000
  H   H27       1.0  0.45937  0.15491  0.10721  1.0000
  S   S20       1.0  0.01462  0.12551  0.29511  1.0000
  H   H28       1.0  0.12035  0.32229  0.28970  1.0000
  H   H29       1.0  0.47211  0.30225  0.05436  1.0000
  H   H30       1.0  0.37719  0.09802  0.29712  1.0000
  H   H31       1.0  0.27357  0.27050  0.09157  1.0000
  C   C33       1.0  0.47274  0.30106  0.08379  1.0000
  C   C34       1.0  0.36637  0.18001  0.26568  1.0000
  C   C35       1.0  0.09450  0.25881  0.31701  1.0000
  H   H32       1.0  0.18693  0.29239  0.05093  1.0000
  H   H33       1.0  0.41503  0.28741  0.14337  1.0000
  H   H34       1.0  0.04742  0.18217  0.41967  1.0000
  H   H35       1.0  0.23470  0.29238  0.10276  1.0000
  H   H36       1.0  0.43735  0.28679  0.08747  1.0000
  H   H37       1.0  0.48164  0.13049  0.11196  1.0000
  C   C36       1.0  0.02369  0.05789  0.30843  1.0000
  C   C37       1.0  0.37068  0.13887  0.24414  1.0000
  C   C38       1.0  0.47670  0.14929  0.12046  1.0000
  H   H38       1.0  0.43375  0.26336  0.16193  1.0000
  C   C39       1.0  0.02294  0.05950  0.27066  1.0000
  H   H39       1.0  0.34466  0.10064  0.29941  1.0000
  N   N4        1.0  0.12465  0.28901  0.31896  1.0000
  C   C40       1.0  0.10835  0.24446  0.34074  1.0000
  C   C41       1.0  0.25805  0.30818  0.01882  1.0000
  H   H40       1.0  0.10162  0.22744  0.35013  1.0000
  H   H41       1.0  0.04351  0.31481  0.33979  1.0000
  C   C42       1.0  0.46333  0.00507  0.26869  1.0000
  H   H42       1.0  0.43103  0.09056  0.44594  1.0000
  H   H43       1.0  0.21952  0.31067  0.00845  1.0000
  H   H44       1.0  0.37591  0.12628  0.22266  1.0000
  C   C43       1.0  0.47267  0.29944  0.15908  1.0000
  H   H45       1.0  0.14122  0.24160  0.37228  1.0000
  C   C44       1.0  0.37298  0.16360  0.23827  1.0000
  C   C45       1.0  0.25759  0.24315  0.05809  1.0000
  C   C46       1.0  0.13050  0.25250  0.35333  1.0000
  C   C47       1.0  0.19128  0.28182  0.07578  1.0000
  C   C48       1.0  0.36063  0.10469  0.28270  1.0000
  C   C49       1.0  0.49278  0.30883  0.10321  1.0000
  S   S21       1.0  0.07572  0.19520  0.48447  1.0000
  H   H46       1.0  0.02751  0.07626  0.25757  1.0000
  C   C50       1.0  0.42195  0.12606  0.46710  1.0000
  H   H47       1.0  0.23670  0.21998  0.02356  1.0000
  C   C51       1.0  0.13314  0.31277  0.30859  1.0000
  C   C52       1.0  0.08535  0.32021  0.09367  1.0000
  H   H48       1.0  0.45603  0.10588  0.39622  1.0000
  H   H49       1.0  0.09166  0.29261  0.28892  1.0000
  H   H50       1.0  0.46401  0.13982  0.35719  1.0000
  C   C53       1.0  0.42485  0.15079  0.46289  1.0000
  H   H51       1.0  0.19833  0.24249  0.03495  1.0000
  S   S22       1.0  0.10089  0.29400  0.98955  1.0000
  S   S23       1.0  0.36335  0.25918  0.00801  1.0000
  C   C54       1.0  0.45167  0.00417  0.23488  1.0000
  H   H52       1.0  0.47256  0.29951  0.18856  1.0000
  C   C55       1.0  0.43193  0.28327  0.15892  1.0000
  H   H53       1.0  0.47412  0.14883  0.15040  1.0000
  H   H54       1.0  0.45906  0.17008  0.37295  1.0000
  H   H55       1.0  0.00323  0.00349  0.25133  1.0000
  H   H56       1.0  0.15543  0.28135  0.35253  1.0000
  H   H57       1.0  0.11148  0.31946  0.39537  1.0000
  H   H58       1.0  0.48427  0.15212  0.39085  1.0000
  C   C56       1.0  0.23626  0.30084  0.00273  1.0000
  H   H59       1.0  0.27469  0.23391  0.05218  1.0000
  N   N5        1.0  0.49564  0.16593  0.11087  1.0000
  C   C57       1.0  0.01721  0.03645  0.32510  1.0000
  C   C58       1.0  0.09516  0.30988  0.38971  1.0000
  C   C59       1.0  0.11111  0.32988  0.14466  1.0000
  H   H60       1.0  0.07697  0.25301  0.30789  1.0000
  C   C60       1.0  0.21026  0.19614  0.46561  1.0000
  C   C61       1.0  0.23631  0.23530  0.04212  1.0000
  H   H61       1.0  0.08286  0.31221  0.06708  1.0000
  H   H62       1.0  0.02788  0.20862  0.42548  1.0000
  H   H63       1.0  0.35284  0.18411  0.32036  1.0000
  N   N6        1.0  0.01040  0.01707  0.30465  1.0000
  H   H64       1.0  0.13461  0.32451  0.33311  1.0000
  H   H65       1.0  0.01432  0.04108  0.22066  1.0000
  H   H66       1.0  0.48887  0.18900  0.15654  1.0000
  H   H67       1.0  0.19193  0.29453  0.09923  1.0000
  C   C62       1.0  0.23489  0.27600  0.08644  1.0000
  C   C63       1.0  0.44762  0.11859  0.41525  1.0000
  C   C64       1.0  0.10295  0.28120  0.30636  1.0000
  C   C65       1.0  0.10824  0.31963  0.10990  1.0000
  N   N7        1.0  0.36201  0.13071  0.27639  1.0000
  H   H68       1.0  0.35908  0.09446  0.25672  1.0000
  C   C66       1.0  0.49287  0.30788  0.14110  1.0000
  N   N8        1.0  0.21408  0.26807  0.07086  1.0000
  Fe  Fe11      1.0  0.14348  0.19818  0.45879  1.0000
  H   H69       1.0  0.04814  0.33240  0.09862  1.0000
  H   H70       1.0  0.02907  0.07328  0.32458  1.0000
  C   C67       1.0  0.43909  0.15897  0.43457  1.0000
  C   C68       1.0  0.43344  0.10981  0.44322  1.0000
  C   C69       1.0  0.00930  0.01859  0.26755  1.0000
  C   C70       1.0  0.01558  0.03979  0.25001  1.0000
  C   C71       1.0  0.21460  0.24811  0.04872  1.0000
  C   C72       1.0  0.46518  0.15170  0.38165  1.0000
  Fe  Fe12      1.0  0.36288  0.20075  0.46854  1.0000
  H   H71       1.0  0.03876  0.20003  0.38119  1.0000
  H   H72       1.0  0.44072  0.17827  0.43106  1.0000
  C   C73       1.0  0.25419  0.20000  0.47184  1.0000
  H   H73       1.0  0.12875  0.32947  0.15742  1.0000
  C   C74       1.0  0.49933  0.18590  0.13202  1.0000
  H   H74       1.0  0.27069  0.20800  0.46303  1.0000
  H   H75       1.0  0.01753  0.03544  0.35452  1.0000
  S   S24       1.0  0.15494  0.31690  0.98923  1.0000
  Fe  Fe13      1.0  0.12433  0.31191  0.94937  1.0000
  H   H76       1.0  0.10267  0.08888  0.66947  1.0000
  H   H77       1.0  0.44244  0.28252  0.57584  1.0000
  H   H78       1.0  0.19451  0.17174  0.50321  1.0000
  C   C75       1.0  0.21282  0.23538  0.53479  1.0000
  S   S25       1.0  0.09122  0.23083  0.95529  1.0000
  S   S26       1.0  0.14071  0.27765  0.92598  1.0000
  Fe  Fe14      1.0  0.05832  0.13870  0.80043  1.0000
  S   S27       1.0  0.03083  0.16031  0.76846  1.0000
  S   S28       1.0  0.09172  0.15736  0.82116  1.0000
  Fe  Fe15      1.0  0.03272  0.09084  0.78642  1.0000
  H   H79       1.0  0.48202  0.22301  0.68145  1.0000
  S   S29       1.0  0.03408  0.05039  0.80097  1.0000
  Fe  Fe16      1.0  0.03296  0.12996  0.72799  1.0000
  S   S30       1.0  0.03271  0.13497  0.66660  1.0000
  Fe  Fe17      1.0  0.16929  0.28066  0.97000  1.0000
  S   S31       1.0  0.06256  0.10945  0.75759  1.0000
  S   S32       1.0  0.03092  0.11864  0.83223  1.0000
  S   S33       1.0  0.39420  0.27569  0.91433  1.0000
  S   S34       1.0  0.46068  0.14668  0.70575  1.0000
  Fe  Fe18      1.0  0.35692  0.22651  0.54245  1.0000
  S   S35       1.0  0.34437  0.19267  0.56885  1.0000
  S   S36       1.0  0.35734  0.25919  0.58043  1.0000
  C   C76       1.0  0.09195  0.12089  0.55129  1.0000
  Fe  Fe19      1.0  0.32124  0.18811  0.51842  1.0000
  S   S37       1.0  0.28205  0.17621  0.52520  1.0000
  Fe  Fe20      1.0  0.37455  0.17386  0.53832  1.0000
  S   S38       1.0  0.40441  0.14687  0.55466  1.0000
  H   H80       1.0  0.49933  0.32077  0.59774  1.0000
  S   S39       1.0  0.38841  0.20791  0.51485  1.0000
  H   H81       1.0  0.42475  0.30955  0.80092  1.0000
  Fe  Fe21      1.0  0.10778  0.19814  0.52111  1.0000
  S   S40       1.0  0.10791  0.19825  0.58276  1.0000
  C   C77       1.0  0.25827  0.26843  0.97205  1.0000
  Fe  Fe22      1.0  0.49914  0.13268  0.71579  1.0000
  C   C78       1.0  0.32890  0.27683  0.91039  1.0000
  H   H82       1.0  0.03381  0.29076  0.77558  1.0000
  C   C79       1.0  0.04516  0.31186  0.88102  1.0000
  C   C80       1.0  0.42335  0.30087  0.61941  1.0000
  C   C81       1.0  0.40112  0.30384  0.63690  1.0000
  C   C82       1.0  0.38107  0.29103  0.62448  1.0000
  C   C83       1.0  0.38307  0.27505  0.59468  1.0000
  C   C84       1.0  0.40534  0.27201  0.57731  1.0000
  C   C85       1.0  0.42537  0.28483  0.58969  1.0000
  H   H83       1.0  0.06006  0.29367  0.74693  1.0000
  H   H84       1.0  0.36388  0.29357  0.63798  1.0000
  H   H85       1.0  0.40706  0.25999  0.55410  1.0000
  C   C86       1.0  0.45071  0.08269  0.72390  1.0000
  C   C87       1.0  0.44564  0.14718  0.66326  1.0000
  C   C88       1.0  0.42168  0.15619  0.66149  1.0000
  C   C89       1.0  0.40892  0.15657  0.62829  1.0000
  C   C90       1.0  0.41999  0.14768  0.59667  1.0000
  C   C91       1.0  0.44397  0.13867  0.59844  1.0000
  C   C92       1.0  0.45688  0.13871  0.63150  1.0000
  H   H86       1.0  0.41286  0.16280  0.68594  1.0000
  H   H87       1.0  0.39041  0.16338  0.62728  1.0000
  H   H88       1.0  0.45263  0.13176  0.57405  1.0000
  H   H89       1.0  0.47541  0.13198  0.63243  1.0000
  C   C93       1.0  0.40685  0.29879  0.88814  1.0000
  H   H90       1.0  0.30962  0.31082  0.95374  1.0000
  H   H91       1.0  0.39930  0.31617  0.65972  1.0000
  N   N9        1.0  0.22648  0.22393  0.56097  1.0000
  H   H92       1.0  0.29671  0.26559  0.98310  1.0000
  C   C94       1.0  0.08552  0.18261  0.60638  1.0000
  C   C95       1.0  0.06649  0.17186  0.58789  1.0000
  C   C96       1.0  0.04992  0.15809  0.60698  1.0000
  C   C97       1.0  0.05218  0.15490  0.64469  1.0000
  C   C98       1.0  0.07080  0.16621  0.66339  1.0000
  C   C99       1.0  0.08741  0.17999  0.64427  1.0000
  H   H93       1.0  0.06475  0.17380  0.55878  1.0000
  H   H94       1.0  0.03553  0.14948  0.59233  1.0000
  H   H95       1.0  0.07267  0.16398  0.69249  1.0000
  H   H96       1.0  0.10199  0.18835  0.65885  1.0000
  C   C100      1.0  0.03519  0.02325  0.77435  1.0000
  C   C101      1.0  0.23617  0.28072  0.97953  1.0000
  H   H97       1.0  0.44064  0.09899  0.73203  1.0000
  C   C102      1.0  0.40983  0.22759  0.64789  1.0000
  C   C103      1.0  0.06699  0.31579  0.89946  1.0000
  H   H98       1.0  0.25547  0.24451  0.58090  1.0000
  C   C104      1.0  0.25238  0.22833  0.56376  1.0000
  C   C105      1.0  0.21589  0.20925  0.58556  1.0000
  C   C106      1.0  0.09177  0.21065  0.91770  1.0000
  C   C107      1.0  0.07064  0.19864  0.90833  1.0000
  C   C108      1.0  0.07027  0.18241  0.87867  1.0000
  C   C109      1.0  0.09118  0.17786  0.85833  1.0000
  C   C110      1.0  0.11231  0.18992  0.86765  1.0000
  C   C111      1.0  0.11263  0.20624  0.89719  1.0000
  H   H99       1.0  0.05447  0.20181  0.92422  1.0000
  H   H100      1.0  0.05394  0.17316  0.87186  1.0000
  H   H101      1.0  0.12858  0.18639  0.85214  1.0000
  H   H102      1.0  0.12911  0.21510  0.90441  1.0000
  H   H103      1.0  0.34051  0.26905  0.93237  1.0000
  H   H104      1.0  0.07471  0.30191  0.91693  1.0000
  N   N10       1.0  0.08978  0.10981  0.62484  1.0000
  C   C112      1.0  0.07269  0.10137  0.60137  1.0000
  C   C113      1.0  0.10799  0.12354  0.61230  1.0000
  C   C114      1.0  0.46228  0.08160  0.69025  1.0000
  H   H105      1.0  0.05796  0.09093  0.61145  1.0000
  H   H106      1.0  0.46541  0.20165  0.70793  1.0000
  C   C115      1.0  0.08916  0.10355  0.66349  1.0000
  H   H107      1.0  0.17736  0.24036  0.51073  1.0000
  S   S41       1.0  0.33223  0.22305  0.49367  1.0000
  C   C116      1.0  0.48745  0.06073  0.64456  1.0000
  C   C117      1.0  0.05258  0.29718  0.77445  1.0000
  C   C118      1.0  0.17703  0.21687  0.55713  1.0000
  S   S42       1.0  0.35053  0.16563  0.49046  1.0000
  H   H108      1.0  0.05120  0.31702  0.77943  1.0000
  C   C119      1.0  0.03500  0.32943  0.85768  1.0000
  H   H109      1.0  0.33402  0.26750  0.88459  1.0000
  H   H110      1.0  0.07102  0.09756  0.67165  1.0000
  H   H111      1.0  0.23346  0.16074  0.53375  1.0000
  H   H112      1.0  0.26245  0.21253  0.57562  1.0000
  C   C120      1.0  0.10932  0.12933  0.57542  1.0000
  S   S43       1.0  0.12935  0.16847  0.49334  1.0000
  H   H113      1.0  0.08906  0.31611  0.81160  1.0000
  H   H114      1.0  0.43030  0.23055  0.69733  1.0000
  H   H115      1.0  0.05968  0.10053  0.54584  1.0000
  H   H116      1.0  0.22672  0.20015  0.60628  1.0000
  C   C121      1.0  0.19104  0.20545  0.58396  1.0000
  H   H117      1.0  0.47478  0.05402  0.62360  1.0000
  C   C122      1.0  0.18795  0.23194  0.53237  1.0000
  N   N11       1.0  0.44997  0.21081  0.65654  1.0000
  C   C123      1.0  0.45026  0.20271  0.62131  1.0000
  C   C124      1.0  0.46590  0.04226  0.73622  1.0000
  C   C125      1.0  0.03000  0.02303  0.73706  1.0000
  H   H118      1.0  0.22124  0.24671  0.51492  1.0000
  H   H119      1.0  0.15778  0.21385  0.55538  1.0000
  C   C126      1.0  0.07350  0.10680  0.56429  1.0000
  H   H120      1.0  0.43002  0.19929  0.57122  1.0000
  C   C127      1.0  0.45269  0.06292  0.74711  1.0000
  H   H121      1.0  0.39371  0.22122  0.59553  1.0000
  H   H122      1.0  0.02690  0.03992  0.72297  1.0000
  Fe  Fe23      1.0  0.11842  0.25960  0.96785  1.0000
  H   H123      1.0  0.46767  0.02676  0.75403  1.0000
  Fe  Fe24      1.0  0.38661  0.28301  0.97404  1.0000
  H   H124      1.0  0.09249  0.12564  0.52269  1.0000
  H   H125      1.0  0.30971  0.27302  0.91594  1.0000
  C   C128      1.0  0.47720  0.04182  0.70230  1.0000
  N   N12       1.0  0.06787  0.28516  0.80194  1.0000
  C   C129      1.0  0.06435  0.26149  0.81023  1.0000
  C   C130      1.0  0.08627  0.29732  0.81797  1.0000
  C   C131      1.0  0.07891  0.24966  0.83616  1.0000
  C   C132      1.0  0.10121  0.28603  0.84391  1.0000
  C   C133      1.0  0.09730  0.26213  0.85326  1.0000
  H   H126      1.0  0.44407  0.06366  0.77352  1.0000
  H   H127      1.0  0.05016  0.25162  0.79694  1.0000
  H   H128      1.0  0.49091  0.29030  0.58802  1.0000
  H   H129      1.0  0.07598  0.23095  0.84305  1.0000
  H   H130      1.0  0.11527  0.29602  0.85741  1.0000
  H   H131      1.0  0.10841  0.25329  0.87387  1.0000
  S   S44       1.0  0.44911  0.31673  0.63343  1.0000
  C   C134      1.0  0.42080  0.31303  0.82927  1.0000
  H   H132      1.0  0.46069  0.09705  0.67249  1.0000
  N   N13       1.0  0.33237  0.30290  0.90836  1.0000
  S   S45       1.0  0.46984  0.32834  0.73136  1.0000
  C   C135      1.0  0.43010  0.20644  0.59876  1.0000
  C   C136      1.0  0.47111  0.20659  0.68008  1.0000
  H   H133      1.0  0.46585  0.19268  0.61074  1.0000
  H   H134      1.0  0.39417  0.23768  0.65820  1.0000
  H   H135      1.0  0.03629  0.29493  0.88450  1.0000
  H   H136      1.0  0.18267  0.19362  0.60320  1.0000
  C   C137      1.0  0.41232  0.29445  0.85136  1.0000
  C   C138      1.0  0.34775  0.31186  0.88325  1.0000
  C   C139      1.0  0.41009  0.32184  0.90275  1.0000
  H   H137      1.0  0.12122  0.13065  0.63101  1.0000
  H   H138      1.0  0.40982  0.27668  0.83980  1.0000
  C   C140      1.0  0.40966  0.21859  0.61243  1.0000
  C   C141      1.0  0.23317  0.17346  0.51159  1.0000
  N   N14       1.0  0.47569  0.06153  0.68014  1.0000
  H   H139      1.0  0.35715  0.29983  0.86427  1.0000
  C   C142      1.0  0.43031  0.22357  0.66972  1.0000
  H   H140      1.0  0.12328  0.14096  0.56587  1.0000
  H   H141      1.0  0.49342  0.07892  0.63671  1.0000
  H   H142      1.0  0.09294  0.11957  0.68074  1.0000
  H   H143      1.0  0.26035  0.23103  0.53647  1.0000
  H   H144      1.0  0.25841  0.25282  0.95416  1.0000
  S   S46       1.0  0.20903  0.26949  0.96057  1.0000
  S   S47       1.0  0.00908  0.32219  0.83207  1.0000
  C   C143      1.0  0.21100  0.17968  0.49431  1.0000
  C   C144      1.0  0.32129  0.31797  0.93320  1.0000
  C   C145      1.0  0.25492  0.18360  0.50062  1.0000
  H   H145      1.0  0.48760  0.02578  0.69412  1.0000
  H   H146      1.0  0.40600  0.32545  0.93101  1.0000
  H   H147      1.0  0.41059  0.11957  0.48864  1.0000
  H   H148      1.0  0.48266  0.19115  0.67013  1.0000
  C   C146      1.0  0.42355  0.33621  0.84376  1.0000
  Fe  Fe25      1.0  0.00335  0.13857  0.79760  1.0000
  H   H149      1.0  0.50218  0.30258  0.66094  1.0000
  S   S48       1.0  0.00304  0.10962  0.75411  1.0000
  S   S49       1.0  0.12325  0.22823  0.48847  1.0000
  C   C147      1.0  0.28005  0.27569  0.98828  1.0000
  C   C148      1.0  0.47580  0.46489  0.22932  1.0000
  S   S50       1.0  0.42168  0.34788  0.04999  1.0000
  S   S51       1.0  0.39233  0.64228  0.42032  1.0000
  S   S52       1.0  0.09330  0.66194  0.18957  1.0000
  C   C149      1.0  0.05984  0.64973  0.36355  1.0000
  S   S53       1.0  0.48339  0.66405  0.32345  1.0000
  C   C150      1.0  0.07747  0.38193  0.07533  1.0000
  H   H150      1.0  0.03064  0.46289  0.21154  1.0000
  Fe  Fe26      1.0  0.03504  0.59106  0.21540  1.0000
  H   H151      1.0  0.48794  0.44932  0.11924  1.0000
  S   S54       1.0  0.03084  0.55146  0.19771  1.0000
  Fe  Fe27      1.0  0.06203  0.63862  0.20538  1.0000
  H   H152      1.0  0.03013  0.50128  0.17676  1.0000
  H   H153      1.0  0.46799  0.40837  0.16928  1.0000
  Fe  Fe28      1.0  0.04041  0.62662  0.27868  1.0000
  S   S55       1.0  0.04560  0.62622  0.33976  1.0000
  C   C151      1.0  0.47043  0.42423  0.18607  1.0000
  S   S56       1.0  0.06736  0.60688  0.24307  1.0000
  S   S57       1.0  0.03217  0.62122  0.17370  1.0000
  Fe  Fe29      1.0  0.04125  0.36981  0.22476  1.0000
  S   S58       1.0  0.06680  0.39050  0.26025  1.0000
  C   C152      1.0  0.10223  0.37667  0.07708  1.0000
  H   H154      1.0  0.06318  0.62916  0.41293  1.0000
  S   S59       1.0  0.02575  0.38793  0.32448  1.0000
  Fe  Fe30      1.0  0.03389  0.41273  0.27761  1.0000
  S   S60       1.0  0.03156  0.45353  0.29049  1.0000
  Fe  Fe31      1.0  0.05649  0.36424  0.30391  1.0000
  H   H155      1.0  0.03357  0.54188  0.27635  1.0000
  S   S61       1.0  0.00897  0.39363  0.23943  1.0000
  C   C153      1.0  0.03187  0.52441  0.22403  1.0000
  C   C154      1.0  0.03087  0.50186  0.20613  1.0000
  C   C155      1.0  0.03117  0.48001  0.22582  1.0000
  C   C156      1.0  0.03227  0.48039  0.26384  1.0000
  C   C157      1.0  0.03289  0.50295  0.28173  1.0000
  C   C158      1.0  0.03282  0.52478  0.26205  1.0000
  H   H156      1.0  0.07360  0.65345  0.11684  1.0000
  S   S62       1.0  0.03344  0.34216  0.26706  1.0000
  C   C159      1.0  0.45541  0.35747  0.16311  1.0000
  C   C160      1.0  0.11288  0.65169  0.29214  1.0000
  C   C161      1.0  0.42222  0.34407  0.12480  1.0000
  S   S63       1.0  0.46772  0.36101  0.20714  1.0000
  Fe  Fe32      1.0  0.00739  0.63984  0.21380  1.0000
  S   S64       1.0  0.08426  0.34655  0.34186  1.0000
  H   H157      1.0  0.44661  0.41180  0.22761  1.0000
  H   H158      1.0  0.09399  0.34979  0.18890  1.0000
  C   C162      1.0  0.06458  0.37588  0.04392  1.0000
  C   C163      1.0  0.46780  0.36428  0.13202  1.0000
  H   H159      1.0  0.11222  0.38029  0.10189  1.0000
  S   S65       1.0  0.04432  0.35965  0.16486  1.0000
  H   H160      1.0  0.04524  0.37946  0.04325  1.0000
  H   H161      1.0  0.47816  0.48091  0.24600  1.0000
  H   H162      1.0  0.03371  0.50356  0.31111  1.0000
  C   C164      1.0  0.41933  0.64766  0.39666  1.0000
  C   C165      1.0  0.43036  0.62906  0.37583  1.0000
  C   C166      1.0  0.45087  0.63341  0.35465  1.0000
  S   S66       1.0  0.03694  0.65901  0.24309  1.0000
  C   C167      1.0  0.10045  0.36025  0.01624  1.0000
  H   H163      1.0  0.10478  0.64106  0.27070  1.0000
  H   H164      1.0  0.42277  0.61131  0.37561  1.0000
  H   H165      1.0  0.45888  0.61908  0.33810  1.0000
  H   H166      1.0  0.43444  0.64880  0.28155  1.0000
  H   H167      1.0  0.46660  0.36709  0.07351  1.0000
  H   H168      1.0  0.42279  0.34237  0.18333  1.0000
  H   H169      1.0  0.50087  0.42029  0.13244  1.0000
  C   C168      1.0  0.06704  0.64600  0.39980  1.0000
  H   H170      1.0  0.45152  0.44836  0.26659  1.0000
  H   H171      1.0  0.06815  0.38962  0.09883  1.0000
  H   H172      1.0  0.10400  0.61542  0.36194  1.0000
  H   H173      1.0  0.48551  0.37175  0.13450  1.0000
  H   H174      1.0  0.13296  0.36095  0.04888  1.0000
  H   H175      1.0  0.39442  0.65625  0.31219  1.0000
  C   C169      1.0  0.07973  0.66368  0.41898  1.0000
  C   C170      1.0  0.09144  0.34131  0.16264  1.0000
  H   H176      1.0  0.09485  0.61176  0.31597  1.0000
  H   H177      1.0  0.12592  0.60485  0.32853  1.0000
  S   S67       1.0  0.00835  0.60909  0.25337  1.0000
  C   C171      1.0  0.46086  0.44668  0.24082  1.0000
  C   C172      1.0  0.46030  0.65650  0.35391  1.0000
  H   H178      1.0  0.08568  0.66035  0.44661  1.0000
  C   C173      1.0  0.06871  0.34255  0.14591  1.0000
  C   C174      1.0  0.45805  0.42624  0.21900  1.0000
  C   C175      1.0  0.49831  0.43953  0.14076  1.0000
  C   C176      1.0  0.43442  0.35119  0.09374  1.0000
  C   C177      1.0  0.45712  0.36153  0.09750  1.0000
  C   C178      1.0  0.12716  0.65564  0.35283  1.0000
  C   C179      1.0  0.43255  0.34751  0.15937  1.0000
  H   H179      1.0  0.49984  0.47629  0.18772  1.0000
  N   N15       1.0  0.11661  0.64224  0.32606  1.0000
  H   H180      1.0  0.10956  0.35177  0.99322  1.0000
  N   N16       1.0  0.48557  0.44185  0.17548  1.0000
  C   C180      1.0  0.48803  0.46219  0.19630  1.0000
  H   H181      1.0  0.12985  0.64833  0.37989  1.0000
  C   C181      1.0  0.11384  0.36576  0.04738  1.0000
  C   C182      1.0  0.11018  0.61730  0.33343  1.0000
  N   N17       1.0  0.07611  0.36510  0.01495  1.0000
  H   H182      1.0  0.40459  0.33640  0.12218  1.0000
  Fe  Fe33      1.0  0.00324  0.36751  0.28479  1.0000
  C   C183      1.0  0.43134  0.66722  0.27027  1.0000
  H   H183      1.0  0.42020  0.66610  0.24519  1.0000
  C   C184      1.0  0.08426  0.66946  0.11618  1.0000
  C   C185      1.0  0.41847  0.42462  0.77894  1.0000
  H   H184      1.0  0.07802  0.37166  0.86733  1.0000
  H   H185      1.0  0.04014  0.58923  0.74177  1.0000
  S   S68       1.0  0.08318  0.63474  0.56135  1.0000
  H   H186      1.0  0.04051  0.66251  0.53027  1.0000
  H   H187      1.0  0.24265  0.66846  0.55352  1.0000
  Fe  Fe34      1.0  0.49812  0.35537  0.72066  1.0000
  Fe  Fe35      1.0  0.44989  0.35845  0.76112  1.0000
  S   S69       1.0  0.42986  0.37187  0.71113  1.0000
  S   S70       1.0  0.43207  0.36082  0.81669  1.0000
  H   H188      1.0  0.03915  0.36480  0.83522  1.0000
  S   S71       1.0  0.48132  0.36967  0.66968  1.0000
  H   H189      1.0  0.42124  0.40516  0.77754  1.0000
  Fe  Fe36      1.0  0.46125  0.39650  0.70531  1.0000
  S   S72       1.0  0.45799  0.43619  0.68862  1.0000
  H   H190      1.0  0.02653  0.54303  0.65022  1.0000
  C   C186      1.0  0.40692  0.65898  0.86010  1.0000
  S   S73       1.0  0.48039  0.38413  0.75581  1.0000
  H   H191      1.0  0.49202  0.65968  0.63947  1.0000
  Fe  Fe37      1.0  0.44397  0.60849  0.72213  1.0000
  S   S74       1.0  0.42388  0.58533  0.76093  1.0000
  S   S75       1.0  0.43207  0.60983  0.66282  1.0000
  Fe  Fe38      1.0  0.48225  0.62085  0.77982  1.0000
  S   S76       1.0  0.46513  0.59786  0.82168  1.0000
  C   C187      1.0  0.06539  0.59068  0.69743  1.0000
  Fe  Fe39      1.0  0.46054  0.57017  0.77671  1.0000
  S   S77       1.0  0.46766  0.53003  0.78973  1.0000
  Fe  Fe40      1.0  0.43039  0.61502  0.80176  1.0000
  S   S78       1.0  0.40235  0.63007  0.84115  1.0000
  S   S79       1.0  0.48066  0.59204  0.73606  1.0000
  S   S80       1.0  0.44744  0.63923  0.76162  1.0000
  H   H192      1.0  0.09061  0.59134  0.61531  1.0000
  C   C188      1.0  0.46655  0.50442  0.76024  1.0000
  C   C189      1.0  0.45938  0.50626  0.72381  1.0000
  C   C190      1.0  0.45724  0.48525  0.70219  1.0000
  C   C191      1.0  0.46213  0.46214  0.71665  1.0000
  C   C192      1.0  0.46952  0.46031  0.75300  1.0000
  C   C193      1.0  0.47176  0.48131  0.77455  1.0000
  H   H193      1.0  0.45526  0.52387  0.71237  1.0000
  H   H194      1.0  0.44621  0.61437  0.89744  1.0000
  H   H195      1.0  0.47321  0.44272  0.76471  1.0000
  H   H196      1.0  0.47729  0.47966  0.80270  1.0000
  C   C194      1.0  0.04674  0.35117  0.85326  1.0000
  C   C195      1.0  0.05625  0.65416  0.65990  1.0000
  H   H197      1.0  0.38640  0.64845  0.56351  1.0000
  C   C196      1.0  0.44148  0.65242  0.53585  1.0000
  H   H198      1.0  0.06855  0.36977  0.95881  1.0000
  H   H199      1.0  0.40717  0.42799  0.72301  1.0000
  H   H200      1.0  0.34513  0.37106  0.90816  1.0000
  C   C197      1.0  0.40488  0.63106  0.60867  1.0000
  C   C198      1.0  0.41406  0.63365  0.64412  1.0000
  H   H201      1.0  0.42030  0.35833  0.89206  1.0000
  H   H202      1.0  0.48811  0.62392  0.88136  1.0000
  H   H203      1.0  0.04107  0.60943  0.58239  1.0000
  H   H204      1.0  0.40737  0.61399  0.59449  1.0000
  H   H205      1.0  0.47019  0.61315  0.59312  1.0000
  H   H206      1.0  0.07579  0.60454  0.71060  1.0000
  C   C199      1.0  0.06456  0.63757  0.59990  1.0000
  C   C200      1.0  0.03750  0.55635  0.66364  1.0000
  H   H207      1.0  0.38939  0.50547  0.79174  1.0000
  C   C201      1.0  0.03698  0.63865  0.66407  1.0000
  C   C202      1.0  0.03123  0.62280  0.63577  1.0000
  C   C203      1.0  0.04516  0.62211  0.60389  1.0000
  H   H208      1.0  0.41239  0.50948  0.75781  1.0000
  H   H209      1.0  0.42988  0.42711  0.83476  1.0000
  C   C204      1.0  0.05781  0.56536  0.64654  1.0000
  H   H210      1.0  0.41873  0.62517  0.96993  1.0000
  H   H211      1.0  0.47883  0.63111  0.64926  1.0000
  H   H212      1.0  0.42413  0.47177  0.83737  1.0000
  H   H213      1.0  0.45117  0.61452  0.53206  1.0000
  C   C205      1.0  0.34123  0.35200  0.90786  1.0000
  N   N18       1.0  0.41229  0.47462  0.78225  1.0000
  H   H214      1.0  0.40148  0.47238  0.72657  1.0000
  C   C206      1.0  0.41034  0.43741  0.74850  1.0000
  C   C207      1.0  0.40724  0.46255  0.75066  1.0000
  H   H215      1.0  0.01546  0.55803  0.71167  1.0000
  C   C208      1.0  0.47648  0.66875  0.94274  1.0000
  C   C209      1.0  0.04523  0.58206  0.71527  1.0000
  C   C210      1.0  0.42004  0.46219  0.81238  1.0000
  C   C211      1.0  0.42334  0.43702  0.81113  1.0000
  C   C212      1.0  0.40836  0.50091  0.78424  1.0000
  Fe  Fe41      1.0  0.45221  0.34337  0.68073  1.0000
  H   H216      1.0  0.31704  0.35445  0.95363  1.0000
  H   H217      1.0  0.45152  0.48694  0.67412  1.0000
  H   H218      1.0  0.09618  0.61032  0.65342  1.0000
  H   H219      1.0  0.10890  0.57983  0.65266  1.0000
  H   H220      1.0  0.42065  0.50916  0.80453  1.0000
  C   C213      1.0  0.45472  0.62953  0.91063  1.0000
  H   H221      1.0  0.01637  0.61080  0.63873  1.0000
  C   C214      1.0  0.39303  0.65057  0.59103  1.0000
  H   H222      1.0  0.06252  0.55882  0.61956  1.0000
  C   C215      1.0  0.09285  0.59132  0.64541  1.0000
  C   C216      1.0  0.47836  0.63488  0.90126  1.0000
  S   S81       1.0  0.13340  0.66773  0.50248  1.0000
  H   H223      1.0  0.04282  0.36165  0.98531  1.0000
  N   N19       1.0  0.07132  0.58247  0.66335  1.0000
  C   C217      1.0  0.03124  0.56478  0.69822  1.0000
  N   N20       1.0  0.46312  0.65055  0.60428  1.0000
  C   C218      1.0  0.06879  0.35499  0.87141  1.0000
  S   S82       1.0  0.02098  0.63952  0.70534  1.0000
  C   C219      1.0  0.46278  0.63019  0.58300  1.0000
  C   C220      1.0  0.45196  0.63081  0.54850  1.0000
  S   S83       1.0  0.10749  0.34192  0.91508  1.0000
  C   C221      1.0  0.06979  0.65388  0.62776  1.0000
  C   C222      1.0  0.47487  0.64993  0.64013  1.0000
  N   N21       1.0  0.44222  0.64359  0.93529  1.0000
  H   H224      1.0  0.43249  0.65300  0.50951  1.0000
  C   C223      1.0  0.41056  0.65573  0.66232  1.0000
  C   C224      1.0  0.41783  0.63716  0.94593  1.0000
  H   H225      1.0  0.08473  0.66580  0.62500  1.0000
  H   H226      1.0  0.06076  0.66651  0.68165  1.0000
  C   C225      1.0  0.07915  0.33719  0.89421  1.0000
  H   H227      1.0  0.40659  0.65358  0.95250  1.0000
  H   H228      1.0  0.40844  0.62774  0.92332  1.0000
  H   H229      1.0  0.36513  0.34336  0.86316  1.0000
  C   C226      1.0  0.41819  0.34048  0.88057  1.0000
  H   H230      1.0  0.46273  0.65829  0.66097  1.0000
  H   H231      1.0  0.37140  0.66187  0.88355  1.0000
  C   C227      1.0  0.48931  0.65457  0.91747  1.0000
  Fe  Fe42      1.0  0.10558  0.66689  0.54686  1.0000
  H   H232      1.0  0.41741  0.65790  0.68971  1.0000
  H   H233      1.0  0.00938  0.66736  0.51647  1.0000
  H   H234      1.0  0.44335  0.66148  0.84092  1.0000
  H   H235      1.0  0.06602  0.33937  0.97507  1.0000
  C   C228      1.0  0.06261  0.35874  0.98204  1.0000
  C   C229      1.0  0.32547  0.34273  0.93328  1.0000
  C   C230      1.0  0.45281  0.66295  0.95142  1.0000
  C   C231      1.0  0.35238  0.33651  0.88255  1.0000
  Fe  Fe43      1.0  0.48058  0.84313  0.29731  1.0000
  S   S84       1.0  0.45571  0.86713  0.33055  1.0000
  C   C232      1.0  0.02952  0.68878  0.15084  1.0000
  Fe  Fe44      1.0  0.45530  0.85814  0.22595  1.0000
  S   S85       1.0  0.42827  0.88257  0.25441  1.0000
  S   S86       1.0  0.45424  0.85735  0.16440  1.0000
  Fe  Fe45      1.0  0.46009  0.89512  0.28661  1.0000
  S   S87       1.0  0.46812  0.93453  0.30019  1.0000
  Fe  Fe46      1.0  0.42648  0.85243  0.29516  1.0000
  S   S88       1.0  0.39200  0.83682  0.31604  1.0000
  S   S89       1.0  0.48760  0.87198  0.25619  1.0000
  S   S90       1.0  0.45088  0.82721  0.26381  1.0000
  H   H236      1.0  0.45543  0.83971  0.40494  1.0000
  C   C233      1.0  0.44288  0.98192  0.22275  1.0000
  N   N22       1.0  0.49133  0.83571  0.42649  1.0000
  Fe  Fe47      1.0  0.37827  0.72763  0.45639  1.0000
  S   S91       1.0  0.40535  0.75303  0.43241  1.0000
  S   S92       1.0  0.35485  0.70366  0.42304  1.0000
  H   H237      1.0  0.37296  0.68249  0.35641  1.0000
  S   S93       1.0  0.09935  0.78410  0.01205  1.0000
  Fe  Fe48      1.0  0.12274  0.75267  0.03157  1.0000
  S   S94       1.0  0.14096  0.77315  0.07614  1.0000
  S   S95       1.0  0.10622  0.71597  0.03902  1.0000
  Fe  Fe49      1.0  0.11918  0.80493  0.05462  1.0000
  S   S96       1.0  0.09949  0.83338  0.08909  1.0000
  Fe  Fe50      1.0  0.16896  0.78184  0.03390  1.0000
  S   S97       1.0  0.20916  0.78036  0.04975  1.0000
  H   H238      1.0  0.03626  0.85059  0.01699  1.0000
  Fe  Fe51      1.0  0.32916  0.70425  0.47068  1.0000
  Fe  Fe52      1.0  0.38437  0.77955  0.02462  1.0000
  S   S98       1.0  0.39013  0.77966  0.08574  1.0000
  H   H239      1.0  0.04243  0.67632  0.16506  1.0000
  C   C234      1.0  0.23544  0.77890  0.02184  1.0000
  C   C235      1.0  0.01550  0.72090  0.19274  1.0000
  C   C236      1.0  0.27974  0.77806  0.01769  1.0000
  C   C237      1.0  0.25836  0.77997  0.03842  1.0000
  H   H240      1.0  0.29716  0.77891  0.03095  1.0000
  H   H241      1.0  0.25962  0.78231  0.06758  1.0000
  C   C238      1.0  0.10167  0.70215  0.08160  1.0000
  N   N23       1.0  0.06987  0.85831  0.99139  1.0000
  C   C239      1.0  0.39527  0.71306  0.34697  1.0000
  C   C240      1.0  0.23963  0.71354  0.47384  1.0000
  H   H242      1.0  0.50207  0.80343  0.45428  1.0000
  H   H243      1.0  0.01104  0.68182  0.15358  1.0000
  Fe  Fe53      1.0  0.11297  0.70095  0.48344  1.0000
  C   C241      1.0  0.07193  0.82743  0.11092  1.0000
  C   C242      1.0  0.06109  0.84520  0.13352  1.0000
  C   C243      1.0  0.03918  0.84102  0.15132  1.0000
  C   C244      1.0  0.02788  0.81902  0.14649  1.0000
  C   C245      1.0  0.03842  0.80150  0.12317  1.0000
  C   C246      1.0  0.06039  0.80560  0.10559  1.0000
  H   H244      1.0  0.06985  0.86218  0.13769  1.0000
  H   H245      1.0  0.03128  0.85466  0.16922  1.0000
  H   H246      1.0  0.02957  0.78462  0.11875  1.0000
  H   H247      1.0  0.06840  0.79187  0.08795  1.0000
  C   C247      1.0  0.43834  0.83433  0.14218  1.0000
  C   C248      1.0  0.43475  0.83536  0.10440  1.0000
  C   C249      1.0  0.42082  0.81808  0.08638  1.0000
  C   C250      1.0  0.41052  0.79960  0.10611  1.0000
  C   C251      1.0  0.41489  0.79807  0.14364  1.0000
  C   C252      1.0  0.42859  0.81544  0.16167  1.0000
  H   H248      1.0  0.44236  0.84983  0.08908  1.0000
  H   H249      1.0  0.41759  0.81941  0.05741  1.0000
  H   H250      1.0  0.40714  0.78370  0.15901  1.0000
  H   H251      1.0  0.43137  0.81435  0.19070  1.0000
  C   C253      1.0  0.45947  0.96129  0.27606  1.0000
  C   C254      1.0  0.46724  0.98375  0.28905  1.0000
  C   C255      1.0  0.16973  0.70684  0.04835  1.0000
  C   C256      1.0  0.44666  0.96063  0.24320  1.0000
  H   H252      1.0  0.15545  0.70453  0.06789  1.0000
  H   H253      1.0  0.44031  0.94361  0.23297  1.0000
  C   C257      1.0  0.39554  0.81275  0.34716  1.0000
  C   C258      1.0  0.37515  0.80190  0.36157  1.0000
  C   C259      1.0  0.37772  0.78316  0.38719  1.0000
  C   C260      1.0  0.40074  0.77534  0.39873  1.0000
  C   C261      1.0  0.42109  0.78583  0.38368  1.0000
  C   C262      1.0  0.41853  0.80438  0.35794  1.0000
  H   H254      1.0  0.35729  0.80826  0.35333  1.0000
  H   H255      1.0  0.36191  0.77523  0.39864  1.0000
  H   H256      1.0  0.43893  0.77965  0.39216  1.0000
  H   H257      1.0  0.43434  0.81237  0.34664  1.0000
  C   C263      1.0  0.08506  0.68540  0.40215  1.0000
  C   C264      1.0  0.49748  0.85852  0.41695  1.0000
  H   H258      1.0  0.47700  0.98457  0.31456  1.0000
  H   H259      1.0  0.01982  0.98781  0.33950  1.0000
  S   S99       1.0  0.36004  0.80693  0.99666  1.0000
  H   H260      1.0  0.44944  0.67377  0.26311  1.0000
  S   S100      1.0  0.14875  0.81574  0.01683  1.0000
  H   H261      1.0  0.49987  0.75243  0.29556  1.0000
  C   C265      1.0  0.07720  0.68945  0.36626  1.0000
  H   H262      1.0  0.46456  0.96368  0.12462  1.0000
  H   H263      1.0  0.47346  0.81487  0.38673  1.0000
  H   H264      1.0  0.48603  0.86919  0.39877  1.0000
  H   H265      1.0  0.06582  0.76221  0.16085  1.0000
  H   H266      1.0  0.46086  0.81334  0.43181  1.0000
  H   H267      1.0  0.42105  0.68504  0.41261  1.0000
  S   S101      1.0  0.36793  0.74724  0.99746  1.0000
  H   H268      1.0  0.06124  0.83066  0.02839  1.0000
  C   C266      1.0  0.08742  0.68166  0.08319  1.0000
  C   C267      1.0  0.46922  0.82542  0.41182  1.0000
  N   N24       1.0  0.19074  0.71738  0.05847  1.0000
  N   N25       1.0  0.03124  0.71312  0.16628  1.0000
  H   H269      1.0  0.06203  0.72123  0.13464  1.0000
  H   H270      1.0  0.45671  0.69288  0.37497  1.0000
  C   C268      1.0  0.06483  0.67160  0.34688  1.0000
  C   C269      1.0  0.19374  0.72626  0.09581  1.0000
  C   C270      1.0  0.01706  0.74411  0.20774  1.0000
  C   C271      1.0  0.11261  0.71048  0.11348  1.0000
  H   H271      1.0  0.07904  0.67498  0.05861  1.0000
  H   H272      1.0  0.22474  0.73001  0.04116  1.0000
  C   C272      1.0  0.11905  0.67541  0.28467  1.0000
  H   H273      1.0  0.05987  0.86085  0.04686  1.0000
  H   H274      1.0  0.03641  0.77728  0.20714  1.0000
  S   S102      1.0  0.39868  0.69702  0.48366  1.0000
  H   H275      1.0  0.11874  0.70429  0.17072  1.0000
  H   H276      1.0  0.38630  0.72467  0.36698  1.0000
  H   H277      1.0  0.43364  0.98101  0.19682  1.0000
  H   H278      1.0  0.49627  0.71395  0.32903  1.0000
  H   H279      1.0  0.18698  0.74534  0.09770  1.0000
  C   C273      1.0  0.20835  0.72103  0.03339  1.0000
  H   H280      1.0  0.45986  0.91961  0.13527  1.0000
  H   H281      1.0  0.08115  0.70627  0.35317  1.0000
  C   C274      1.0  0.05601  0.84977  0.02229  1.0000
  H   H282      1.0  0.03391  0.68863  0.12140  1.0000
  H   H283      1.0  0.21306  0.72567  0.10409  1.0000
  C   C275      1.0  0.41480  0.72148  0.32763  1.0000
  C   C276      1.0  0.05161  0.75070  0.16996  1.0000
  S   S103      1.0  0.28873  0.71277  0.46184  1.0000
  C   C277      1.0  0.10983  0.69800  0.14635  1.0000
  C   C278      1.0  0.09564  0.67745  0.14787  1.0000
  N   N26       1.0  0.36966  0.83627  0.15481  1.0000
  C   C279      1.0  0.37920  0.84947  0.18269  1.0000
  C   C280      1.0  0.35980  0.81441  0.16144  1.0000
  C   C281      1.0  0.37921  0.84073  0.21825  1.0000
  C   C282      1.0  0.35971  0.80506  0.19668  1.0000
  C   C283      1.0  0.36948  0.81837  0.22523  1.0000
  C   C284      1.0  0.36903  0.84617  0.11797  1.0000
  H   H284      1.0  0.38721  0.86670  0.17748  1.0000
  H   H285      1.0  0.35255  0.80377  0.13924  1.0000
  H   H286      1.0  0.38676  0.85116  0.24037  1.0000
  H   H287      1.0  0.35228  0.78754  0.20172  1.0000
  H   H288      1.0  0.36960  0.81145  0.25280  1.0000
  H   H289      1.0  0.35306  0.85857  0.11467  1.0000
  H   H290      1.0  0.38571  0.85610  0.11244  1.0000
  H   H291      1.0  0.36818  0.83155  0.09710  1.0000
  C   C285      1.0  0.03518  0.75910  0.19610  1.0000
  C   C286      1.0  0.20523  0.71394  0.99714  1.0000
  H   H292      1.0  0.42085  0.73967  0.33256  1.0000
  C   C287      1.0  0.04932  0.72755  0.15518  1.0000
  S   S104      1.0  0.10309  0.70690  0.42414  1.0000
  H   H293      1.0  0.13379  0.70796  0.30695  1.0000
  C   C288      1.0  0.44964  0.67492  0.37543  1.0000
  H   H294      1.0  0.00436  0.75048  0.22829  1.0000
  H   H295      1.0  0.12357  0.72626  0.11273  1.0000
  H   H296      1.0  0.18370  0.71526  0.11541  1.0000
  H   H297      1.0  0.23871  0.72641  0.45187  1.0000
  N   N27       1.0  0.49771  0.95760  0.20173  1.0000
  C   C289      1.0  0.16610  0.69928  0.01243  1.0000
  C   C290      1.0  0.47340  0.95492  0.14761  1.0000
  C   C291      1.0  0.47067  0.93032  0.15364  1.0000
  C   C292      1.0  0.48174  0.91947  0.18375  1.0000
  H   H298      1.0  0.14915  0.69137  0.00451  1.0000
  C   C293      1.0  0.48723  0.96835  0.17193  1.0000
  H   H299      1.0  0.47954  0.90039  0.18866  1.0000
  H   H300      1.0  0.10335  0.84541  0.01374  1.0000
  C   C294      1.0  0.49530  0.93344  0.20768  1.0000
  H   H301      1.0  0.44188  0.71274  0.28775  1.0000
  Fe  Fe54      1.0  0.37448  0.67330  0.45182  1.0000
  H   H302      1.0  0.05924  0.67475  0.31907  1.0000
  H   H303      1.0  0.48874  0.98762  0.16760  1.0000
  H   H304      1.0  0.20134  0.71699  0.48526  1.0000
  S   S105      1.0  0.15211  0.75888  0.99073  1.0000
  C   C295      1.0  0.26216  0.70300  0.48383  1.0000
  H   H305      1.0  0.11556  0.68291  0.25789  1.0000
  C   C296      1.0  0.38772  0.68956  0.34094  1.0000
  C   C297      1.0  0.09438  0.85463  0.99131  1.0000
  C   C298      1.0  0.42658  0.70616  0.30247  1.0000
  C   C299      1.0  0.12938  0.68937  0.31204  1.0000
  C   C300      1.0  0.00428  0.99470  0.32300  1.0000
  H   H306      1.0  0.14099  0.69029  0.36813  1.0000
  N   N28       1.0  0.41921  0.68304  0.29709  1.0000
  C   C301      1.0  0.13363  0.67940  0.34628  1.0000
  C   C302      1.0  0.39999  0.67471  0.31583  1.0000
  C   C303      1.0  0.42938  0.67050  0.39689  1.0000
  S   S106      1.0  0.08397  0.69809  0.52466  1.0000
  H   H307      1.0  0.25877  0.76069  0.52133  1.0000
  C   C304      1.0  0.27110  0.71338  0.59603  1.0000
  N   N29       1.0  0.01884  0.68179  0.56859  1.0000
  Fe  Fe55      1.0  0.10616  0.72125  0.56140  1.0000
  S   S107      1.0  0.08072  0.74316  0.59878  1.0000
  C   C305      1.0  0.39875  0.67528  0.64465  1.0000
  S   S108      1.0  0.12695  0.68953  0.58522  1.0000
  Fe  Fe56      1.0  0.03048  0.91086  0.72486  1.0000
  S   S109      1.0  0.00516  0.88971  0.75937  1.0000
  S   S110      1.0  0.02505  0.95134  0.71193  1.0000
  Fe  Fe57      1.0  0.05922  0.86470  0.70256  1.0000
  S   S111      1.0  0.03672  0.84104  0.73639  1.0000
  S   S112      1.0  0.08961  0.84793  0.66870  1.0000
  C   C306      1.0  0.21834  0.70817  0.49267  1.0000
  Fe  Fe58      1.0  0.03887  0.86981  0.77918  1.0000
  S   S113      1.0  0.04108  0.85910  0.83879  1.0000
  S   S114      1.0  0.02765  0.88473  0.67724  1.0000
  S   S115      1.0  0.06427  0.89238  0.74727  1.0000
  H   H308      1.0  0.03140  0.83221  0.60260  1.0000
  Fe  Fe59      1.0  0.36979  0.69788  0.52577  1.0000
  S   S116      1.0  0.12994  0.80565  0.91723  1.0000
  Fe  Fe60      1.0  0.39576  0.75198  0.95383  1.0000
  S   S117      1.0  0.37178  0.77706  0.92094  1.0000
  S   S118      1.0  0.42359  0.72601  0.92818  1.0000
  S   S119      1.0  0.13390  0.72729  0.51766  1.0000
  C   C307      1.0  0.26297  0.68629  0.51218  1.0000
  C   C308      1.0  0.07176  0.87849  0.93391  1.0000
  Fe  Fe61      1.0  0.38861  0.80659  0.95324  1.0000
  S   S120      1.0  0.40281  0.84110  0.92992  1.0000
  H   H309      1.0  0.06263  0.88713  0.91100  1.0000
  S   S121      1.0  0.47548  0.83843  0.79636  1.0000
  C   C309      1.0  0.41581  0.70178  0.89942  1.0000
  C   C310      1.0  0.39309  0.69160  0.90082  1.0000
  H   H310      1.0  0.07675  0.81306  0.78561  1.0000
  C   C311      1.0  0.24761  0.72289  0.59105  1.0000
  H   H311      1.0  0.00519  0.79302  0.64495  1.0000
  C   C312      1.0  0.43369  0.69110  0.87708  1.0000
  H   H312      1.0  0.37920  0.69968  0.91797  1.0000
  H   H313      1.0  0.31656  0.70103  0.60576  1.0000
  H   H314      1.0  0.45128  0.69889  0.87570  1.0000
  C   C313      1.0  0.42363  0.83974  0.89359  1.0000
  C   C314      1.0  0.42462  0.82011  0.86942  1.0000
  C   C315      1.0  0.44048  0.82010  0.83965  1.0000
  C   C316      1.0  0.45587  0.83942  0.83420  1.0000
  C   C317      1.0  0.45511  0.85888  0.85863  1.0000
  C   C318      1.0  0.43884  0.85915  0.88793  1.0000
  H   H315      1.0  0.41296  0.80508  0.87340  1.0000
  H   H316      1.0  0.44094  0.80496  0.82091  1.0000
  H   H317      1.0  0.46678  0.87391  0.85466  1.0000
  H   H318      1.0  0.43808  0.87447  0.90636  1.0000
  H   H319      1.0  0.39650  0.69243  0.65866  1.0000
  H   H320      1.0  0.09806  0.84743  0.75477  1.0000
  C   C319      1.0  0.01348  0.83565  0.61537  1.0000
  H   H321      1.0  0.22483  0.74680  0.55899  1.0000
  C   C320      1.0  0.06553  0.84248  0.85840  1.0000
  C   C321      1.0  0.08886  0.84365  0.84455  1.0000
  C   C322      1.0  0.10829  0.83174  0.86243  1.0000
  C   C323      1.0  0.10465  0.81895  0.89468  1.0000
  C   C324      1.0  0.08128  0.81763  0.90844  1.0000
  C   C325      1.0  0.06179  0.82928  0.89025  1.0000
  H   H322      1.0  0.09199  0.85444  0.82082  1.0000
  H   H323      1.0  0.12638  0.83301  0.85189  1.0000
  H   H324      1.0  0.07825  0.80776  0.93316  1.0000
  H   H325      1.0  0.04377  0.82840  0.90121  1.0000
  C   C326      1.0  0.34259  0.83810  0.89730  1.0000
  C   C327      1.0  0.10815  0.86238  0.96217  1.0000
  H   H326      1.0  0.25430  0.77111  0.93427  1.0000
  C   C328      1.0  0.08459  0.80190  0.76407  1.0000
  H   H327      1.0  0.10709  0.87985  0.91004  1.0000
  C   C329      1.0  0.08321  0.77293  0.61583  1.0000
  C   C330      1.0  0.06457  0.78253  0.63787  1.0000
  C   C331      1.0  0.06608  0.80568  0.65350  1.0000
  C   C332      1.0  0.08624  0.81954  0.64715  1.0000
  C   C333      1.0  0.10480  0.81003  0.62487  1.0000
  C   C334      1.0  0.10332  0.78680  0.60924  1.0000
  H   H328      1.0  0.04907  0.77181  0.64335  1.0000
  H   H329      1.0  0.05189  0.81259  0.67106  1.0000
  H   H330      1.0  0.12049  0.82061  0.61985  1.0000
  H   H331      1.0  0.11777  0.77959  0.59230  1.0000
  N   N30       1.0  0.49695  0.80888  0.70106  1.0000
  C   C335      1.0  0.03129  0.97858  0.73610  1.0000
  C   C336      1.0  0.03750  0.97881  0.77302  1.0000
  H   H332      1.0  0.12474  0.84004  0.73003  1.0000
  H   H333      1.0  0.27419  0.69914  0.61572  1.0000
  H   H334      1.0  0.04017  0.96191  0.78725  1.0000
  H   H335      1.0  0.23266  0.71585  0.60620  1.0000
  C   C337      1.0  0.03932  0.00099  0.79198  1.0000
  C   C338      1.0  0.39032  0.67290  0.60874  1.0000
  C   C339      1.0  0.07493  0.77935  0.75670  1.0000
  H   H336      1.0  0.48472  0.68416  0.95549  1.0000
  C   C340      1.0  0.28544  0.73820  0.54904  1.0000
  H   H337      1.0  0.47702  0.73194  0.91844  1.0000
  H   H338      1.0  0.04464  0.70950  0.57220  1.0000
  H   H339      1.0  0.12747  0.85849  0.96154  1.0000
  C   C341      1.0  0.33083  0.80054  0.85094  1.0000
  C   C342      1.0  0.35756  0.83225  0.86783  1.0000
  C   C343      1.0  0.35169  0.81326  0.84467  1.0000
  H   H340      1.0  0.12794  0.80237  0.70067  1.0000
  H   H341      1.0  0.44278  0.67432  0.97060  1.0000
  H   H342      1.0  0.47321  0.79855  0.74311  1.0000
  H   H343      1.0  0.31699  0.69638  0.55724  1.0000
  H   H344      1.0  0.36356  0.80816  0.82237  1.0000
  N   N31       1.0  0.28967  0.72120  0.57529  1.0000
  C   C344      1.0  0.49202  0.79488  0.73367  1.0000
  H   H345      1.0  0.46901  0.80826  0.90169  1.0000
  C   C345      1.0  0.11333  0.79583  0.71700  1.0000
  C   C346      1.0  0.48790  0.83208  0.69832  1.0000
  C   C347      1.0  0.27849  0.77481  0.97998  1.0000
  C   C348      1.0  0.11304  0.83371  0.75224  1.0000
  C   C349      1.0  0.24168  0.68096  0.53108  1.0000
  H   H346      1.0  0.28835  0.82470  0.93134  1.0000
  C   C350      1.0  0.21929  0.69216  0.52192  1.0000
  H   H347      1.0  0.31489  0.82447  0.95929  1.0000
  S   S122      1.0  0.30484  0.77198  0.95232  1.0000
  Fe  Fe62      1.0  0.34500  0.77496  0.96715  1.0000
  C   C351      1.0  0.23419  0.77572  0.98410  1.0000
  C   C352      1.0  0.26219  0.74808  0.54333  1.0000
  N   N32       1.0  0.10335  0.80998  0.74399  1.0000
  C   C353      1.0  0.49304  0.84606  0.66803  1.0000
  C   C354      1.0  0.47937  0.79143  0.89860  1.0000
  S   S123      1.0  0.35133  0.73100  0.50193  1.0000
  S   S124      1.0  0.19392  0.68785  0.55057  1.0000
  H   H348      1.0  0.32634  0.78537  0.83366  1.0000
  H   H349      1.0  0.12361  0.83297  0.77795  1.0000
  H   H350      1.0  0.30448  0.85207  0.93731  1.0000
  H   H351      1.0  0.49409  0.77514  0.72855  1.0000
  C   C355      1.0  0.25557  0.77366  0.96339  1.0000
  N   N33       1.0  0.32191  0.82585  0.90286  1.0000
  H   H352      1.0  0.37395  0.84202  0.86362  1.0000
  C   C356      1.0  0.03109  0.69950  0.58622  1.0000
  H   H353      1.0  0.00691  0.85433  0.60911  1.0000
  H   H354      1.0  0.04343  0.00087  0.82075  1.0000
  C   C357      1.0  0.30666  0.83218  0.93416  1.0000
  C   C358      1.0  0.47040  0.76997  0.91174  1.0000
  S   S125      1.0  0.34667  0.67127  0.49648  1.0000
  H   H355      1.0  0.05983  0.77323  0.77239  1.0000
  C   C359      1.0  0.24317  0.74028  0.56442  1.0000
  S   S126      1.0  0.37759  0.69847  0.58638  1.0000
  Fe  Fe63      1.0  0.15327  0.69358  0.53875  1.0000
  H   H356      1.0  0.02955  0.69188  0.51532  1.0000
  C   C360      1.0  0.10415  0.77317  0.70892  1.0000
  C   C361      1.0  0.31602  0.80716  0.88027  1.0000
  C   C362      1.0  0.31390  0.71005  0.57910  1.0000
  H   H357      1.0  0.34787  0.85229  0.91596  1.0000
  H   H358      1.0  0.07725  0.74759  0.72239  1.0000
  Fe  Fe64      1.0  0.13032  0.79242  0.97559  1.0000
  C   C363      1.0  0.09673  0.87439  0.93332  1.0000
  H   H359      1.0  0.30003  0.79691  0.88527  1.0000
  C   C364      1.0  0.50167  0.79113  0.88129  1.0000
  C   C365      1.0  0.48431  0.74855  0.90844  1.0000
  H   H360      1.0  0.45272  0.76990  0.92430  1.0000
  C   C366      1.0  0.08475  0.76497  0.72883  1.0000
  H   H361      1.0  0.11158  0.76238  0.68665  1.0000
  C   C367      1.0  0.02795  0.00086  0.71819  1.0000
  C   C368      1.0  0.02672  0.70472  0.62286  1.0000
  H   H362      1.0  0.48650  0.86471  0.66644  1.0000
  H   H363      1.0  0.01567  0.83487  0.64538  1.0000
  H   H364      1.0  0.03906  0.87301  0.96307  1.0000
  H   H365      1.0  0.21675  0.77479  0.97087  1.0000
  H   H366      1.0  0.03710  0.71832  0.63675  1.0000
  C   C369      1.0  0.05851  0.87021  0.96329  1.0000
  Fe  Fe65      1.0  0.00507  0.86241  0.71360  1.0000
  H   H367      1.0  0.29986  0.74345  0.53122  1.0000
  C   C370      1.0  0.00969  0.69165  0.64153  1.0000
  S   S127      1.0  0.41398  0.78192  0.98390  1.0000
  H   H368      1.0  0.28003  0.67778  0.51998  1.0000
  H   H369      1.0  0.32797  0.72383  0.57717  1.0000
  H   H370      1.0  0.47690  0.84005  0.71985  1.0000
  H   H371      1.0  0.02325  0.00094  0.68962  1.0000
  H   H372      1.0  0.45241  0.68773  0.60940  1.0000
  H   H373      1.0  0.43296  0.68974  0.54886  1.0000
  H   H374      1.0  0.00674  0.69475  0.67035  1.0000
  C   C371      1.0  0.02482  0.67556  0.53083  1.0000
  H   H375      1.0  0.21904  0.71749  0.97727  1.0000
  H   H376      1.0  0.18107  0.69775  0.95853  1.0000
  C   C372      1.0  0.18396  0.70293  0.98668  1.0000
  C   C373      1.0  0.44188  0.67307  0.55778  1.0000
  C   C374      1.0  0.45284  0.67180  0.59211  1.0000
  C   C375      1.0  0.38872  0.67018  0.88134  1.0000
  C   C376      1.0  0.42921  0.66990  0.85725  1.0000
  Fe  Fe66      1.0  0.86507  0.19917  0.04051  1.0000
  S   S128      1.0  0.87116  0.19924  0.10152  1.0000
  H   H377      1.0  0.80573  0.21687  0.42926  1.0000
  C   C377      1.0  0.56685  0.29648  0.31339  1.0000
  H   H378      1.0  0.61666  0.28933  0.17040  1.0000
  Fe  Fe67      1.0  0.65189  0.19277  0.04860  1.0000
  H   H379      1.0  0.95994  0.13268  0.13324  1.0000
  S   S129      1.0  0.69215  0.18794  0.06310  1.0000
  Fe  Fe68      1.0  0.60294  0.16852  0.05719  1.0000
  S   S130      1.0  0.58445  0.19480  0.01946  1.0000
  S   S131      1.0  0.58019  0.13745  0.07521  1.0000
  H   H380      1.0  0.51665  0.10623  0.15250  1.0000
  Fe  Fe69      1.0  0.60447  0.22315  0.05021  1.0000
  S   S132      1.0  0.57875  0.25534  0.06046  1.0000
  S   S133      1.0  0.63442  0.16197  0.01952  1.0000
  S   S134      1.0  0.62157  0.19691  0.09000  1.0000
  S   S135      1.0  0.62398  0.30594  0.41507  1.0000
  Fe  Fe70      1.0  0.88731  0.26401  0.45117  1.0000
  S   S136      1.0  0.86623  0.29298  0.42122  1.0000
  S   S137      1.0  0.91064  0.24093  0.41283  1.0000
  C   C378      1.0  0.95264  0.27969  0.36551  1.0000
  C   C379      1.0  0.98685  0.30324  0.34997  1.0000
  Fe  Fe71      1.0  0.88535  0.31886  0.45744  1.0000
  H   H381      1.0  0.50800  0.31602  0.08895  1.0000
  Fe  Fe72      1.0  0.93432  0.10548  0.23753  1.0000
  S   S138      1.0  0.91264  0.08605  0.27916  1.0000
  S   S139      1.0  0.92154  0.10831  0.17868  1.0000
  Fe  Fe73      1.0  0.97732  0.10993  0.28983  1.0000
  S   S140      1.0  0.95885  0.09057  0.33430  1.0000
  Fe  Fe74      1.0  0.94695  0.06446  0.29060  1.0000
  S   S141      1.0  0.94906  0.02395  0.30374  1.0000
  Fe  Fe75      1.0  0.92646  0.11384  0.31871  1.0000
  S   S142      1.0  0.90330  0.13118  0.36343  1.0000
  S   S143      1.0  0.96798  0.08240  0.24706  1.0000
  S   S144      1.0  0.94561  0.13477  0.27618  1.0000
  C   C380      1.0  0.90877  0.21014  0.40072  1.0000
  C   C381      1.0  0.89493  0.19413  0.42028  1.0000
  C   C382      1.0  0.89382  0.16982  0.40900  1.0000
  C   C383      1.0  0.90627  0.16145  0.37794  1.0000
  C   C384      1.0  0.91997  0.17753  0.35837  1.0000
  C   C385      1.0  0.92141  0.20168  0.36994  1.0000
  H   H382      1.0  0.88520  0.20043  0.44411  1.0000
  H   H383      1.0  0.88319  0.15746  0.42432  1.0000
  H   H384      1.0  0.92926  0.17144  0.33408  1.0000
  H   H385      1.0  0.93210  0.21398  0.35460  1.0000
  H   H386      1.0  0.92368  0.15822  0.01615  1.0000
  C   C386      1.0  0.78078  0.23911  0.06006  1.0000
  H   H387      1.0  0.54581  0.20966  0.08567  1.0000
  H   H388      1.0  0.96877  0.27990  0.31233  1.0000
  C   C387      1.0  0.53132  0.19771  0.09225  1.0000
  H   H389      1.0  0.98004  0.30401  0.46543  1.0000
  C   C388      1.0  0.53081  0.13878  0.17520  1.0000
  C   C389      1.0  0.54795  0.15669  0.17094  1.0000
  C   C390      1.0  0.56340  0.15639  0.14069  1.0000
  C   C391      1.0  0.56204  0.13797  0.11465  1.0000
  C   C392      1.0  0.54522  0.11980  0.11928  1.0000
  C   C393      1.0  0.52957  0.12026  0.14930  1.0000
  H   H390      1.0  0.54913  0.17098  0.19099  1.0000
  H   H391      1.0  0.57637  0.17039  0.13754  1.0000
  H   H392      1.0  0.54418  0.10539  0.09937  1.0000
  H   H393      1.0  0.61116  0.29353  0.24994  1.0000
  H   H394      1.0  0.53856  0.17330  0.04738  1.0000
  C   C394      1.0  0.93072  0.11101  0.02008  1.0000
  H   H395      1.0  0.95167  0.01696  0.22435  1.0000
  C   C395      1.0  0.00102  0.17471  0.36918  1.0000
  Fe  Fe76      1.0  0.83841  0.29030  0.46567  1.0000
  C   C396      1.0  0.58395  0.30920  0.15596  1.0000
  C   C397      1.0  0.60160  0.29061  0.15161  1.0000
  C   C398      1.0  0.60012  0.27378  0.12283  1.0000
  C   C399      1.0  0.58102  0.27554  0.09789  1.0000
  C   C400      1.0  0.56327  0.29403  0.10235  1.0000
  C   C401      1.0  0.56465  0.31076  0.13133  1.0000
  C   C402      1.0  0.76723  0.21663  0.11026  1.0000
  H   H396      1.0  0.61392  0.25967  0.11968  1.0000
  H   H397      1.0  0.54861  0.29561  0.08295  1.0000
  H   H398      1.0  0.63250  0.27268  0.30146  1.0000
  C   C403      1.0  0.88387  0.17352  0.12358  1.0000
  C   C404      1.0  0.88505  0.15094  0.10636  1.0000
  C   C405      1.0  0.89569  0.13091  0.12435  1.0000
  C   C406      1.0  0.90557  0.13332  0.15942  1.0000
  C   C407      1.0  0.90404  0.15582  0.17689  1.0000
  C   C408      1.0  0.89310  0.17581  0.15906  1.0000
  H   H399      1.0  0.87782  0.14890  0.07919  1.0000
  H   H400      1.0  0.89667  0.11353  0.11076  1.0000
  H   H401      1.0  0.91164  0.15791  0.20383  1.0000
  H   H402      1.0  0.89217  0.19322  0.17259  1.0000
  C   C409      1.0  0.71774  0.19211  0.03509  1.0000
  C   C410      1.0  0.74019  0.18157  0.04543  1.0000
  C   C411      1.0  0.76133  0.18575  0.02552  1.0000
  H   H403      1.0  0.74127  0.17030  0.06931  1.0000
  C   C412      1.0  0.96945  0.28679  0.33998  1.0000
  H   H404      1.0  0.90193  0.32484  0.37296  1.0000
  C   C413      1.0  0.85574  0.21071  0.35697  1.0000
  H   H405      1.0  0.55521  0.29876  0.38310  1.0000
  S   S145      1.0  0.90753  0.29025  0.48585  1.0000
  H   H406      1.0  0.56910  0.30864  0.25782  1.0000
  C   C414      1.0  0.93679  0.17013  0.06820  1.0000
  C   C415      1.0  0.76027  0.20056  0.99490  1.0000
  H   H407      1.0  0.55451  0.26645  0.37465  1.0000
  S   S146      1.0  0.84439  0.23020  0.01466  1.0000
  H   H408      1.0  0.77077  0.20375  0.13184  1.0000
  C   C416      1.0  0.57834  0.29945  0.28004  1.0000
  H   H409      1.0  0.74764  0.29440  0.43261  1.0000
  H   H410      1.0  0.82351  0.22804  0.09169  1.0000
  C   C417      1.0  0.94730  0.12157  0.08022  1.0000
  H   H411      1.0  0.86399  0.16767  0.33089  1.0000
  H   H412      1.0  0.77842  0.17751  0.03388  1.0000
  C   C418      1.0  0.93198  0.15269  0.04164  1.0000
  C   C419      1.0  0.56627  0.28225  0.37624  1.0000
  C   C420      1.0  0.60189  0.27637  0.33733  1.0000
  H   H413      1.0  0.52069  0.21744  0.14053  1.0000
  H   H414      1.0  0.85040  0.15316  0.36824  1.0000
  C   C421      1.0  0.97000  0.31641  0.44674  1.0000
  H   H415      1.0  0.54860  0.30377  0.31686  1.0000
  H   H416      1.0  0.54939  0.24492  0.99410  1.0000
  S   S147      1.0  0.51085  0.14081  0.21256  1.0000
  N   N34       1.0  0.93715  0.12879  0.04791  1.0000
  C   C422      1.0  0.74355  0.22542  0.10462  1.0000
  C   C423      1.0  0.95319  0.28958  0.40058  1.0000
  H   H417      1.0  0.71054  0.28983  0.46930  1.0000
  S   S148      1.0  0.79837  0.29025  0.44935  1.0000
  H   H418      1.0  0.95554  0.13802  0.39183  1.0000
  H   H419      1.0  0.81426  0.19981  0.07205  1.0000
  C   C424      1.0  0.73862  0.24133  0.07614  1.0000
  C   C425      1.0  0.61395  0.27918  0.30438  1.0000
  H   H420      1.0  0.75359  0.25995  0.03067  1.0000
  C   C426      1.0  0.81008  0.21361  0.09336  1.0000
  H   H421      1.0  0.79504  0.24392  0.04167  1.0000
  C   C427      1.0  0.71661  0.20658  0.00408  1.0000
  H   H422      1.0  0.87013  0.20910  0.33716  1.0000
  H   H423      1.0  0.72890  0.21918  0.12121  1.0000
  S   S149      1.0  0.63601  0.22137  0.01160  1.0000
  H   H424      1.0  0.57932  0.27956  0.39909  1.0000
  C   C428      1.0  0.75733  0.24827  0.05369  1.0000
  H   H425      1.0  0.95066  0.10258  0.08590  1.0000
  C   C429      1.0  0.95271  0.13856  0.10716  1.0000
  C   C430      1.0  0.60205  0.29087  0.27561  1.0000
  N   N35       1.0  0.78551  0.22366  0.08824  1.0000
  H   H426      1.0  0.93183  0.18899  0.06370  1.0000
  C   C431      1.0  0.81984  0.21520  0.40895  1.0000
  N   N36       1.0  0.57874  0.28527  0.34162  1.0000
  H   H427      1.0  0.82917  0.25255  0.41330  1.0000
  C   C432      1.0  0.85118  0.23306  0.37399  1.0000
  C   C433      1.0  0.51727  0.20205  0.12311  1.0000
  C   C434      1.0  0.00176  0.16707  0.43259  1.0000
  C   C435      1.0  0.72811  0.28627  0.48144  1.0000
  C   C436      1.0  0.50904  0.16176  0.08023  1.0000
  C   C437      1.0  0.98094  0.16030  0.36477  1.0000
  H   H428      1.0  0.95025  0.17617  0.12248  1.0000
  H   H429      1.0  0.81269  0.20499  0.12033  1.0000
  H   H430      1.0  0.81474  0.17746  0.39878  1.0000
  C   C438      1.0  0.74923  0.28884  0.46067  1.0000
  H   H431      1.0  0.50817  0.31430  0.15652  1.0000
  C   C439      1.0  0.94718  0.16296  0.10117  1.0000
  H   H432      1.0  0.61145  0.26777  0.35987  1.0000
  H   H433      1.0  0.83196  0.16317  0.33003  1.0000
  H   H434      1.0  0.86194  0.24845  0.36748  1.0000
  H   H435      1.0  0.95123  0.31935  0.45681  1.0000
  C   C440      1.0  0.60319  0.32770  0.39720  1.0000
  C   C441      1.0  0.82500  0.19305  0.39161  1.0000
  C   C442      1.0  0.52715  0.17747  0.07059  1.0000
  S   S150      1.0  0.58713  0.33028  0.19207  1.0000
  C   C443      1.0  0.84743  0.16769  0.34783  1.0000
  H   H436      1.0  0.93894  0.26695  0.35817  1.0000
  N   N37       1.0  0.84278  0.19104  0.36601  1.0000
  C   C444      1.0  0.83302  0.23530  0.39999  1.0000
  S   S151      1.0  0.84599  0.17055  0.00913  1.0000
  H   H437      1.0  0.72018  0.24753  0.07070  1.0000
  H   H438      1.0  0.97342  0.15728  0.33792  1.0000
  N   N38       1.0  0.96993  0.30619  0.40988  1.0000
  S   S152      1.0  0.89556  0.20149  0.00141  1.0000
  H   H439      1.0  0.93983  0.28421  0.42007  1.0000
  C   C445      1.0  0.97111  0.14930  0.39499  1.0000
  H   H440      1.0  0.91074  0.11055  0.01732  1.0000
  H   H441      1.0  0.93780  0.09256  0.02663  1.0000
  H   H442      1.0  0.55116  0.32518  0.13411  1.0000
  C   C446      1.0  0.98699  0.31265  0.38537  1.0000
  Fe  Fe77      1.0  0.62607  0.29814  0.47565  1.0000
  C   C447      1.0  0.60480  0.33401  0.36041  1.0000
  C   C448      1.0  0.77234  0.28474  0.47604  1.0000
  H   H443      1.0  0.93814  0.11611  0.99328  1.0000
  H   H444      1.0  0.50641  0.14572  0.06378  1.0000
  H   H445      1.0  0.92527  0.32580  0.31567  1.0000
  H   H446      1.0  0.61975  0.32697  0.34435  1.0000
  H   H447      1.0  0.69954  0.21488  0.99579  1.0000
  H   H448      1.0  0.58262  0.33255  0.44628  1.0000
  H   H449      1.0  0.97835  0.33438  0.44739  1.0000
  H   H450      1.0  0.69005  0.14653  0.99373  1.0000
  C   C449      1.0  0.91741  0.33614  0.37106  1.0000
  C   C450      1.0  0.98155  0.15269  0.42917  1.0000
  H   H451      1.0  0.00043  0.32566  0.39272  1.0000
  H   H452      1.0  0.99961  0.30933  0.33004  1.0000
  H   H453      1.0  0.97411  0.14409  0.45280  1.0000
  S   S153      1.0  0.97048  0.16130  0.81608  1.0000
  H   H454      1.0  0.55014  0.28215  0.57498  1.0000
  S   S154      1.0  0.85482  0.20341  0.93579  1.0000
  S   S155      1.0  0.89509  0.26259  0.95807  1.0000
  C   C451      1.0  0.97056  0.27203  0.88110  1.0000
  Fe  Fe78      1.0  0.87551  0.17494  0.96770  1.0000
  S   S156      1.0  0.89940  0.14349  0.94795  1.0000
  H   H455      1.0  0.51122  0.19766  0.92240  1.0000
  H   H456      1.0  0.95139  0.29616  0.69841  1.0000
  H   H457      1.0  0.59461  0.01810  0.74139  1.0000
  S   S157      1.0  0.61718  0.18890  0.92306  1.0000
  Fe  Fe79      1.0  0.66363  0.28500  0.53366  1.0000
  H   H458      1.0  0.87201  0.25064  0.65077  1.0000
  S   S158      1.0  0.70404  0.27875  0.54682  1.0000
  Fe  Fe80      1.0  0.61951  0.31754  0.55277  1.0000
  S   S159      1.0  0.59525  0.29806  0.51460  1.0000
  Fe  Fe81      1.0  0.61253  0.26430  0.53823  1.0000
  S   S160      1.0  0.58342  0.23756  0.55188  1.0000
  H   H459      1.0  0.87839  0.28239  0.75743  1.0000
  S   S161      1.0  0.63551  0.28408  0.57845  1.0000
  C   C452      1.0  0.58062  0.04404  0.78061  1.0000
  Fe  Fe82      1.0  0.53465  0.12665  0.77948  1.0000
  S   S162      1.0  0.56341  0.11018  0.74371  1.0000
  S   S163      1.0  0.53784  0.12822  0.84096  1.0000
  C   C453      1.0  0.54550  0.20956  0.90357  1.0000
  S   S164      1.0  0.52543  0.11655  0.67533  1.0000
  Fe  Fe83      1.0  0.53380  0.08862  0.71875  1.0000
  S   S165      1.0  0.53888  0.04842  0.70468  1.0000
  Fe  Fe84      1.0  0.55259  0.13961  0.70402  1.0000
  S   S166      1.0  0.58327  0.16113  0.68104  1.0000
  H   H460      1.0  0.57570  0.08546  0.81731  1.0000
  S   S167      1.0  0.52568  0.15744  0.74197  1.0000
  Fe  Fe85      1.0  0.87676  0.28889  0.52482  1.0000
  N   N39       1.0  0.52443  0.29344  0.61543  1.0000
  C   C454      1.0  0.91441  0.33039  0.66190  1.0000
  C   C455      1.0  0.53311  0.02244  0.73109  1.0000
  H   H461      1.0  0.54481  0.19937  0.87825  1.0000
  H   H462      1.0  0.91495  0.25803  0.64001  1.0000
  C   C456      1.0  0.72980  0.27952  0.51797  1.0000
  C   C457      1.0  0.75289  0.27468  0.53298  1.0000
  H   H463      1.0  0.92119  0.28973  0.74549  1.0000
  C   C458      1.0  0.88280  0.25866  0.67212  1.0000
  H   H464      1.0  0.75446  0.26929  0.56111  1.0000
  H   H465      1.0  0.58754  0.33173  0.71063  1.0000
  H   H466      1.0  0.79157  0.27388  0.52448  1.0000
  C   C459      1.0  0.57204  0.00465  0.82418  1.0000
  H   H467      1.0  0.95548  0.33382  0.59413  1.0000
  H   H468      1.0  0.99328  0.22602  0.82844  1.0000
  C   C460      1.0  0.58345  0.21708  0.58882  1.0000
  C   C461      1.0  0.60365  0.21334  0.61123  1.0000
  C   C462      1.0  0.60315  0.19633  0.63951  1.0000
  C   C463      1.0  0.58240  0.18307  0.64602  1.0000
  C   C464      1.0  0.56197  0.18724  0.62415  1.0000
  C   C465      1.0  0.56256  0.20408  0.59561  1.0000
  H   H469      1.0  0.61986  0.22315  0.60632  1.0000
  H   H470      1.0  0.61906  0.19321  0.65621  1.0000
  H   H471      1.0  0.54595  0.17710  0.62873  1.0000
  H   H472      1.0  0.54685  0.20683  0.57838  1.0000
  C   C466      1.0  0.59573  0.17111  0.90052  1.0000
  C   C467      1.0  0.59478  0.17090  0.86236  1.0000
  C   C468      1.0  0.57720  0.15774  0.84369  1.0000
  C   C469      1.0  0.56044  0.14471  0.86314  1.0000
  C   C470      1.0  0.56145  0.14490  0.90130  1.0000
  C   C471      1.0  0.57901  0.15804  0.91996  1.0000
  H   H473      1.0  0.60759  0.18104  0.84711  1.0000
  H   H474      1.0  0.57657  0.15775  0.81428  1.0000
  H   H475      1.0  0.54855  0.13484  0.91651  1.0000
  H   H476      1.0  0.57955  0.15809  0.94936  1.0000
  H   H477      1.0  0.71394  0.18221  0.87715  1.0000
  C   C472      1.0  0.92143  0.31621  0.58927  1.0000
  H   H478      1.0  0.92447  0.31048  0.56147  1.0000
  H   H479      1.0  0.59050  0.25276  0.98200  1.0000
  C   C473      1.0  0.77401  0.27729  0.51225  1.0000
  H   H480      1.0  0.75599  0.18536  0.90945  1.0000
  C   C474      1.0  0.54839  0.23500  0.96858  1.0000
  H   H481      1.0  0.58046  0.26735  0.61939  1.0000
  C   C475      1.0  0.89480  0.27784  0.91598  1.0000
  C   C476      1.0  0.90897  0.29825  0.91240  1.0000
  C   C477      1.0  0.91034  0.31031  0.87904  1.0000
  C   C478      1.0  0.89694  0.30249  0.84915  1.0000
  C   C479      1.0  0.88248  0.28226  0.85278  1.0000
  C   C480      1.0  0.88159  0.26981  0.88599  1.0000
  H   H482      1.0  0.91903  0.30476  0.93558  1.0000
  C   C481      1.0  0.70877  0.17413  0.90258  1.0000
  C   C482      1.0  0.52269  0.02409  0.76560  1.0000
  H   H483      1.0  0.87058  0.25415  0.88844  1.0000
  C   C483      1.0  0.95073  0.15526  0.85234  1.0000
  C   C484      1.0  0.93120  0.17149  0.85892  1.0000
  C   C485      1.0  0.91551  0.16810  0.88821  1.0000
  C   C486      1.0  0.91897  0.14820  0.91097  1.0000
  C   C487      1.0  0.93827  0.13172  0.90414  1.0000
  C   C488      1.0  0.95423  0.13532  0.87510  1.0000
  H   H484      1.0  0.92817  0.18681  0.84121  1.0000
  H   H485      1.0  0.90052  0.18071  0.89283  1.0000
  H   H486      1.0  0.94099  0.11616  0.92142  1.0000
  H   H487      1.0  0.96921  0.12271  0.87031  1.0000
  N   N40       1.0  0.95664  0.23370  0.90106  1.0000
  C   C489      1.0  0.96946  0.22220  0.87397  1.0000
  C   C490      1.0  0.95708  0.25826  0.90484  1.0000
  C   C491      1.0  0.98325  0.23536  0.84986  1.0000
  H   H488      1.0  0.73358  0.32568  0.58753  1.0000
  H   H489      1.0  0.53232  0.28800  0.70628  1.0000
  C   C492      1.0  0.94112  0.21992  0.92483  1.0000
  H   H490      1.0  0.96912  0.20274  0.87075  1.0000
  H   H491      1.0  0.94687  0.26729  0.92630  1.0000
  C   C493      1.0  0.53614  0.28619  0.67747  1.0000
  C   C494      1.0  0.58718  0.02078  0.76839  1.0000
  H   H492      1.0  0.92132  0.32600  0.87669  1.0000
  H   H493      1.0  0.94759  0.20078  0.92709  1.0000
  H   H494      1.0  0.94061  0.22781  0.95271  1.0000
  H   H495      1.0  0.92237  0.22043  0.91387  1.0000
  H   H496      1.0  0.73314  0.14853  0.97741  1.0000
  C   C495      1.0  0.58811  0.24988  0.95225  1.0000
  C   C496      1.0  0.56328  0.27497  0.62877  1.0000
  H   H497      1.0  0.65854  0.16170  0.95031  1.0000
  C   C497      1.0  0.93580  0.33612  0.64444  1.0000
  H   H498      1.0  0.51765  0.04161  0.77685  1.0000
  N   N41       1.0  0.72603  0.16527  0.92615  1.0000
  H   H499      1.0  0.58021  0.22381  0.89252  1.0000
  Fe  Fe86      1.0  0.61712  0.19066  0.98459  1.0000
  C   C498      1.0  0.88632  0.27671  0.73169  1.0000
  H   H500      1.0  0.75559  0.15453  0.89260  1.0000
  N   N42       1.0  0.56697  0.23547  0.94430  1.0000
  C   C499      1.0  0.75155  0.16649  0.91628  1.0000
  C   C500      1.0  0.56552  0.22336  0.91185  1.0000
  C   C501      1.0  0.67749  0.16270  0.94366  1.0000
  H   H501      1.0  0.96643  0.02017  0.71905  1.0000
  C   C502      1.0  0.52673  0.20851  0.92847  1.0000
  H   H502      1.0  0.56041  0.07352  0.85533  1.0000
  S   S168      1.0  0.64164  0.26239  0.49529  1.0000
  C   C503      1.0  0.87233  0.26565  0.70511  1.0000
  H   H503      1.0  0.51344  0.22089  0.98056  1.0000
  N   N43       1.0  0.92062  0.27434  0.69205  1.0000
  C   C504      1.0  0.56241  0.07191  0.82536  1.0000
  S   S169      1.0  0.95879  0.32495  0.76771  1.0000
  H   H504      1.0  0.55674  0.03080  0.86147  1.0000
  S   S170      1.0  0.85555  0.31948  0.49897  1.0000
  C   C505      1.0  0.91060  0.28086  0.72473  1.0000
  C   C506      1.0  0.52804  0.22143  0.96113  1.0000
  H   H505      1.0  0.57173  0.27011  0.68547  1.0000
  H   H506      1.0  0.98511  0.02287  0.83133  1.0000
  S   S171      1.0  0.87971  0.29005  0.58645  1.0000
  C   C507      1.0  0.90042  0.30971  0.60709  1.0000
  C   C508      1.0  0.56576  0.02818  0.83561  1.0000
  C   C509      1.0  0.55832  0.27640  0.66584  1.0000
  S   S172      1.0  0.89752  0.31789  0.80725  1.0000
  H   H507      1.0  0.87194  0.27618  0.82986  1.0000
  H   H508      1.0  0.51401  0.30421  0.56155  1.0000
  C   C510      1.0  0.54600  0.28350  0.60375  1.0000
  C   C511      1.0  0.90719  0.26292  0.66616  1.0000
  C   C512      1.0  0.98373  0.26046  0.85348  1.0000
  H   H509      1.0  0.99418  0.27104  0.83493  1.0000
  H   H510      1.0  0.54473  0.07682  0.81254  1.0000
  C   C513      1.0  0.97404  0.05053  0.77373  1.0000
  H   H511      1.0  0.58317  0.05921  0.76271  1.0000
  H   H512      1.0  0.94927  0.28147  0.65549  1.0000
  H   H513      1.0  0.85337  0.26272  0.70994  1.0000
  C   C514      1.0  0.94604  0.27906  0.68504  1.0000
  S   S173      1.0  0.64935  0.32055  0.51192  1.0000
  Fe  Fe87      1.0  0.87341  0.22986  0.97218  1.0000
  C   C515      1.0  0.69517  0.15389  0.96770  1.0000
  C   C516      1.0  0.89677  0.31733  0.64321  1.0000
  C   C517      1.0  0.68425  0.17296  0.91097  1.0000
  H   H514      1.0  0.88044  0.31266  0.65709  1.0000
  H   H515      1.0  0.76378  0.16097  0.93904  1.0000
  H   H516      1.0  0.70751  0.33365  0.49889  1.0000
  C   C518      1.0  0.71952  0.15515  0.95833  1.0000
  H   H517      1.0  0.95771  0.26389  0.69524  1.0000
  N   N44       1.0  0.57027  0.04750  0.81400  1.0000
  C   C519      1.0  0.93903  0.32938  0.60789  1.0000
  H   H518      1.0  0.67046  0.18005  0.89244  1.0000
  H   H519      1.0  0.95542  0.05739  0.76778  1.0000
  H   H520      1.0  0.73666  0.22211  0.96038  1.0000
  H   H521      1.0  0.60486  0.24046  0.94232  1.0000
  S   S174      1.0  0.78622  0.20642  0.96848  1.0000
  H   H522      1.0  0.61320  0.33283  0.65568  1.0000
  H   H523      1.0  0.98645  0.05666  0.75231  1.0000
  H   H524      1.0  0.97067  0.29157  0.88389  1.0000
  S   S175      1.0  0.85827  0.25934  0.49322  1.0000
  H   H525      1.0  0.58608  0.26774  0.93895  1.0000
  N   N45       1.0  0.97487  0.02408  0.77535  1.0000
  C   C520      1.0  0.50637  0.30256  0.58923  1.0000
  H   H526      1.0  0.77736  0.32011  0.59980  1.0000
  C   C521      1.0  0.74637  0.32992  0.56649  1.0000
  H   H527      1.0  0.98020  0.05890  0.79962  1.0000
  C   C522      1.0  0.51925  0.29458  0.65172  1.0000
  C   C523      1.0  0.77111  0.32667  0.57357  1.0000
  H   H528      1.0  0.91160  0.33565  0.68997  1.0000
  H   H529      1.0  0.80686  0.32794  0.55089  1.0000
  H   H530      1.0  0.70144  0.33140  0.54609  1.0000
  C   C524      1.0  0.78766  0.33109  0.54617  1.0000
  Fe  Fe88      1.0  0.82684  0.20165  0.98066  1.0000
  S   S176      1.0  0.50560  0.10326  0.75693  1.0000
  H   H531      1.0  0.51134  0.00445  0.81275  1.0000
  C   C525      1.0  0.97028  0.01104  0.74449  1.0000
  C   C526      1.0  0.73775  0.21071  0.98413  1.0000
  H   H532      1.0  0.50396  0.04874  0.64508  1.0000
  C   C527      1.0  0.98055  0.01255  0.80720  1.0000
  C   C528      1.0  0.57941  0.33596  0.68454  1.0000
  C   C529      1.0  0.51908  0.00297  0.78587  1.0000
  Fe  Fe89      1.0  0.56538  0.63368  0.29543  1.0000
  S   S177      1.0  0.53798  0.65643  0.26537  1.0000
  H   H533      1.0  0.94863  0.61704  0.28813  1.0000
  Fe  Fe90      1.0  0.53581  0.58772  0.28544  1.0000
  H   H534      1.0  0.94885  0.37675  0.42032  1.0000
  S   S178      1.0  0.53193  0.54759  0.29957  1.0000
  Fe  Fe91      1.0  0.53652  0.62574  0.22590  1.0000
  S   S179      1.0  0.53694  0.62975  0.16453  1.0000
  C   C530      1.0  0.97122  0.56054  0.22837  1.0000
  S   S180      1.0  0.56590  0.60367  0.25352  1.0000
  S   S181      1.0  0.53808  0.61600  0.33046  1.0000
  Fe  Fe92      1.0  0.54263  0.41224  0.21999  1.0000
  H   H535      1.0  0.97311  0.37669  0.36361  1.0000
  S   S182      1.0  0.54977  0.45133  0.20471  1.0000
  Fe  Fe93      1.0  0.55893  0.35865  0.20984  1.0000
  C   C531      1.0  0.96035  0.57783  0.25146  1.0000
  H   H536      1.0  0.55800  0.50257  0.36191  1.0000
  Fe  Fe94      1.0  0.54073  0.37729  0.28318  1.0000
  S   S183      1.0  0.54413  0.37595  0.34441  1.0000
  S   S184      1.0  0.53359  0.38347  0.17823  1.0000
  S   S185      1.0  0.57082  0.38843  0.24747  1.0000
  C   C532      1.0  0.56738  0.35790  0.36444  1.0000
  C   C533      1.0  0.60310  0.61700  0.12652  1.0000
  C   C534      1.0  0.95527  0.65932  0.16190  1.0000
  H   H537      1.0  0.59384  0.64992  0.22600  1.0000
  C   C535      1.0  0.94642  0.40596  0.25621  1.0000
  N   N46       1.0  0.96723  0.43484  0.29285  1.0000
  H   H538      1.0  0.62523  0.65651  0.22985  1.0000
  C   C536      1.0  0.60207  0.62083  0.16412  1.0000
  C   C537      1.0  0.62818  0.65379  0.15948  1.0000
  H   H539      1.0  0.91944  0.62878  0.99313  1.0000
  S   S186      1.0  0.51311  0.40280  0.25805  1.0000
  C   C538      1.0  0.93867  0.61668  0.26180  1.0000
  C   C539      1.0  0.55613  0.44133  0.35648  1.0000
  S   S187      1.0  0.97387  0.66303  0.20064  1.0000
  C   C540      1.0  0.95756  0.36549  0.36545  1.0000
  H   H540      1.0  0.95502  0.58586  0.14765  1.0000
  N   N47       1.0  0.94868  0.59787  0.23744  1.0000
  C   C541      1.0  0.56624  0.35238  0.40157  1.0000
  C   C542      1.0  0.59504  0.45312  0.27614  1.0000
  H   H541      1.0  0.58337  0.49544  0.30783  1.0000
  S   S188      1.0  0.96665  0.35136  0.29414  1.0000
  H   H542      1.0  0.56150  0.50078  0.19270  1.0000
  C   C543      1.0  0.94336  0.63714  0.10779  1.0000
  C   C544      1.0  0.95994  0.64103  0.13626  1.0000
  H   H543      1.0  0.51664  0.44706  0.14299  1.0000
  H   H544      1.0  0.61715  0.62982  0.07592  1.0000
  C   C545      1.0  0.95163  0.41893  0.22504  1.0000
  H   H545      1.0  0.94673  0.62254  0.08860  1.0000
  H   H546      1.0  0.97596  0.62949  0.13890  1.0000
  H   H547      1.0  0.93691  0.38916  0.25417  1.0000
  S   S189      1.0  0.90689  0.35119  0.44115  1.0000
  H   H548      1.0  0.57390  0.41957  0.31567  1.0000
  H   H549      1.0  0.94607  0.41235  0.19854  1.0000
  H   H550      1.0  0.61394  0.44870  0.28445  1.0000
  H   H551      1.0  0.54632  0.63803  0.08918  1.0000
  H   H552      1.0  0.99294  0.43150  0.33540  1.0000
  H   H553      1.0  0.96959  0.44980  0.20397  1.0000
  H   H554      1.0  0.51710  0.49888  0.30883  1.0000
  S   S190      1.0  0.90102  0.64521  0.06989  1.0000
  H   H555      1.0  0.74815  0.34729  0.47931  1.0000
  N   N48       1.0  0.61461  0.63897  0.18014  1.0000
  C   C546      1.0  0.96950  0.56353  0.19083  1.0000
  C   C547      1.0  0.55272  0.65273  0.14266  1.0000
  H   H556      1.0  0.98141  0.46169  0.32857  1.0000
  H   H557      1.0  0.58819  0.43811  0.25917  1.0000
  H   H558      1.0  0.57163  0.66739  0.05747  1.0000
  C   C548      1.0  0.53543  0.52149  0.27122  1.0000
  C   C549      1.0  0.54776  0.52183  0.23817  1.0000
  C   C550      1.0  0.55180  0.50025  0.21810  1.0000
  C   C551      1.0  0.54373  0.47804  0.23081  1.0000
  C   C552      1.0  0.53103  0.47773  0.26354  1.0000
  C   C553      1.0  0.52679  0.49935  0.28342  1.0000
  H   H559      1.0  0.55449  0.53868  0.22834  1.0000
  H   H560      1.0  0.95085  0.40362  0.31398  1.0000
  S   S191      1.0  0.84467  0.66377  0.00975  1.0000
  C   C554      1.0  0.97640  0.44241  0.32848  1.0000
  H   H561      1.0  0.98326  0.46361  0.26440  1.0000
  C   C555      1.0  0.97253  0.44763  0.26239  1.0000
  H   H562      1.0  0.54025  0.46767  0.39334  1.0000
  H   H563      1.0  0.93606  0.61589  0.18968  1.0000
  C   C556      1.0  0.57051  0.43784  0.32567  1.0000
  H   H564      1.0  0.59043  0.60977  0.18018  1.0000
  H   H565      1.0  0.57645  0.64815  0.38061  1.0000
  C   C557      1.0  0.55163  0.46470  0.36974  1.0000
  H   H566      1.0  0.96245  0.57575  0.28061  1.0000
  H   H567      1.0  0.61597  0.62605  0.23452  1.0000
  C   C558      1.0  0.95649  0.58336  0.17681  1.0000
  Fe  Fe95      1.0  0.50590  0.37249  0.21872  1.0000
  C   C559      1.0  0.96478  0.43993  0.22808  1.0000
  C   C560      1.0  0.57608  0.48007  0.32165  1.0000
  C   C561      1.0  0.58721  0.66409  0.38201  1.0000
  H   H568      1.0  0.97869  0.55070  0.17274  1.0000
  C   C562      1.0  0.56941  0.66859  0.08664  1.0000
  C   C563      1.0  0.61693  0.63197  0.10527  1.0000
  H   H569      1.0  0.54846  0.42593  0.36980  1.0000
  C   C564      1.0  0.56173  0.48423  0.35235  1.0000
  C   C565      1.0  0.94595  0.60036  0.20069  1.0000
  H   H570      1.0  0.63957  0.66285  0.10529  1.0000
  H   H571      1.0  0.59464  0.46926  0.25831  1.0000
  H   H572      1.0  0.91930  0.61362  0.26689  1.0000
  S   S192      1.0  0.53057  0.34607  0.24789  1.0000
  H   H573      1.0  0.98178  0.54543  0.23942  1.0000
  S   S193      1.0  0.59860  0.65474  0.31015  1.0000
  H   H574      1.0  0.55130  0.35946  0.41764  1.0000
  C   C566      1.0  0.58402  0.33723  0.41790  1.0000
  C   C567      1.0  0.94385  0.36543  0.39757  1.0000
  N   N49       1.0  0.57994  0.45714  0.30832  1.0000
  C   C568      1.0  0.92239  0.65191  0.10413  1.0000
  C   C569      1.0  0.95448  0.41418  0.29006  1.0000
  C   C570      1.0  0.95078  0.35133  0.33568  1.0000
  C   C571      1.0  0.61238  0.64309  0.21941  1.0000
  C   C572      1.0  0.92380  0.35067  0.40055  1.0000
  H   H575      1.0  0.52460  0.46085  0.27368  1.0000
  C   C573      1.0  0.55509  0.65196  0.10466  1.0000
  Fe  Fe96      1.0  0.51040  0.63721  0.29792  1.0000
  C   C574      1.0  0.62959  0.65049  0.12179  1.0000
  H   H576      1.0  0.59236  0.60320  0.11385  1.0000
  H   H577      1.0  0.94052  0.63489  0.24967  1.0000
  S   S194      1.0  0.50613  0.60822  0.25526  1.0000
  H   H578      1.0  0.89166  0.61419  0.00311  1.0000
  C   C575      1.0  0.58686  0.34886  0.34397  1.0000
  H   H579      1.0  0.58808  0.35320  0.31544  1.0000
  H   H580      1.0  0.96268  0.44006  0.34993  1.0000
  C   C576      1.0  0.93064  0.33676  0.33860  1.0000
  H   H581      1.0  0.63745  0.66872  0.17186  1.0000
  Fe  Fe97      1.0  0.95693  0.35565  0.72889  1.0000
  S   S195      1.0  0.92414  0.37284  0.75440  1.0000
  C   C577      1.0  0.52231  0.42010  0.70694  1.0000
  C   C578      1.0  0.52319  0.41985  0.66898  1.0000
  S   S196      1.0  0.95099  0.36525  0.83312  1.0000
  H   H582      1.0  0.54065  0.40918  0.75624  1.0000
  C   C579      1.0  0.91018  0.65760  0.63683  1.0000
  H   H583      1.0  0.93268  0.48566  0.67648  1.0000
  Fe  Fe98      1.0  0.95077  0.39333  0.78825  1.0000
  S   S197      1.0  0.94224  0.43378  0.79769  1.0000
  C   C580      1.0  0.93144  0.46616  0.67796  1.0000
  S   S198      1.0  0.98384  0.37714  0.76073  1.0000
  Fe  Fe99      1.0  0.96249  0.56968  0.72395  1.0000
  S   S199      1.0  0.98511  0.59205  0.76149  1.0000
  S   S200      1.0  0.97256  0.52944  0.71426  1.0000
  Fe  Fe100     1.0  0.93424  0.61509  0.69757  1.0000
  S   S201      1.0  0.95451  0.64013  0.73379  1.0000
  S   S202      1.0  0.90509  0.63032  0.65979  1.0000
  Fe  Fe101     1.0  0.98728  0.61850  0.71577  1.0000
  Fe  Fe102     1.0  0.95041  0.61189  0.77637  1.0000
  S   S203      1.0  0.94628  0.62164  0.83617  1.0000
  S   S204      1.0  0.96736  0.59509  0.67668  1.0000
  S   S205      1.0  0.92739  0.58788  0.74169  1.0000
  H   H584      1.0  0.97471  0.40256  0.65094  1.0000
  H   H585      1.0  0.55104  0.35290  0.59133  1.0000
  C   C581      1.0  0.95956  0.41062  0.63465  1.0000
  C   C582      1.0  0.56205  0.40049  0.67062  1.0000
  S   S206      1.0  0.58310  0.64606  0.92880  1.0000
  C   C583      1.0  0.56255  0.64713  0.89169  1.0000
  N   N50       1.0  0.94444  0.42646  0.65785  1.0000
  Fe  Fe103     1.0  0.98231  0.34773  0.80308  1.0000
  C   C584      1.0  0.53060  0.64705  0.83128  1.0000
  C   C585      1.0  0.53427  0.62618  0.85200  1.0000
  C   C586      1.0  0.55021  0.62624  0.88200  1.0000
  C   C587      1.0  0.90649  0.66336  0.90598  1.0000
  C   C588      1.0  0.92572  0.65063  0.88888  1.0000
  H   H586      1.0  0.95722  0.45917  0.63569  1.0000
  H   H587      1.0  0.55333  0.60986  0.89741  1.0000
  C   C589      1.0  0.56159  0.40015  0.70861  1.0000
  H   H588      1.0  0.87695  0.65657  0.60618  1.0000
  H   H589      1.0  0.93902  0.59975  0.95482  1.0000
  C   C590      1.0  0.92305  0.59940  0.93769  1.0000
  C   C591      1.0  0.54282  0.40916  0.61149  1.0000
  H   H590      1.0  0.50781  0.42725  0.65381  1.0000
  H   H591      1.0  0.90537  0.57873  0.85488  1.0000
  C   C592      1.0  0.92291  0.64070  0.85391  1.0000
  H   H592      1.0  0.52538  0.35152  0.64609  1.0000
  C   C593      1.0  0.55468  0.34192  0.68233  1.0000
  H   H593      1.0  0.57630  0.39151  0.72375  1.0000
  S   S207      1.0  0.60256  0.34943  0.58297  1.0000
  H   H594      1.0  0.52536  0.60981  0.84430  1.0000
  C   C594      1.0  0.77998  0.65960  0.96243  1.0000
  C   C595      1.0  0.94539  0.45105  0.65514  1.0000
  H   H595      1.0  0.94276  0.64813  0.90306  1.0000
  H   H596      1.0  0.86436  0.65880  0.83905  1.0000
  H   H597      1.0  0.94119  0.57856  0.89542  1.0000
  H   H598      1.0  0.98971  0.47991  0.70959  1.0000
  H   H599      1.0  0.99297  0.65428  0.57320  1.0000
  H   H600      1.0  0.92985  0.39684  0.68582  1.0000
  H   H601      1.0  0.90685  0.46744  0.72315  1.0000
  C   C596      1.0  0.89280  0.66681  0.61215  1.0000
  H   H602      1.0  0.90576  0.42288  0.72830  1.0000
  C   C597      1.0  0.95219  0.46026  0.77560  1.0000
  C   C598      1.0  0.96982  0.45944  0.74847  1.0000
  C   C599      1.0  0.97618  0.48084  0.73065  1.0000
  C   C600      1.0  0.96504  0.50334  0.73955  1.0000
  C   C601      1.0  0.94764  0.50418  0.76696  1.0000
  C   C602      1.0  0.94133  0.48281  0.78484  1.0000
  H   H603      1.0  0.97841  0.44232  0.74108  1.0000
  H   H604      1.0  0.86594  0.62152  0.93359  1.0000
  H   H605      1.0  0.93886  0.52125  0.77417  1.0000
  H   H606      1.0  0.92771  0.48372  0.80579  1.0000
  S   S208      1.0  0.53765  0.34382  0.72275  1.0000
  C   C603      1.0  0.90089  0.64423  0.83564  1.0000
  H   H607      1.0  0.94885  0.39558  0.62348  1.0000
  C   C604      1.0  0.71971  0.66541  0.91621  1.0000
  C   C605      1.0  0.54438  0.34724  0.64836  1.0000
  H   H608      1.0  0.89850  0.63659  0.80877  1.0000
  Fe  Fe104     1.0  0.92774  0.34341  0.79599  1.0000
  C   C606      1.0  0.92433  0.58712  0.90436  1.0000
  C   C607      1.0  0.75546  0.65726  0.95437  1.0000
  H   H609      1.0  0.50660  0.42774  0.72077  1.0000
  H   H610      1.0  0.96708  0.42041  0.61130  1.0000
  C   C608      1.0  0.91690  0.45595  0.70415  1.0000
  C   C609      1.0  0.58382  0.34277  0.61976  1.0000
  C   C610      1.0  0.88223  0.61139  0.92590  1.0000
  C   C611      1.0  0.91632  0.43090  0.70706  1.0000
  N   N51       1.0  0.90227  0.61161  0.94779  1.0000
  H   H611      1.0  0.89149  0.64251  0.97911  1.0000
  C   C612      1.0  0.55893  0.34781  0.61724  1.0000
  H   H612      1.0  0.52825  0.39738  0.60169  1.0000
  S   S209      1.0  0.95919  0.35083  0.66780  1.0000
  C   C613      1.0  0.93021  0.41633  0.68341  1.0000
  H   H613      1.0  0.71741  0.64948  0.89823  1.0000
  H   H614      1.0  0.56021  0.40166  0.60051  1.0000
  C   C614      1.0  0.90118  0.62480  0.98245  1.0000
  H   H615      1.0  0.86738  0.60013  0.87431  1.0000
  S   S210      1.0  0.51166  0.64761  0.79227  1.0000
  H   H616      1.0  0.94398  0.66409  0.66340  1.0000
  N   N52       1.0  0.54286  0.41003  0.65132  1.0000
  C   C615      1.0  0.88290  0.59929  0.89239  1.0000
  H   H617      1.0  0.70907  0.66315  0.94143  1.0000
  H   H618      1.0  0.57749  0.39223  0.65673  1.0000
  C   C616      1.0  0.54151  0.40992  0.72682  1.0000
  C   C617      1.0  0.90416  0.58721  0.88154  1.0000
  H   H619      1.0  0.53978  0.42759  0.60034  1.0000
  C   C618      1.0  0.88156  0.65674  0.85292  1.0000
  H   H620      1.0  0.70739  0.36059  0.52721  1.0000
  H   H621      1.0  0.74443  0.64724  0.97281  1.0000
  C   C619      1.0  0.00219  0.66881  0.58674  1.0000
  C   C620      1.0  0.88414  0.66595  0.88840  1.0000
  C   C621      1.0  0.75449  0.34193  0.50609  1.0000
  C   C622      1.0  0.71244  0.34106  0.52600  1.0000
  C   C623      1.0  0.54278  0.66801  0.84116  1.0000
  N   N53       1.0  0.73837  0.33734  0.53300  1.0000
  H   H622      1.0  0.98468  0.66277  0.63799  1.0000
  C   C624      1.0  0.77934  0.33879  0.51220  1.0000
  H   H623      1.0  0.79202  0.34138  0.49030  1.0000
  H   H624      1.0  0.50769  0.65875  0.91033  1.0000
  N   N54       1.0  0.74534  0.66837  0.92461  1.0000
  C   C625      1.0  0.55853  0.66815  0.87139  1.0000
  H   H625      1.0  0.78773  0.65171  0.98696  1.0000
  C   C626      1.0  0.59394  0.33638  0.65339  1.0000
  S   S211      1.0  0.88019  0.77707  0.41822  1.0000
  H   H626      1.0  0.85901  0.86822  0.16525  1.0000
  C   C627      1.0  0.51510  0.74488  0.31082  1.0000
  S   S212      1.0  0.63835  0.77443  0.43457  1.0000
  S   S213      1.0  0.60620  0.71197  0.46024  1.0000
  H   H627      1.0  0.86847  0.92339  0.24618  1.0000
  C   C628      1.0  0.55815  0.75005  0.06971  1.0000
  Fe  Fe105     1.0  0.61353  0.80343  0.45785  1.0000
  S   S214      1.0  0.59541  0.83311  0.42427  1.0000
  C   C629      1.0  0.55623  0.74734  0.33189  1.0000
  Fe  Fe106     1.0  0.95179  0.84939  0.27456  1.0000
  S   S215      1.0  0.92238  0.87252  0.24888  1.0000
  S   S216      1.0  0.95338  0.84350  0.33563  1.0000
  Fe  Fe107     1.0  0.97692  0.83892  0.20120  1.0000
  S   S217      1.0  0.94936  0.86181  0.17099  1.0000
  C   C630      1.0  0.75680  0.69854  0.02248  1.0000
  Fe  Fe108     1.0  0.95248  0.88875  0.21740  1.0000
  S   S218      1.0  0.95380  0.92896  0.20280  1.0000
  Fe  Fe109     1.0  0.92217  0.84369  0.20524  1.0000
  S   S219      1.0  0.88787  0.82677  0.18475  1.0000
  S   S220      1.0  0.98229  0.86696  0.24520  1.0000
  S   S221      1.0  0.94923  0.81959  0.23353  1.0000
  Fe  Fe110     1.0  0.86784  0.72733  0.03117  1.0000
  S   S222      1.0  0.85309  0.70353  0.07442  1.0000
  S   S223      1.0  0.88871  0.76137  0.04174  1.0000
  Fe  Fe111     1.0  0.82366  0.69577  0.03283  1.0000
  H   H628      1.0  0.88569  0.85883  0.37469  1.0000
  H   H629      1.0  0.95926  0.78055  0.17140  1.0000
  H   H630      1.0  0.93074  0.68848  0.17771  1.0000
  Fe  Fe112     1.0  0.60727  0.70472  0.02447  1.0000
  C   C631      1.0  0.75251  0.78420  0.47779  1.0000
  H   H631      1.0  0.58738  0.70122  0.15996  1.0000
  C   C632      1.0  0.95187  0.95514  0.23139  1.0000
  C   C633      1.0  0.94962  0.95364  0.26915  1.0000
  C   C634      1.0  0.94824  0.97489  0.29065  1.0000
  C   C635      1.0  0.95249  0.97818  0.21552  1.0000
  H   H632      1.0  0.94908  0.93612  0.28184  1.0000
  H   H633      1.0  0.63343  0.78299  0.07883  1.0000
  H   H634      1.0  0.95414  0.97961  0.18634  1.0000
  C   C636      1.0  0.88839  0.80835  0.14524  1.0000
  C   C637      1.0  0.90751  0.80885  0.12070  1.0000
  C   C638      1.0  0.90714  0.79452  0.08898  1.0000
  C   C639      1.0  0.88801  0.77909  0.08193  1.0000
  C   C640      1.0  0.86904  0.77830  0.10673  1.0000
  C   C641      1.0  0.86909  0.79314  0.13803  1.0000
  H   H635      1.0  0.92250  0.82043  0.12593  1.0000
  H   H636      1.0  0.92185  0.79529  0.06986  1.0000
  H   H637      1.0  0.85413  0.76662  0.10144  1.0000
  H   H638      1.0  0.85418  0.79271  0.15681  1.0000
  H   H639      1.0  0.56861  0.71869  0.36688  1.0000
  C   C642      1.0  0.60358  0.69733  0.41756  1.0000
  H   H640      1.0  0.68746  0.75231  0.41031  1.0000
  H   H641      1.0  0.53145  0.97116  0.21803  1.0000
  C   C643      1.0  0.61389  0.69194  0.35375  1.0000
  C   C644      1.0  0.61558  0.70510  0.38661  1.0000
  H   H642      1.0  0.91424  0.91917  0.15277  1.0000
  H   H643      1.0  0.62361  0.69770  0.33011  1.0000
  H   H644      1.0  0.62637  0.72099  0.38806  1.0000
  C   C645      1.0  0.52966  0.81975  0.35160  1.0000
  C   C646      1.0  0.53898  0.80136  0.37426  1.0000
  C   C647      1.0  0.55966  0.80491  0.39568  1.0000
  C   C648      1.0  0.57094  0.82710  0.39506  1.0000
  C   C649      1.0  0.56156  0.84554  0.37252  1.0000
  C   C650      1.0  0.54096  0.84190  0.35084  1.0000
  H   H645      1.0  0.52996  0.78440  0.37570  1.0000
  H   H646      1.0  0.56659  0.79071  0.41327  1.0000
  H   H647      1.0  0.57019  0.86278  0.37203  1.0000
  H   H648      1.0  0.53396  0.85617  0.33341  1.0000
  C   C651      1.0  0.90124  0.79484  0.39540  1.0000
  C   C652      1.0  0.92053  0.80518  0.41383  1.0000
  C   C653      1.0  0.93689  0.81927  0.39485  1.0000
  C   C654      1.0  0.93381  0.82367  0.35751  1.0000
  C   C655      1.0  0.91451  0.81335  0.33907  1.0000
  C   C656      1.0  0.89840  0.79888  0.35793  1.0000
  H   H649      1.0  0.92300  0.80210  0.44260  1.0000
  H   H650      1.0  0.95183  0.82710  0.40927  1.0000
  H   H651      1.0  0.91194  0.81660  0.31033  1.0000
  H   H652      1.0  0.88357  0.79087  0.34346  1.0000
  H   H653      1.0  0.93737  0.73832  0.06385  1.0000
  S   S224      1.0  0.83712  0.72174  0.99149  1.0000
  N   N55       1.0  0.53212  0.71435  0.35033  1.0000
  H   H654      1.0  0.75282  0.78894  0.44933  1.0000
  H   H655      1.0  0.94665  0.97344  0.31983  1.0000
  N   N56       1.0  0.92943  0.73997  0.12026  1.0000
  C   C657      1.0  0.90940  0.73756  0.14133  1.0000
  C   C658      1.0  0.94735  0.75491  0.13104  1.0000
  C   C659      1.0  0.90684  0.75048  0.17395  1.0000
  C   C660      1.0  0.94535  0.76816  0.16347  1.0000
  C   C661      1.0  0.92490  0.76592  0.18497  1.0000
  C   C662      1.0  0.93205  0.72624  0.08622  1.0000
  H   H656      1.0  0.69618  0.68743  0.02413  1.0000
  H   H657      1.0  0.96307  0.75710  0.11413  1.0000
  H   H658      1.0  0.72742  0.73440  0.46352  1.0000
  S   S225      1.0  0.70315  0.78419  0.46857  1.0000
  H   H659      1.0  0.92268  0.77661  0.20963  1.0000
  C   C663      1.0  0.53420  0.85443  0.45227  1.0000
  S   S226      1.0  0.89138  0.69802  0.00563  1.0000
  Fe  Fe113     1.0  0.61943  0.74967  0.47203  1.0000
  H   H660      1.0  0.94573  0.71132  0.08952  1.0000
  C   C664      1.0  0.59811  0.76766  0.07648  1.0000
  H   H661      1.0  0.60133  0.75687  0.10062  1.0000
  H   H662      1.0  0.52400  0.88615  0.42159  1.0000
  C   C665      1.0  0.61637  0.78242  0.06429  1.0000
  H   H663      1.0  0.55140  0.86134  0.46121  1.0000
  H   H664      1.0  0.65774  0.70998  0.43480  1.0000
  H   H665      1.0  0.68556  0.72312  0.38821  1.0000
  H   H666      1.0  0.71442  0.73448  0.40101  1.0000
  H   H667      1.0  0.84761  0.84917  0.40102  1.0000
  Fe  Fe114     1.0  0.87518  0.67401  0.04685  1.0000
  H   H668      1.0  0.73430  0.67866  0.05838  1.0000
  H   H669      1.0  0.94235  0.88294  0.44442  1.0000
  H   H670      1.0  0.56198  0.67191  0.19156  1.0000
  Fe  Fe115     1.0  0.87760  0.77702  0.47980  1.0000
  C   C666      1.0  0.92471  0.87531  0.44093  1.0000
  C   C667      1.0  0.56402  0.67089  0.16240  1.0000
  C   C668      1.0  0.71132  0.72475  0.47023  1.0000
  C   C669      1.0  0.88945  0.85727  0.46581  1.0000
  C   C670      1.0  0.67245  0.71122  0.45419  1.0000
  H   H671      1.0  0.57312  0.75672  0.33317  1.0000
  H   H672      1.0  0.50331  0.92499  0.23158  1.0000
  C   C671      1.0  0.61276  0.79573  0.03255  1.0000
  H   H673      1.0  0.89491  0.72618  0.13245  1.0000
  H   H674      1.0  0.89060  0.74916  0.19001  1.0000
  H   H675      1.0  0.55876  0.73339  0.05267  1.0000
  H   H676      1.0  0.51097  0.68899  0.37854  1.0000
  C   C672      1.0  0.51890  0.86828  0.42987  1.0000
  C   C673      1.0  0.58140  0.68618  0.10656  1.0000
  C   C674      1.0  0.91193  0.86756  0.47100  1.0000
  S   S227      1.0  0.60154  0.70580  0.08559  1.0000
  H   H677      1.0  0.54036  0.81986  0.47750  1.0000
  C   C675      1.0  0.73464  0.68969  0.03427  1.0000
  N   N57       1.0  0.88748  0.89237  0.15586  1.0000
  C   C676      1.0  0.69523  0.73356  0.40934  1.0000
  C   C677      1.0  0.86848  0.88388  0.17497  1.0000
  S   S228      1.0  0.62537  0.73617  0.99911  1.0000
  C   C678      1.0  0.86142  0.89478  0.20781  1.0000
  C   C679      1.0  0.87353  0.91486  0.22057  1.0000
  C   C680      1.0  0.85661  0.84345  0.42673  1.0000
  C   C681      1.0  0.55354  0.72592  0.35110  1.0000
  C   C682      1.0  0.91822  0.67076  0.12899  1.0000
  H   H678      1.0  0.91366  0.88382  0.11487  1.0000
  H   H679      1.0  0.84684  0.88745  0.22337  1.0000
  H   H680      1.0  0.56098  0.74447  0.09844  1.0000
  H   H681      1.0  0.89262  0.86080  0.12301  1.0000
  H   H682      1.0  0.53568  0.67621  0.35229  1.0000
  C   C683      1.0  0.59965  0.67142  0.35131  1.0000
  N   N58       1.0  0.87992  0.85485  0.43163  1.0000
  C   C684      1.0  0.53684  0.75686  0.31167  1.0000
  C   C685      1.0  0.89255  0.86195  0.40194  1.0000
  N   N59       1.0  0.69317  0.72247  0.44519  1.0000
  S   S229      1.0  0.50418  0.81396  0.32430  1.0000
  H   H683      1.0  0.91474  0.71833  0.07752  1.0000
  C   C686      1.0  0.57317  0.77926  0.02651  1.0000
  H   H684      1.0  0.92514  0.87774  0.38247  1.0000
  H   H685      1.0  0.62697  0.80677  0.02224  1.0000
  H   H686      1.0  0.53993  0.75889  0.06759  1.0000
  H   H687      1.0  0.55660  0.77765  0.01094  1.0000
  C   C687      1.0  0.91494  0.87262  0.40617  1.0000
  H   H688      1.0  0.53845  0.77381  0.29734  1.0000
  C   C688      1.0  0.71294  0.69468  0.01492  1.0000
  C   C689      1.0  0.59103  0.79418  0.01353  1.0000
  C   C690      1.0  0.89922  0.91228  0.16790  1.0000
  H   H689      1.0  0.84416  0.84826  0.44941  1.0000
  C   C691      1.0  0.57830  0.68755  0.14439  1.0000
  H   H690      1.0  0.51116  0.96494  0.25499  1.0000
  S   S230      1.0  0.78384  0.69012  0.04661  1.0000
  C   C692      1.0  0.51312  0.72335  0.33011  1.0000
  C   C693      1.0  0.52990  0.69165  0.37003  1.0000
  H   H691      1.0  0.88282  0.88777  0.09903  1.0000
  C   C694      1.0  0.89447  0.88070  0.12142  1.0000
  C   C695      1.0  0.89242  0.92382  0.20039  1.0000
  H   H692      1.0  0.85935  0.82352  0.42591  1.0000
  H   H693      1.0  0.90212  0.93933  0.21016  1.0000
  S   S231      1.0  0.00132  0.81199  0.17025  1.0000
  N   N60       1.0  0.57679  0.76635  0.05771  1.0000
  C   C696      1.0  0.58946  0.67678  0.41506  1.0000
  C   C697      1.0  0.52799  0.83106  0.46140  1.0000
  Fe  Fe116     1.0  0.66292  0.78226  0.48235  1.0000
  C   C698      1.0  0.50642  0.82187  0.44800  1.0000
  H   H694      1.0  0.90189  0.68187  0.12680  1.0000
  C   C699      1.0  0.94903  0.99792  0.27482  1.0000
  S   S232      1.0  0.62997  0.67663  0.99495  1.0000
  C   C700      1.0  0.95105  0.99943  0.23702  1.0000
  H   H695      1.0  0.58029  0.67053  0.43893  1.0000
  C   C701      1.0  0.93454  0.67437  0.15786  1.0000
  H   H696      1.0  0.99934  0.98030  0.30335  1.0000
  C   C702      1.0  0.75686  0.71286  0.99130  1.0000
  H   H697      1.0  0.54114  0.69142  0.39513  1.0000
  H   H698      1.0  0.79148  0.78365  0.48338  1.0000
  H   H699      1.0  0.00159  0.70917  0.20232  1.0000
  C   C703      1.0  0.51232  0.97186  0.22675  1.0000
  H   H700      1.0  0.50567  0.99103  0.22769  1.0000
  H   H701      1.0  0.98845  0.99815  0.34095  1.0000
  S   S233      1.0  0.97547  0.83692  0.69707  1.0000
  C   C704      1.0  0.96491  0.78336  0.57698  1.0000
  C   C705      1.0  0.73519  0.71778  0.97188  1.0000
  Fe  Fe117     1.0  0.89209  0.75388  0.55283  1.0000
  S   S234      1.0  0.86943  0.78108  0.58408  1.0000
  S   S235      1.0  0.92002  0.73175  0.58511  1.0000
  Fe  Fe118     1.0  0.84079  0.77571  0.54080  1.0000
  S   S236      1.0  0.80181  0.77087  0.55945  1.0000
  Fe  Fe119     1.0  0.88483  0.80834  0.54685  1.0000
  S   S237      1.0  0.90288  0.84305  0.56263  1.0000
  C   C706      1.0  0.98185  0.98730  0.80860  1.0000
  S   S238      1.0  0.90884  0.78168  0.51756  1.0000
  Fe  Fe120     1.0  0.62020  0.78585  0.53541  1.0000
  S   S239      1.0  0.61012  0.78831  0.59527  1.0000
  S   S240      1.0  0.85863  0.67893  0.91077  1.0000
  H   H702      1.0  0.72324  0.71813  0.52527  1.0000
  Fe  Fe121     1.0  0.59715  0.73418  0.95509  1.0000
  S   S241      1.0  0.61924  0.70832  0.92048  1.0000
  S   S242      1.0  0.57141  0.76472  0.93708  1.0000
  S   S243      1.0  0.57729  0.70513  0.98354  1.0000
  H   H703      1.0  0.63470  0.78696  0.73168  1.0000
  C   C707      1.0  0.64300  0.80217  0.67961  1.0000
  Fe  Fe122     1.0  0.53960  0.87779  0.72409  1.0000
  S   S244      1.0  0.56352  0.89867  0.76139  1.0000
  S   S245      1.0  0.54835  0.87573  0.66400  1.0000
  H   H704      1.0  0.94925  0.70372  0.63395  1.0000
  S   S246      1.0  0.52723  0.88461  0.82776  1.0000
  Fe  Fe123     1.0  0.52904  0.91410  0.78514  1.0000
  S   S247      1.0  0.52322  0.95422  0.80031  1.0000
  Fe  Fe124     1.0  0.55951  0.86751  0.79969  1.0000
  S   S248      1.0  0.59212  0.84669  0.82217  1.0000
  C   C708      1.0  0.90386  0.72308  0.70112  1.0000
  S   S249      1.0  0.53783  0.84593  0.76057  1.0000
  C   C709      1.0  0.58665  0.82408  0.85457  1.0000
  C   C710      1.0  0.60424  0.80577  0.86132  1.0000
  C   C711      1.0  0.60004  0.78746  0.88673  1.0000
  C   C712      1.0  0.57838  0.78767  0.90603  1.0000
  C   C713      1.0  0.56119  0.80641  0.90009  1.0000
  C   C714      1.0  0.56507  0.82428  0.87405  1.0000
  H   H705      1.0  0.62107  0.80560  0.84660  1.0000
  H   H706      1.0  0.61350  0.77319  0.89125  1.0000
  H   H707      1.0  0.54476  0.80715  0.91578  1.0000
  H   H708      1.0  0.55159  0.83852  0.86956  1.0000
  C   C715      1.0  0.97888  0.77886  0.60800  1.0000
  Fe  Fe125     1.0  0.64655  0.70806  0.96695  1.0000
  H   H709      1.0  0.64796  0.82214  0.63037  1.0000
  S   S250      1.0  0.85424  0.80587  0.50650  1.0000
  C   C716      1.0  0.62442  0.82486  0.72888  1.0000
  C   C717      1.0  0.75921  0.68152  0.90189  1.0000
  C   C718      1.0  0.53587  0.97833  0.73725  1.0000
  C   C719      1.0  0.52596  0.97997  0.77209  1.0000
  H   H710      1.0  0.60934  0.86693  0.75167  1.0000
  H   H711      1.0  0.92030  0.72883  0.71423  1.0000
  H   H712      1.0  0.64996  0.78527  0.66804  1.0000
  H   H713      1.0  0.88469  0.77552  0.66545  1.0000
  C   C720      1.0  0.59178  0.81220  0.61311  1.0000
  C   C721      1.0  0.58414  0.81107  0.64940  1.0000
  C   C722      1.0  0.57112  0.83054  0.66548  1.0000
  C   C723      1.0  0.56522  0.85113  0.64513  1.0000
  C   C724      1.0  0.57235  0.85203  0.60862  1.0000
  C   C725      1.0  0.58568  0.83269  0.59267  1.0000
  H   H714      1.0  0.58871  0.79522  0.66531  1.0000
  H   H715      1.0  0.56558  0.82954  0.69351  1.0000
  H   H716      1.0  0.56780  0.86788  0.59267  1.0000
  H   H717      1.0  0.59155  0.83378  0.56474  1.0000
  H   H718      1.0  0.95241  0.77005  0.56726  1.0000
  C   C726      1.0  0.77454  0.77506  0.53385  1.0000
  C   C727      1.0  0.75220  0.77188  0.55100  1.0000
  C   C728      1.0  0.73016  0.77495  0.53176  1.0000
  H   H719      1.0  0.75197  0.76714  0.57945  1.0000
  H   H720      1.0  0.71320  0.77250  0.54539  1.0000
  C   C729      1.0  0.91592  0.70286  0.60361  1.0000
  H   H721      1.0  0.84700  0.70119  0.65164  1.0000
  C   C730      1.0  0.87099  0.73063  0.66065  1.0000
  H   H722      1.0  0.51861  0.71446  0.91428  1.0000
  C   C731      1.0  0.99466  0.79639  0.62046  1.0000
  C   C732      1.0  0.89561  0.68942  0.59564  1.0000
  Fe  Fe126     1.0  0.60089  0.67937  0.95151  1.0000
  H   H723      1.0  0.97720  0.76205  0.62249  1.0000
  H   H724      1.0  0.88203  0.69646  0.57694  1.0000
  C   C733      1.0  0.95518  0.83970  0.65998  1.0000
  C   C734      1.0  0.94020  0.82035  0.65218  1.0000
  C   C735      1.0  0.92421  0.82124  0.62240  1.0000
  C   C736      1.0  0.92280  0.84168  0.60036  1.0000
  C   C737      1.0  0.93772  0.86112  0.60817  1.0000
  C   C738      1.0  0.95399  0.86010  0.63779  1.0000
  H   H725      1.0  0.94109  0.80451  0.66918  1.0000
  H   H726      1.0  0.91292  0.80616  0.61654  1.0000
  H   H727      1.0  0.93667  0.87704  0.59132  1.0000
  H   H728      1.0  0.96539  0.87514  0.64367  1.0000
  H   H729      1.0  0.53285  0.76942  0.86603  1.0000
  C   C739      1.0  0.77452  0.78122  0.49704  1.0000
  H   H730      1.0  0.65297  0.69301  0.49589  1.0000
  H   H731      1.0  0.98408  0.83931  0.55785  1.0000
  H   H732      1.0  0.87979  0.85112  0.48938  1.0000
  C   C740      1.0  0.98287  0.82228  0.57192  1.0000
  N   N61       1.0  0.62349  0.84515  0.70783  1.0000
  H   H733      1.0  0.90647  0.68739  0.72472  1.0000
  C   C741      1.0  0.51526  0.76943  0.87885  1.0000
  H   H734      1.0  0.95567  0.80909  0.53512  1.0000
  H   H735      1.0  0.91224  0.76192  0.64781  1.0000
  C   C742      1.0  0.79413  0.67328  0.93974  1.0000
  S   S251      1.0  0.63940  0.81343  0.50272  1.0000
  H   H736      1.0  0.97966  0.95432  0.77728  1.0000
  S   S252      1.0  0.64556  0.75525  0.51823  1.0000
  H   H737      1.0  0.54034  0.68410  0.82491  1.0000
  Fe  Fe127     1.0  0.85957  0.69003  0.97039  1.0000
  C   C743      1.0  0.70903  0.71559  0.50530  1.0000
  H   H738      1.0  0.68585  0.69701  0.54185  1.0000
  C   C744      1.0  0.61238  0.86766  0.72182  1.0000
  C   C745      1.0  0.71309  0.70865  0.98339  1.0000
  C   C746      1.0  0.64200  0.82295  0.65845  1.0000
  H   H739      1.0  0.98726  0.97823  0.83350  1.0000
  N   N62       1.0  0.89113  0.73833  0.67841  1.0000
  S   S253      1.0  0.50500  0.89489  0.74536  1.0000
  H   H740      1.0  0.58681  0.98277  0.78057  1.0000
  H   H741      1.0  0.86143  0.74231  0.64146  1.0000
  C   C747      1.0  0.86267  0.70740  0.66636  1.0000
  H   H742      1.0  0.90967  0.76979  0.69545  1.0000
  C   C748      1.0  0.63192  0.84437  0.67296  1.0000
  C   C749      1.0  0.97162  0.98577  0.74486  1.0000
  H   H743      1.0  0.54730  0.99788  0.69016  1.0000
  H   H744      1.0  0.75119  0.69033  0.87832  1.0000
  H   H745      1.0  0.63028  0.86020  0.65582  1.0000
  C   C750      1.0  0.93351  0.69341  0.62767  1.0000
  C   C751      1.0  0.63424  0.80309  0.71511  1.0000
  C   C752      1.0  0.87534  0.69186  0.68988  1.0000
  C   C753      1.0  0.53935  0.99942  0.71690  1.0000
  H   H746      1.0  0.79479  0.69500  0.89163  1.0000
  H   H747      1.0  0.54121  0.96081  0.72620  1.0000
  C   C754      1.0  0.58279  0.00099  0.79033  1.0000
  H   H748      1.0  0.73558  0.72864  0.94760  1.0000
  H   H749      1.0  0.62415  0.88309  0.71666  1.0000
  H   H750      1.0  0.96928  0.97545  0.71996  1.0000
  C   C755      1.0  0.68806  0.70385  0.51458  1.0000
  C   C756      1.0  0.96685  0.80521  0.55881  1.0000
  N   N63       1.0  0.99637  0.81781  0.60254  1.0000
  H   H751      1.0  0.54088  0.72964  0.88933  1.0000
  C   C757      1.0  0.89989  0.76255  0.67148  1.0000
  H   H752      1.0  0.59468  0.87112  0.70815  1.0000
  H   H753      1.0  0.61731  0.82537  0.75636  1.0000
  H   H754      1.0  0.56810  0.68426  0.87835  1.0000
  S   S254      1.0  0.86265  0.74631  0.51201  1.0000
  S   S255      1.0  0.68682  0.71344  0.95563  1.0000
  C   C758      1.0  0.97750  0.97387  0.77713  1.0000
  C   C759      1.0  0.78379  0.68424  0.90918  1.0000
  C   C760      1.0  0.89610  0.69968  0.70734  1.0000
  H   H755      1.0  0.86968  0.67344  0.69344  1.0000
  H   H756      1.0  0.56763  0.98925  0.84069  1.0000
  C   C761      1.0  0.52123  0.72605  0.89022  1.0000
  H   H757      1.0  0.52903  0.80520  0.62304  1.0000
  S   S256      1.0  0.59273  0.77814  0.49211  1.0000
  C   C762      1.0  0.73019  0.78122  0.49499  1.0000
  C   C763      1.0  0.50748  0.83616  0.64045  1.0000
  H   H758      1.0  0.71178  0.68178  0.90277  1.0000
  H   H759      1.0  0.91940  0.86924  0.49822  1.0000
  H   H760      1.0  0.51226  0.84714  0.61742  1.0000
  H   H761      1.0  0.50846  0.80768  0.87016  1.0000
  C   C764      1.0  0.51165  0.79924  0.67455  1.0000
  C   C765      1.0  0.51694  0.81264  0.64369  1.0000
  H   H762      1.0  0.81299  0.67577  0.94611  1.0000
  Fe  Fe128     1.0  0.50551  0.86465  0.78619  1.0000
  C   C766      1.0  0.93063  0.67093  0.64428  1.0000
  H   H763      1.0  0.77365  0.71996  0.98193  1.0000
  N   N64       1.0  0.50675  0.74862  0.89308  1.0000
  C   C767      1.0  0.99727  0.67365  0.62336  1.0000
  H   H764      1.0  0.90887  0.67077  0.93297  1.0000
  H   H765      1.0  0.51960  0.78120  0.67728  1.0000
  H   H766      1.0  0.51613  0.71599  0.86524  1.0000
  H   H767      1.0  0.50451  0.80008  0.75594  1.0000
  H   H768      1.0  0.58825  0.80387  0.98820  1.0000
  C   C768      1.0  0.66967  0.70152  0.48883  1.0000
