data_image0
_chemical_formula_structural       CHSHFeSHCHFeH2FeS2H2FeSCSHS2FeSCFeS2FeSFeS3C6H5SHCHCSC6H4C6H3SC2HSCSHC2H7CHCH2C2NHCNSH5C2NCH3NC6HC2HCHFeHNC6H7C2HSCHC4HCHNHCH2CH5CFeCHSCH2CHC3FeHSC2SHCFeHSCH2FeC2SHFeSCHNFeHCFeS2HCFeS4HSFeS2FeS2FeSFeS3C6H4C2HC2H2C6H4C6H5CHC2H2N2H2CFeH2SC3HCFeC2H2FeNCH2CHSH3C2H2NFeH2CH2SCHSCNC6H10NCHC5H3CH4CHNC4HC2HCHSHCHCHCNSHFeH2CHCHSCHFe2SHFeHSC2HSHS2H2C2SCHC2H2C2H2CHCH2CHFeC3HCHCSC3H2CFeC2HC3FeSC2H2C2NH2C2NHSCHCHC2FeC2H5CFeH3SHCSHC3H2SCH2CNCSCFeHC2H2CH2S2H3FeCHCHSCFeHFe2HFeCSH3SCSNCS2CSH2CFeH3CSCHC3HC2H3NH7SHCHFeCSHSH3C3HSC2HCHCH2CHC2FeSC2HC2HC2HFeCSC3HSC5H2C2HCSCNCFeS2FeC3SFeS3FeS2CFeSCH2FeSHFeS2FeS2FeSFeS3C3H3C6H4C7H3C6H4C6H4C2HCHC2H3C2NHC2HC2HCH2SC2HNHCHC2NSH3NH2CH3CH2CHCFeHCFeH2CH2CSNHC3HNC2H4C2HSH2CHSCHCHNH2CHCHCHSHC2HFeS2FeCSFeHFeS3FeSFeHFeSCH2S2HFeS2FeS2FeSFeS4CH4C6H4C6H4C6H4C6H4C2H3CFeSCH2C4HCH4C4HCH2C2HCH2NHCH3CHCSCH3C3HC2HC2H3NC6H2CSHSNH3C2NCH3CHCSCNCH2CHCSH2SCFeSCHSHCSCFeS2FeS2FeSFeS3FeHSCH3S2C6H4C2H3C2HC2H2SC2FeH2C7H4C7H4CHC3H2CHCH2CHNC2H3CH2NCNCSCH4CH4C2NC2HC2H2CH2SH3C2HFeNFeHCSFeSCSC2H3C2H2CH3CH3C2HS2CS2FeSHCSCHSHFeS2FeS2FeCFeS3FeHSCHSCS2C6H4CHSHCHNCH4C3H2CHC6H4C6H4FeHFeC2H4CNHNHCHCH2CSH3CH2CSH2FeC3NCSC3NHC2NC4SCH2C3H3NFeCH3C2H2CH2C3H2CHC2HCH2C5FeCHCH2C2H2CSFeCH7S2CHSFeHSNHC2S2FeCHC2SHS2CHCHC2HC2H3FeHFeH2S2HC5HSC4HCH3FeHCHC2HFeSNCSHC2HCHCHCHCNC3H3SHCH3CNC3H2C2SCH3CH3C6H4SCHCSFeS2C2HCSHFeH3CHCHS2HCHNSC3HFeCFeC4SFeH2C2H4CH2CHCHSH2SHNC3H3C3H2CHC5H2C2HCSNFeC3FeCSH5C2FeHCHSH3C3H2SC3H2SHC2HCH3FeNHFeS2CSFeS3HSHFeSHSFeHFeSHFeS2FeS2FeSFeS3CHC3HC11H4C6H4C6H4C6H4SH2CHCHCH2CNHC2HCSCHCNH5CHC2FeHCH2FeNC6H8SH2SH3C4H3CH2CSC5HCH3NHCHCH8SHCFeC2HSCFeHCFeS2C2FeS3CSHFeS3FeHFeS2FeS2FeS2FeNFeS4HSCH2CHCHC7H4C6H4C6H4C6H4SH3C2HC2H2FeH2C3NH2CHCH3CHSHCHCHCHSCNH5CHCSHCNC6H9C3HCNC3H2C2NHCH4CHNHC
_chemical_formula_sum              "C768 H768 S256 Fe128 N64"
_cell_length_a       51.0275
_cell_length_b       52.3862
_cell_length_c       38.521
_cell_angle_alpha    90.099
_cell_angle_beta     89.9246
_cell_angle_gamma    89.7284

_space_group_name_H-M_alt    "P 1"
_space_group_IT_number       1

loop_
  _space_group_symop_operation_xyz
  'x, y, z'

loop_
  _atom_site_type_symbol
  _atom_site_label
  _atom_site_symmetry_multiplicity
  _atom_site_fract_x
  _atom_site_fract_y
  _atom_site_fract_z
  _atom_site_occupancy
  C   C1        1.0  0.15714  0.18436  0.00576  1.0000
  H   H1        1.0  0.07355  0.31916  0.42021  1.0000
  S   S1        1.0  0.08220  0.06222  0.38745  1.0000
  H   H2        1.0  0.47999  0.27240  0.28067  1.0000
  Fe  Fe1       1.0  0.07023  0.10056  0.40917  1.0000
  S   S2        1.0  0.09659  0.13518  0.40692  1.0000
  H   H3        1.0  0.21475  0.28772  0.42160  1.0000
  C   C2        1.0  0.14208  0.34474  0.45753  1.0000
  H   H4        1.0  0.29902  0.30602  0.32199  1.0000
  Fe  Fe2       1.0  0.19129  0.29855  0.04155  1.0000
  H   H5        1.0  0.43105  0.15879  0.44283  1.0000
  H   H6        1.0  0.06803  0.34209  0.00647  1.0000
  Fe  Fe3       1.0  0.23475  0.26392  0.07125  1.0000
  S   S3        1.0  0.22271  0.23129  0.03654  1.0000
  S   S4        1.0  0.27257  0.25544  0.10093  1.0000
  H   H7        1.0  0.33656  0.28738  0.00786  1.0000
  H   H8        1.0  0.36794  0.22475  0.43995  1.0000
  Fe  Fe4       1.0  0.18137  0.24195  0.04989  1.0000
  S   S5        1.0  0.14902  0.21444  0.06382  1.0000
  C   C3        1.0  0.03985  0.32626  0.49438  1.0000
  S   S6        1.0  0.19327  0.27242  0.08804  1.0000
  H   H9        1.0  0.42674  0.13698  0.38590  1.0000
  S   S7        1.0  0.05353  0.08521  0.45873  1.0000
  S   S8        1.0  0.49405  0.17228  0.42495  1.0000
  Fe  Fe5       1.0  0.39827  0.30719  0.30780  1.0000
  S   S9        1.0  0.39016  0.27746  0.26686  1.0000
  C   C4        1.0  0.50779  0.33328  0.33265  1.0000
  Fe  Fe6       1.0  0.36305  0.28121  0.36062  1.0000
  S   S10       1.0  0.35286  0.24916  0.32454  1.0000
  S   S11       1.0  0.34971  0.28441  0.41628  1.0000
  Fe  Fe7       1.0  0.39572  0.24961  0.31083  1.0000
  S   S12       1.0  0.42039  0.21379  0.30478  1.0000
  Fe  Fe8       1.0  0.34788  0.27985  0.28397  1.0000
  S   S13       1.0  0.30869  0.28399  0.25531  1.0000
  S   S14       1.0  0.40624  0.27916  0.35023  1.0000
  S   S15       1.0  0.35585  0.31208  0.32160  1.0000
  C   C5        1.0  0.47562  0.18469  0.39005  1.0000
  C   C6        1.0  0.46180  0.20768  0.39469  1.0000
  C   C7        1.0  0.44533  0.21717  0.36842  1.0000
  C   C8        1.0  0.44277  0.20386  0.33711  1.0000
  C   C9        1.0  0.45730  0.18130  0.33205  1.0000
  C   C10       1.0  0.47363  0.17169  0.35844  1.0000
  H   H10       1.0  0.46327  0.21781  0.41911  1.0000
  H   H11       1.0  0.43412  0.23437  0.37283  1.0000
  H   H12       1.0  0.45542  0.17087  0.30790  1.0000
  H   H13       1.0  0.48421  0.15394  0.35458  1.0000
  H   H14       1.0  0.23853  0.30055  0.45033  1.0000
  S   S16       1.0  0.17437  0.24916  0.49872  1.0000
  H   H15       1.0  0.35301  0.22234  0.39827  1.0000
  C   C11       1.0  0.04440  0.02149  0.28629  1.0000
  H   H16       1.0  0.38409  0.23830  0.40268  1.0000
  C   C12       1.0  0.51926  0.03454  0.05929  1.0000
  S   S17       1.0  0.23737  0.24089  0.44996  1.0000
  C   C13       1.0  0.28261  0.26456  0.14347  1.0000
  C   C14       1.0  0.26657  0.27901  0.16556  1.0000
  C   C15       1.0  0.27497  0.28482  0.19956  1.0000
  C   C16       1.0  0.29962  0.27664  0.21179  1.0000
  C   C17       1.0  0.31577  0.26242  0.18955  1.0000
  C   C18       1.0  0.30723  0.25633  0.15568  1.0000
  H   H17       1.0  0.24774  0.28580  0.15652  1.0000
  H   H18       1.0  0.26236  0.29594  0.21645  1.0000
  H   H19       1.0  0.33475  0.25597  0.19854  1.0000
  H   H20       1.0  0.31986  0.24519  0.13886  1.0000
  C   C19       1.0  0.26943  0.25144  0.44240  1.0000
  C   C20       1.0  0.28026  0.24781  0.40932  1.0000
  C   C21       1.0  0.30503  0.25759  0.40130  1.0000
  C   C22       1.0  0.31918  0.27095  0.42639  1.0000
  C   C23       1.0  0.30857  0.27424  0.45973  1.0000
  C   C24       1.0  0.28364  0.26454  0.46774  1.0000
  H   H21       1.0  0.26923  0.23777  0.38962  1.0000
  H   H22       1.0  0.31283  0.25522  0.37547  1.0000
  H   H23       1.0  0.31951  0.28455  0.47924  1.0000
  S   S18       1.0  0.17665  0.26859  0.00499  1.0000
  C   C25       1.0  0.10010  0.14311  0.47790  1.0000
  C   C26       1.0  0.12679  0.07314  0.47168  1.0000
  H   H24       1.0  0.48708  0.03745  0.44769  1.0000
  S   S19       1.0  0.23388  0.29274  0.02794  1.0000
  C   C27       1.0  0.22899  0.30358  0.42472  1.0000
  S   S20       1.0  0.17390  0.33849  0.04285  1.0000
  H   H25       1.0  0.30949  0.32545  0.37928  1.0000
  C   C28       1.0  0.10859  0.15022  0.44476  1.0000
  C   C29       1.0  0.12756  0.16940  0.44149  1.0000
  H   H26       1.0  0.39723  0.15529  0.34086  1.0000
  H   H27       1.0  0.48544  0.31184  0.41027  1.0000
  H   H28       1.0  0.46393  0.28071  0.37127  1.0000
  H   H29       1.0  0.13422  0.17503  0.41595  1.0000
  H   H30       1.0  0.25674  0.28417  0.31336  1.0000
  H   H31       1.0  0.44927  0.28813  0.28997  1.0000
  H   H32       1.0  0.22438  0.28271  0.36160  1.0000
  C   C30       1.0  0.04271  0.05434  0.12040  1.0000
  H   H33       1.0  0.09247  0.14674  0.01898  1.0000
  C   C31       1.0  0.11043  0.15717  0.01512  1.0000
  H   H34       1.0  0.50363  0.04571  0.07085  1.0000
  H   H35       1.0  0.49414  0.02514  0.28695  1.0000
  C   C32       1.0  0.04231  0.18427  0.46037  1.0000
  C   C33       1.0  0.47648  0.29523  0.36022  1.0000
  N   N1        1.0  0.06078  0.32149  0.47309  1.0000
  H   H36       1.0  0.20638  0.22461  0.17472  1.0000
  C   C34       1.0  0.46667  0.27877  0.30182  1.0000
  N   N2        1.0  0.06112  0.03275  0.12050  1.0000
  S   S21       1.0  0.49887  0.09580  0.42238  1.0000
  H   H37       1.0  0.16591  0.31395  0.47800  1.0000
  H   H38       1.0  0.04207  0.06401  0.09469  1.0000
  H   H39       1.0  0.13633  0.08707  0.42039  1.0000
  H   H40       1.0  0.51364  0.34574  0.38544  1.0000
  H   H41       1.0  0.29736  0.26451  0.03015  1.0000
  C   C35       1.0  0.13848  0.18098  0.47110  1.0000
  C   C36       1.0  0.29057  0.31656  0.37498  1.0000
  N   N3        1.0  0.24855  0.30350  0.39677  1.0000
  C   C37       1.0  0.08271  0.30963  0.48577  1.0000
  H   H42       1.0  0.46001  0.26137  0.31574  1.0000
  H   H43       1.0  0.49653  0.31788  0.28319  1.0000
  H   H44       1.0  0.04993  0.20674  0.03150  1.0000
  N   N4        1.0  0.38626  0.19793  0.40538  1.0000
  C   C38       1.0  0.40277  0.18825  0.43011  1.0000
  C   C39       1.0  0.38418  0.18629  0.37369  1.0000
  C   C40       1.0  0.41726  0.16597  0.42368  1.0000
  C   C41       1.0  0.39827  0.16393  0.36645  1.0000
  C   C42       1.0  0.41490  0.15374  0.39166  1.0000
  C   C43       1.0  0.37220  0.22194  0.41189  1.0000
  H   H45       1.0  0.40528  0.19804  0.45470  1.0000
  C   C44       1.0  0.28488  0.30540  0.34299  1.0000
  C   C45       1.0  0.14106  0.18994  0.03423  1.0000
  H   H46       1.0  0.15350  0.19535  0.46828  1.0000
  C   C46       1.0  0.51527  0.02493  0.28940  1.0000
  H   H47       1.0  0.37221  0.19468  0.35337  1.0000
  Fe  Fe9       1.0  0.06221  0.04685  0.43498  1.0000
  H   H48       1.0  0.08767  0.23057  0.01470  1.0000
  N   N5        1.0  0.22445  0.20602  0.13141  1.0000
  C   C47       1.0  0.20155  0.19719  0.11749  1.0000
  C   C48       1.0  0.24805  0.19686  0.11980  1.0000
  C   C49       1.0  0.20189  0.17811  0.09202  1.0000
  C   C50       1.0  0.24911  0.17793  0.09415  1.0000
  C   C51       1.0  0.22583  0.16847  0.08028  1.0000
  C   C52       1.0  0.22369  0.22648  0.15740  1.0000
  H   H49       1.0  0.18281  0.20507  0.12570  1.0000
  H   H50       1.0  0.26624  0.20451  0.12999  1.0000
  H   H51       1.0  0.18365  0.17125  0.08097  1.0000
  H   H52       1.0  0.26788  0.17091  0.08485  1.0000
  H   H53       1.0  0.22628  0.15397  0.06012  1.0000
  H   H54       1.0  0.24150  0.22621  0.17406  1.0000
  H   H55       1.0  0.22281  0.24526  0.14415  1.0000
  C   C53       1.0  0.11793  0.17602  0.03914  1.0000
  C   C54       1.0  0.48873  0.31264  0.38247  1.0000
  H   H56       1.0  0.27676  0.32389  0.42669  1.0000
  S   S22       1.0  0.50811  0.06287  0.33716  1.0000
  C   C55       1.0  0.27202  0.31551  0.40173  1.0000
  H   H57       1.0  0.14882  0.34216  0.43111  1.0000
  C   C56       1.0  0.15180  0.32879  0.48402  1.0000
  C   C57       1.0  0.26098  0.29314  0.33815  1.0000
  C   C58       1.0  0.50460  0.33167  0.36854  1.0000
  C   C59       1.0  0.24287  0.29242  0.36546  1.0000
  H   H58       1.0  0.21814  0.32200  0.42501  1.0000
  C   C60       1.0  0.49493  0.31581  0.31112  1.0000
  H   H59       1.0  0.08544  0.12850  0.48083  1.0000
  N   N6        1.0  0.47994  0.29679  0.32504  1.0000
  H   H60       1.0  0.04247  0.15720  0.41845  1.0000
  C   C61       1.0  0.06022  0.33050  0.43709  1.0000
  H   H61       1.0  0.10553  0.18008  0.06130  1.0000
  H   H62       1.0  0.06305  0.18197  0.46577  1.0000
  C   C62       1.0  0.13934  0.08932  0.44812  1.0000
  H   H63       1.0  0.04842  0.06853  0.14041  1.0000
  H   H64       1.0  0.07898  0.04291  0.07232  1.0000
  H   H65       1.0  0.09969  0.30664  0.46927  1.0000
  H   H66       1.0  0.04013  0.32918  0.42604  1.0000
  H   H67       1.0  0.16424  0.12219  0.44259  1.0000
  C   C63       1.0  0.48883  0.02521  0.42412  1.0000
  Fe  Fe10      1.0  0.04218  0.06092  0.36326  1.0000
  C   C64       1.0  0.30630  0.25887  0.00565  1.0000
  H   H68       1.0  0.03938  0.18034  0.00572  1.0000
  S   S23       1.0  0.42755  0.33849  0.29682  1.0000
  C   C65       1.0  0.05038  0.02003  0.01279  1.0000
  H   H69       1.0  0.51929  0.34864  0.32157  1.0000
  H   H70       1.0  0.27536  0.26736  0.49334  1.0000
  C   C66       1.0  0.02893  0.02877  0.03207  1.0000
  H   H71       1.0  0.48485  0.03779  0.40144  1.0000
  C   C67       1.0  0.52756  0.04211  0.31204  1.0000
  C   C68       1.0  0.07876  0.02971  0.09400  1.0000
  C   C69       1.0  0.15505  0.10903  0.46058  1.0000
  Fe  Fe11      1.0  0.51628  0.13483  0.41966  1.0000
  H   H72       1.0  0.41826  0.33699  0.37148  1.0000
  S   S24       1.0  0.03186  0.10086  0.38059  1.0000
  C   C70       1.0  0.03054  0.17038  0.43357  1.0000
  C   C71       1.0  0.04597  0.20053  0.00444  1.0000
  S   S25       1.0  0.51995  0.07182  0.00925  1.0000
  H   H73       1.0  0.11441  0.05797  0.46181  1.0000
  C   C72       1.0  0.14901  0.34768  0.01341  1.0000
  Fe  Fe12      1.0  0.52710  0.08579  0.37977  1.0000
  H   H74       1.0  0.07800  0.01742  0.31951  1.0000
  S   S26       1.0  0.03006  0.04726  0.30944  1.0000
  C   C73       1.0  0.15775  0.11259  0.49629  1.0000
  H   H75       1.0  0.04701  0.01847  0.16890  1.0000
  H   H76       1.0  0.03583  0.21139  0.50173  1.0000
  Fe  Fe13      1.0  0.21827  0.24536  0.50243  1.0000
  C   C74       1.0  0.05374  0.02565  0.84717  1.0000
  C   C75       1.0  0.52043  0.02520  0.55663  1.0000
  S   S27       1.0  0.06329  0.07334  0.94410  1.0000
  H   H77       1.0  0.22582  0.29129  0.68864  1.0000
  Fe  Fe14      1.0  0.07531  0.11447  0.95163  1.0000
  S   S28       1.0  0.11709  0.12896  0.95486  1.0000
  C   C76       1.0  0.30722  0.23208  0.95457  1.0000
  H   H78       1.0  0.47458  0.05460  0.96233  1.0000
  N   N7        1.0  0.48612  0.30971  0.88547  1.0000
  Fe  Fe15      1.0  0.17900  0.27727  0.54209  1.0000
  H   H79       1.0  0.44964  0.29427  0.86876  1.0000
  C   C77       1.0  0.33937  0.26433  0.96137  1.0000
  Fe  Fe16      1.0  0.21916  0.24439  0.58140  1.0000
  S   S29       1.0  0.21783  0.21309  0.54099  1.0000
  S   S30       1.0  0.23621  0.24210  0.63635  1.0000
  H   H80       1.0  0.48660  0.33405  0.93002  1.0000
  C   C78       1.0  0.11565  0.06001  0.53087  1.0000
  Fe  Fe17      1.0  0.17414  0.21875  0.53950  1.0000
  S   S31       1.0  0.14466  0.18639  0.54211  1.0000
  S   S32       1.0  0.22309  0.27641  0.54265  1.0000
  S   S33       1.0  0.17519  0.24720  0.58298  1.0000
  S   S34       1.0  0.49943  0.09486  0.91708  1.0000
  H   H81       1.0  0.06319  0.30056  0.56923  1.0000
  S   S35       1.0  0.50332  0.17316  0.89958  1.0000
  Fe  Fe18      1.0  0.40696  0.29599  0.80112  1.0000
  S   S36       1.0  0.40101  0.26223  0.76592  1.0000
  S   S37       1.0  0.44579  0.31682  0.79814  1.0000
  Fe  Fe19      1.0  0.35434  0.28832  0.83575  1.0000
  S   S38       1.0  0.34398  0.25381  0.80376  1.0000
  S   S39       1.0  0.33233  0.30579  0.88074  1.0000
  Fe  Fe20      1.0  0.38598  0.24225  0.81320  1.0000
  S   S40       1.0  0.39578  0.20093  0.82454  1.0000
  Fe  Fe21      1.0  0.35961  0.27649  0.75868  1.0000
  S   S41       1.0  0.34480  0.27770  0.70256  1.0000
  S   S42       1.0  0.39493  0.27474  0.84893  1.0000
  S   S43       1.0  0.36699  0.31213  0.79017  1.0000
  C   C79       1.0  0.47355  0.18034  0.87808  1.0000
  C   C80       1.0  0.46678  0.20603  0.87236  1.0000
  C   C81       1.0  0.44314  0.21256  0.85569  1.0000
  C   C82       1.0  0.42596  0.19341  0.84484  1.0000
  C   C83       1.0  0.43277  0.16772  0.85044  1.0000
  C   C84       1.0  0.45652  0.16118  0.86688  1.0000
  H   H82       1.0  0.47985  0.22094  0.88095  1.0000
  H   H83       1.0  0.43818  0.23238  0.85140  1.0000
  H   H84       1.0  0.41960  0.15279  0.84213  1.0000
  H   H85       1.0  0.46153  0.14134  0.87116  1.0000
  C   C85       1.0  0.22945  0.30308  0.66602  1.0000
  C   C86       1.0  0.18460  0.29481  0.64708  1.0000
  H   H86       1.0  0.05550  0.17550  0.94572  1.0000
  C   C87       1.0  0.52260  0.33605  0.90143  1.0000
  C   C88       1.0  0.12631  0.15174  0.98640  1.0000
  H   H87       1.0  0.34999  0.25343  0.89622  1.0000
  H   H88       1.0  0.12582  0.05864  0.55630  1.0000
  C   C89       1.0  0.26676  0.25179  0.65389  1.0000
  C   C90       1.0  0.28674  0.26196  0.63334  1.0000
  C   C91       1.0  0.31035  0.27006  0.64878  1.0000
  C   C92       1.0  0.31423  0.26818  0.68487  1.0000
  C   C93       1.0  0.29419  0.25815  0.70545  1.0000
  C   C94       1.0  0.27065  0.24993  0.68999  1.0000
  H   H89       1.0  0.28400  0.26359  0.60557  1.0000
  H   H90       1.0  0.32575  0.27777  0.63262  1.0000
  H   H91       1.0  0.29690  0.25655  0.73322  1.0000
  H   H92       1.0  0.25527  0.24215  0.70614  1.0000
  C   C95       1.0  0.25822  0.26822  0.92226  1.0000
  C   C96       1.0  0.26858  0.26038  0.89021  1.0000
  C   C97       1.0  0.29099  0.27223  0.87659  1.0000
  C   C98       1.0  0.30291  0.29208  0.89491  1.0000
  C   C99       1.0  0.29205  0.30041  0.92639  1.0000
  C   C100      1.0  0.26991  0.28837  0.94019  1.0000
  H   H93       1.0  0.25952  0.24486  0.87615  1.0000
  H   H94       1.0  0.29911  0.26590  0.85211  1.0000
  H   H95       1.0  0.30127  0.31577  0.94061  1.0000
  H   H96       1.0  0.26233  0.29441  0.96497  1.0000
  H   H97       1.0  0.41266  0.22249  0.70194  1.0000
  C   C101      1.0  0.14337  0.33231  0.51828  1.0000
  H   H98       1.0  0.10142  0.29264  0.53049  1.0000
  C   C102      1.0  0.46000  0.29960  0.89309  1.0000
  C   C103      1.0  0.18967  0.31164  0.91741  1.0000
  H   H99       1.0  0.17161  0.29711  0.62410  1.0000
  H   H100      1.0  0.51428  0.05623  0.75323  1.0000
  N   N8        1.0  0.12980  0.07657  0.50668  1.0000
  N   N9        1.0  0.19792  0.34905  0.95187  1.0000
  H   H101      1.0  0.24365  0.34231  0.58357  1.0000
  H   H102      1.0  0.02963  0.21203  0.99344  1.0000
  C   C104      1.0  0.11954  0.33825  0.96564  1.0000
  Fe  Fe22      1.0  0.03588  0.08811  0.90296  1.0000
  H   H103      1.0  0.39107  0.24750  0.68735  1.0000
  H   H104      1.0  0.09472  0.17800  0.90844  1.0000
  S   S44       1.0  0.23138  0.25182  0.93989  1.0000
  C   C105      1.0  0.25952  0.32790  0.63163  1.0000
  C   C106      1.0  0.29559  0.23900  0.98619  1.0000
  C   C107      1.0  0.49961  0.30103  0.85703  1.0000
  H   H105      1.0  0.16900  0.12858  0.50623  1.0000
  C   C108      1.0  0.34115  0.23684  0.90979  1.0000
  Fe  Fe23      1.0  0.21914  0.26077  0.99474  1.0000
  C   C109      1.0  0.25428  0.31382  0.66151  1.0000
  C   C110      1.0  0.47190  0.03495  0.97257  1.0000
  H   H106      1.0  0.13067  0.20781  0.92397  1.0000
  H   H107      1.0  0.10434  0.14916  0.53307  1.0000
  Fe  Fe24      1.0  0.51852  0.13261  0.90636  1.0000
  N   N10       1.0  0.06927  0.20279  0.98234  1.0000
  C   C111      1.0  0.16968  0.32458  0.89997  1.0000
  H   H108      1.0  0.27891  0.33578  0.62750  1.0000
  H   H109      1.0  0.29849  0.21689  0.93939  1.0000
  C   C112      1.0  0.20373  0.32429  0.94334  1.0000
  H   H110      1.0  0.49963  0.02863  0.55974  1.0000
  S   S45       1.0  0.51209  0.05129  0.83906  1.0000
  H   H111      1.0  0.52050  0.04846  0.68403  1.0000
  H   H112      1.0  0.14385  0.31039  0.99117  1.0000
  H   H113      1.0  0.21920  0.31407  0.95670  1.0000
  C   C113      1.0  0.49733  0.32691  0.90766  1.0000
  C   C114      1.0  0.06243  0.30630  0.54220  1.0000
  H   H114      1.0  0.45232  0.02781  0.96482  1.0000
  H   H115      1.0  0.49110  0.34844  0.80418  1.0000
  N   N11       1.0  0.32873  0.24481  0.94247  1.0000
  Fe  Fe25      1.0  0.03071  0.08354  0.98114  1.0000
  H   H116      1.0  0.35614  0.27472  0.95146  1.0000
  H   H117      1.0  0.49052  0.28772  0.83913  1.0000
  C   C115      1.0  0.11310  0.20701  0.93982  1.0000
  H   H118      1.0  0.27805  0.22940  0.99513  1.0000
  H   H119      1.0  0.14620  0.09971  0.54683  1.0000
  S   S46       1.0  0.15478  0.31278  0.55241  1.0000
  C   C116      1.0  0.05576  0.02883  0.52211  1.0000
  H   H120      1.0  0.03865  0.04192  0.57000  1.0000
  S   S47       1.0  0.05071  0.12833  0.90723  1.0000
  C   C117      1.0  0.09297  0.19029  0.93107  1.0000
  N   N12       1.0  0.37158  0.21398  0.70364  1.0000
  C   C118      1.0  0.34815  0.21382  0.68642  1.0000
  C   C119      1.0  0.37363  0.20337  0.73597  1.0000
  C   C120      1.0  0.32600  0.20271  0.70145  1.0000
  C   C121      1.0  0.35185  0.19219  0.75184  1.0000
  C   C122      1.0  0.32789  0.19192  0.73445  1.0000
  C   C123      1.0  0.39421  0.22646  0.68757  1.0000
  H   H121      1.0  0.34631  0.22301  0.66131  1.0000
  H   H122      1.0  0.39209  0.20369  0.74993  1.0000
  H   H123      1.0  0.30735  0.20308  0.68789  1.0000
  H   H124      1.0  0.35360  0.18409  0.77768  1.0000
  H   H125      1.0  0.31077  0.18361  0.74664  1.0000
  H   H126      1.0  0.39685  0.21972  0.66045  1.0000
  H   H127      1.0  0.17473  0.30374  0.66976  1.0000
  H   H128      1.0  0.15839  0.31494  0.88008  1.0000
  H   H129      1.0  0.26961  0.31048  0.68054  1.0000
  H   H130      1.0  0.41572  0.34218  0.85303  1.0000
  N   N13       1.0  0.21034  0.30643  0.64156  1.0000
  C   C124      1.0  0.21514  0.32066  0.61249  1.0000
  H   H131      1.0  0.06076  0.03011  0.87295  1.0000
  C   C125      1.0  0.07097  0.18862  0.95259  1.0000
  C   C126      1.0  0.08381  0.30171  0.52042  1.0000
  C   C127      1.0  0.13027  0.17363  0.50423  1.0000
  C   C128      1.0  0.50164  0.02071  0.92632  1.0000
  C   C129      1.0  0.45266  0.34281  0.82596  1.0000
  H   H132      1.0  0.16233  0.16092  0.96006  1.0000
  H   H133      1.0  0.19998  0.32345  0.59312  1.0000
  H   H134      1.0  0.11150  0.32458  0.94750  1.0000
  C   C130      1.0  0.13800  0.33015  0.99033  1.0000
  H   H135      1.0  0.18694  0.27396  0.65178  1.0000
  H   H136      1.0  0.46168  0.28247  0.90987  1.0000
  H   H137      1.0  0.44757  0.31423  0.90616  1.0000
  H   H138      1.0  0.35675  0.22247  0.91490  1.0000
  C   C131      1.0  0.23982  0.33146  0.60698  1.0000
  H   H139      1.0  0.32659  0.22858  0.89157  1.0000
  N   N14       1.0  0.49245  0.01780  0.95946  1.0000
  C   C132      1.0  0.52489  0.30991  0.84993  1.0000
  C   C133      1.0  0.04849  0.02628  0.55694  1.0000
  C   C134      1.0  0.03755  0.04305  0.82978  1.0000
  C   C135      1.0  0.04025  0.31864  0.52914  1.0000
  H   H140      1.0  0.12685  0.23437  0.97743  1.0000
  C   C136      1.0  0.14466  0.09626  0.51912  1.0000
  C   C137      1.0  0.14990  0.16512  0.98214  1.0000
  H   H141      1.0  0.19429  0.29190  0.91107  1.0000
  C   C138      1.0  0.08875  0.21954  0.99088  1.0000
  H   H142      1.0  0.09554  0.06761  0.53519  1.0000
  S   S48       1.0  0.04493  0.12335  0.99194  1.0000
  H   H143      1.0  0.11417  0.04024  0.52044  1.0000
  C   C139      1.0  0.11095  0.22189  0.96978  1.0000
  H   H144      1.0  0.05880  0.03188  0.99283  1.0000
  C   C140      1.0  0.11082  0.15488  0.50749  1.0000
  H   H145      1.0  0.05134  0.04628  0.50855  1.0000
  C   C141      1.0  0.32832  0.27166  0.99319  1.0000
  N   N15       1.0  0.02846  0.34670  0.99084  1.0000
  S   S49       1.0  0.51742  0.06157  0.50533  1.0000
  H   H146      1.0  0.49417  0.03586  0.90982  1.0000
  Fe  Fe26      1.0  0.52830  0.07886  0.87849  1.0000
  H   H147      1.0  0.17507  0.19491  0.00180  1.0000
  H   H148      1.0  0.22086  0.34852  0.99822  1.0000
  C   C142      1.0  0.02857  0.03688  0.79629  1.0000
  H   H149      1.0  0.47283  0.03670  0.00132  1.0000
  C   C143      1.0  0.39001  0.66757  0.22288  1.0000
  H   H150      1.0  0.18359  0.59479  0.09425  1.0000
  S   S50       1.0  0.06547  0.44673  0.44421  1.0000
  C   C144      1.0  0.03895  0.49179  0.07327  1.0000
  H   H151      1.0  0.09287  0.43682  0.29988  1.0000
  Fe  Fe27      1.0  0.04497  0.55854  0.15650  1.0000
  Fe  Fe28      1.0  0.07294  0.40425  0.43989  1.0000
  S   S51       1.0  0.11145  0.38340  0.43124  1.0000
  H   H152      1.0  0.04771  0.36035  0.03632  1.0000
  Fe  Fe29      1.0  0.07552  0.60747  0.16936  1.0000
  H   H153      1.0  0.48632  0.50191  0.11236  1.0000
  S   S52       1.0  0.11156  0.63240  0.16260  1.0000
  C   C145      1.0  0.46029  0.37409  0.32542  1.0000
  C   C146      1.0  0.47247  0.38709  0.35299  1.0000
  H   H154      1.0  0.16497  0.61999  0.07337  1.0000
  S   S53       1.0  0.06239  0.56442  0.28570  1.0000
  H   H155      1.0  0.49070  0.44594  0.46242  1.0000
  S   S54       1.0  0.08059  0.56711  0.18841  1.0000
  S   S55       1.0  0.49354  0.58830  0.17198  1.0000
  H   H156      1.0  0.03888  0.47009  0.02553  1.0000
  H   H157      1.0  0.08117  0.46065  0.33037  1.0000
  C   C147      1.0  0.06679  0.52843  0.03606  1.0000
  C   C148      1.0  0.04502  0.48751  0.03816  1.0000
  S   S56       1.0  0.48041  0.39753  0.42249  1.0000
  C   C149      1.0  0.48333  0.44321  0.48931  1.0000
  H   H158      1.0  0.20460  0.64657  0.07476  1.0000
  C   C150      1.0  0.46499  0.38212  0.38725  1.0000
  C   C151      1.0  0.05187  0.35631  0.00852  1.0000
  H   H159      1.0  0.03587  0.47458  0.20414  1.0000
  H   H160      1.0  0.48755  0.40100  0.34769  1.0000
  C   C152      1.0  0.14144  0.67576  0.06773  1.0000
  C   C153      1.0  0.05045  0.47870  0.22383  1.0000
  H   H161      1.0  0.50674  0.46544  0.08150  1.0000
  H   H162      1.0  0.19293  0.65116  0.20202  1.0000
  C   C154      1.0  0.51388  0.51638  0.29975  1.0000
  H   H163      1.0  0.14913  0.38702  0.03000  1.0000
  C   C155      1.0  0.46600  0.66359  0.23595  1.0000
  H   H164      1.0  0.44951  0.66307  0.28763  1.0000
  H   H165      1.0  0.47530  0.64507  0.23840  1.0000
  C   C156      1.0  0.11972  0.65096  0.12597  1.0000
  H   H166      1.0  0.39256  0.65423  0.24415  1.0000
  Fe  Fe30      1.0  0.03515  0.43502  0.48373  1.0000
  C   C157      1.0  0.11130  0.64453  0.09256  1.0000
  C   C158      1.0  0.11494  0.36716  0.49922  1.0000
  C   C159      1.0  0.21301  0.66680  0.15765  1.0000
  H   H167      1.0  0.09731  0.62929  0.08903  1.0000
  C   C160      1.0  0.08730  0.48937  0.27459  1.0000
  H   H168      1.0  0.16885  0.61912  0.16746  1.0000
  C   C161      1.0  0.05416  0.46231  0.25211  1.0000
  S   S57       1.0  0.04313  0.39904  0.39776  1.0000
  C   C162      1.0  0.06079  0.52853  0.33773  1.0000
  C   C163      1.0  0.05196  0.50608  0.35408  1.0000
  C   C164      1.0  0.46799  0.67713  0.20479  1.0000
  H   H169      1.0  0.46280  0.43638  0.48748  1.0000
  H   H170      1.0  0.41221  0.67928  0.14155  1.0000
  C   C165      1.0  0.04667  0.51443  0.08975  1.0000
  Fe  Fe31      1.0  0.05217  0.57737  0.23075  1.0000
  C   C166      1.0  0.06059  0.53278  0.07113  1.0000
  C   C167      1.0  0.52439  0.53064  0.27240  1.0000
  H   H171      1.0  0.06112  0.49956  0.37779  1.0000
  C   C168      1.0  0.18252  0.63177  0.15449  1.0000
  C   C169      1.0  0.08406  0.50618  0.24672  1.0000
  C   C170      1.0  0.51307  0.47036  0.10755  1.0000
  Fe  Fe32      1.0  0.52329  0.58051  0.21342  1.0000
  S   S58       1.0  0.04949  0.61855  0.21421  1.0000
  C   C171      1.0  0.05898  0.50583  0.01951  1.0000
  C   C172      1.0  0.45136  0.67380  0.26377  1.0000
  H   H172      1.0  0.46614  0.37803  0.29897  1.0000
  H   H173      1.0  0.41627  0.64744  0.18837  1.0000
  C   C173      1.0  0.07653  0.45014  0.30605  1.0000
  C   C174      1.0  0.48797  0.48981  0.49356  1.0000
  N   N16       1.0  0.51015  0.49776  0.15753  1.0000
  H   H174      1.0  0.15282  0.60593  0.11228  1.0000
  H   H175      1.0  0.07674  0.53923  0.34908  1.0000
  C   C175      1.0  0.12353  0.36389  0.46503  1.0000
  C   C176      1.0  0.04947  0.53703  0.30648  1.0000
  N   N17       1.0  0.18548  0.63085  0.11917  1.0000
  H   H176      1.0  0.14437  0.67595  0.15595  1.0000
  S   S59       1.0  0.48447  0.66446  0.16835  1.0000
  C   C177      1.0  0.21640  0.66524  0.12181  1.0000
  H   H177      1.0  0.51202  0.52958  0.19204  1.0000
  C   C178      1.0  0.03148  0.49207  0.33942  1.0000
  H   H178      1.0  0.05249  0.49072  0.49481  1.0000
  C   C179      1.0  0.49760  0.51907  0.17590  1.0000
  C   C180      1.0  0.20237  0.64711  0.10279  1.0000
  Fe  Fe33      1.0  0.03309  0.44046  0.40535  1.0000
  C   C181      1.0  0.19603  0.64992  0.17421  1.0000
  C   C182      1.0  0.40099  0.68197  0.16522  1.0000
  H   H179      1.0  0.43921  0.36040  0.42017  1.0000
  H   H180      1.0  0.06251  0.51377  0.19974  1.0000
  H   H181      1.0  0.49571  0.52238  0.31185  1.0000
  H   H182      1.0  0.06651  0.55033  0.08366  1.0000
  H   H183      1.0  0.48182  0.51191  0.19315  1.0000
  C   C183      1.0  0.52686  0.49448  0.31179  1.0000
  Fe  Fe34      1.0  0.51909  0.41712  0.41262  1.0000
  H   H184      1.0  0.48913  0.53309  0.15733  1.0000
  H   H185      1.0  0.51848  0.48351  0.33268  1.0000
  H   H186      1.0  0.10138  0.49404  0.29467  1.0000
  S   S60       1.0  0.03717  0.51985  0.13301  1.0000
  H   H187      1.0  0.11605  0.65150  0.03764  1.0000
  C   C184      1.0  0.12211  0.65698  0.06350  1.0000
  S   S61       1.0  0.04526  0.39320  0.48237  1.0000
  H   H188      1.0  0.51185  0.55821  0.38362  1.0000
  C   C185      1.0  0.13795  0.67071  0.13014  1.0000
  C   C186      1.0  0.43332  0.35091  0.36619  1.0000
  C   C187      1.0  0.06550  0.50075  0.22125  1.0000
  H   H189      1.0  0.49095  0.49071  0.46570  1.0000
  H   H190      1.0  0.49975  0.52508  0.02902  1.0000
  S   S62       1.0  0.04220  0.59786  0.13299  1.0000
  C   C188      1.0  0.17110  0.61187  0.09878  1.0000
  H   H191      1.0  0.07761  0.54265  0.02166  1.0000
  H   H192      1.0  0.52217  0.58385  0.33104  1.0000
  C   C189      1.0  0.14082  0.37333  0.01210  1.0000
  N   N18       1.0  0.07229  0.46787  0.27714  1.0000
  C   C190      1.0  0.44520  0.36421  0.39373  1.0000
  S   S63       1.0  0.50849  0.55894  0.25989  1.0000
  C   C191      1.0  0.40330  0.66377  0.19160  1.0000
  Fe  Fe35      1.0  0.50865  0.62828  0.17325  1.0000
  H   H193      1.0  0.09522  0.52376  0.24550  1.0000
  C   C192      1.0  0.44093  0.35575  0.33194  1.0000
  C   C193      1.0  0.50160  0.49095  0.12517  1.0000
  H   H194      1.0  0.23795  0.67484  0.48784  1.0000
  H   H195      1.0  0.05858  0.43889  0.31169  1.0000
  C   C194      1.0  0.51786  0.51731  0.03920  1.0000
  H   H196      1.0  0.06648  0.35074  0.43611  1.0000
  H   H197      1.0  0.04219  0.44534  0.25419  1.0000
  S   S64       1.0  0.51397  0.55559  0.08760  1.0000
  S   S65       1.0  0.52355  0.45845  0.39844  1.0000
  H   H198      1.0  0.49234  0.53054  0.50013  1.0000
  H   H199      1.0  0.49561  0.42799  0.50121  1.0000
  H   H200      1.0  0.22960  0.67830  0.10888  1.0000
  Fe  Fe36      1.0  0.52636  0.57908  0.13479  1.0000
  C   C195      1.0  0.02887  0.52310  0.29205  1.0000
  H   H201      1.0  0.22343  0.68126  0.17238  1.0000
  C   C196      1.0  0.04715  0.49352  0.76027  1.0000
  H   H202      1.0  0.47901  0.44745  0.55782  1.0000
  S   S66       1.0  0.08281  0.44962  0.90813  1.0000
  C   C197      1.0  0.05090  0.52511  0.52568  1.0000
  Fe  Fe37      1.0  0.04800  0.45004  0.87244  1.0000
  H   H203      1.0  0.15595  0.68066  0.66252  1.0000
  Fe  Fe38      1.0  0.06902  0.41136  0.92713  1.0000
  Fe  Fe39      1.0  0.51381  0.61238  0.68207  1.0000
  H   H204      1.0  0.44935  0.65147  0.78722  1.0000
  Fe  Fe40      1.0  0.07615  0.62299  0.65617  1.0000
  C   C198      1.0  0.11192  0.36397  0.96367  1.0000
  S   S67       1.0  0.11411  0.64417  0.66539  1.0000
  H   H205      1.0  0.52588  0.49379  0.70046  1.0000
  H   H206      1.0  0.42813  0.37638  0.89469  1.0000
  H   H207      1.0  0.38464  0.67849  0.72544  1.0000
  S   S68       1.0  0.03342  0.57007  0.74820  1.0000
  C   C199      1.0  0.03273  0.52079  0.58345  1.0000
  S   S69       1.0  0.07184  0.58032  0.65636  1.0000
  N   N19       1.0  0.10459  0.58577  0.74676  1.0000
  C   C200      1.0  0.10488  0.54071  0.75840  1.0000
  S   S70       1.0  0.48495  0.64386  0.66863  1.0000
  S   S71       1.0  0.04480  0.62863  0.69596  1.0000
  C   C201      1.0  0.45000  0.65963  0.76144  1.0000
  S   S72       1.0  0.47556  0.40480  0.90471  1.0000
  H   H208      1.0  0.09917  0.62544  0.73502  1.0000
  H   H209      1.0  0.07492  0.61176  0.76286  1.0000
  C   C202      1.0  0.48448  0.37359  0.84774  1.0000
  Fe  Fe41      1.0  0.05438  0.46535  0.94776  1.0000
  H   H210      1.0  0.50358  0.38221  0.84601  1.0000
  H   H211      1.0  0.03577  0.36741  0.94418  1.0000
  H   H212      1.0  0.04022  0.50982  0.84527  1.0000
  C   C203      1.0  0.02880  0.49465  0.57724  1.0000
  S   S73       1.0  0.09039  0.37325  0.93013  1.0000
  C   C204      1.0  0.46571  0.65782  0.70186  1.0000
  H   H213      1.0  0.22999  0.37235  0.96644  1.0000
  C   C205      1.0  0.43568  0.68196  0.75428  1.0000
  C   C206      1.0  0.46523  0.64776  0.73546  1.0000
  C   C207      1.0  0.04712  0.49897  0.51955  1.0000
  H   H214      1.0  0.47634  0.63066  0.74136  1.0000
  C   C208      1.0  0.46693  0.38139  0.87363  1.0000
  C   C209      1.0  0.11874  0.65786  0.59636  1.0000
  H   H215      1.0  0.20086  0.37608  0.99314  1.0000
  H   H216      1.0  0.47446  0.47456  0.80913  1.0000
  H   H217      1.0  0.10748  0.61823  0.77945  1.0000
  N   N20       1.0  0.48456  0.46682  0.50974  1.0000
  H   H218      1.0  0.10320  0.64444  0.59117  1.0000
  H   H219      1.0  0.52592  0.52064  0.72996  1.0000
  H   H220      1.0  0.48907  0.50357  0.76221  1.0000
  H   H221      1.0  0.13815  0.55410  0.68417  1.0000
  H   H222      1.0  0.05879  0.37446  0.99681  1.0000
  H   H223      1.0  0.48735  0.52879  0.56431  1.0000
  H   H224      1.0  0.32915  0.66654  0.78355  1.0000
  S   S74       1.0  0.04930  0.45940  0.81453  1.0000
  H   H225      1.0  0.12530  0.59781  0.70148  1.0000
  C   C210      1.0  0.11942  0.53645  0.72824  1.0000
  H   H226      1.0  0.17387  0.38158  0.94140  1.0000
  Fe  Fe42      1.0  0.51809  0.41471  0.91451  1.0000
  C   C211      1.0  0.11955  0.58187  0.71770  1.0000
  S   S75       1.0  0.04369  0.56953  0.56151  1.0000
  H   H227      1.0  0.12244  0.66935  0.54285  1.0000
  S   S76       1.0  0.06645  0.50146  0.97534  1.0000
  H   H228      1.0  0.05083  0.47706  0.74392  1.0000
  H   H229      1.0  0.12462  0.51713  0.72059  1.0000
  H   H230      1.0  0.03327  0.55237  0.81831  1.0000
  C   C212      1.0  0.48581  0.51148  0.54886  1.0000
  C   C213      1.0  0.09765  0.56566  0.76736  1.0000
  C   C214      1.0  0.14855  0.67820  0.63642  1.0000
  H   H231      1.0  0.08565  0.56877  0.79028  1.0000
  S   S77       1.0  0.04877  0.62991  0.61203  1.0000
  C   C215      1.0  0.04604  0.49046  0.79655  1.0000
  C   C216      1.0  0.04323  0.53615  0.55734  1.0000
  H   H232      1.0  0.36256  0.65853  0.77335  1.0000
  C   C217      1.0  0.44195  0.37024  0.87500  1.0000
  H   H233      1.0  0.11845  0.35447  0.55221  1.0000
  C   C218      1.0  0.04120  0.51187  0.81734  1.0000
  H   H234      1.0  0.09860  0.52477  0.77432  1.0000
  H   H235      1.0  0.48081  0.48706  0.59319  1.0000
  C   C219      1.0  0.48155  0.46570  0.54501  1.0000
  H   H236      1.0  0.04428  0.51977  0.71695  1.0000
  C   C220      1.0  0.50930  0.45122  0.80680  1.0000
  C   C221      1.0  0.48223  0.48798  0.56511  1.0000
  Fe  Fe43      1.0  0.03804  0.58630  0.69330  1.0000
  S   S78       1.0  0.04322  0.42692  0.96968  1.0000
  C   C222      1.0  0.12229  0.38148  0.98733  1.0000
  C   C223      1.0  0.04337  0.51769  0.74487  1.0000
  H   H237      1.0  0.10092  0.38204  0.50538  1.0000
  C   C224      1.0  0.48861  0.51246  0.51286  1.0000
  C   C225      1.0  0.12699  0.55715  0.70783  1.0000
  H   H238      1.0  0.51134  0.52541  0.84305  1.0000
  C   C226      1.0  0.21327  0.36220  0.97855  1.0000
  C   C227      1.0  0.12812  0.66092  0.63020  1.0000
  H   H239      1.0  0.50326  0.43873  0.82785  1.0000
  Fe  Fe44      1.0  0.04177  0.58758  0.61468  1.0000
  C   C228      1.0  0.09622  0.61161  0.75655  1.0000
  S   S79       1.0  0.50569  0.57114  0.69329  1.0000
  C   C229      1.0  0.03823  0.53905  0.76568  1.0000
  C   C230      1.0  0.12972  0.67197  0.56897  1.0000
  C   C231      1.0  0.03718  0.53597  0.80195  1.0000
  H   H240      1.0  0.51975  0.48676  0.00130  1.0000
  S   S80       1.0  0.03666  0.41022  0.88777  1.0000
  C   C232      1.0  0.43485  0.35094  0.85136  1.0000
  C   C233      1.0  0.49313  0.47134  0.79630  1.0000
  C   C234      1.0  0.50146  0.48760  0.76969  1.0000
  C   C235      1.0  0.03549  0.48383  0.54505  1.0000
  C   C236      1.0  0.17864  0.36201  0.93451  1.0000
  H   H241      1.0  0.14827  0.36010  0.89558  1.0000
  H   H242      1.0  0.11649  0.40137  0.98610  1.0000
  C   C237      1.0  0.34804  0.67443  0.77422  1.0000
  C   C238      1.0  0.12503  0.35160  0.52577  1.0000
  H   H243      1.0  0.05910  0.53699  0.50548  1.0000
  C   C239      1.0  0.47730  0.35451  0.82391  1.0000
  S   S81       1.0  0.52293  0.56006  0.78827  1.0000
  C   C240      1.0  0.45123  0.68005  0.69463  1.0000
  N   N21       1.0  0.52529  0.48395  0.75404  1.0000
  C   C241      1.0  0.16416  0.34997  0.90841  1.0000
  Fe  Fe45      1.0  0.23434  0.73495  0.08417  1.0000
  S   S82       1.0  0.24703  0.76600  0.04778  1.0000
  S   S83       1.0  0.25115  0.72487  0.13654  1.0000
  Fe  Fe46      1.0  0.19012  0.71703  0.03728  1.0000
  C   C242      1.0  0.19724  0.73040  0.42511  1.0000
  C   C243      1.0  0.06129  0.99593  0.01971  1.0000
  C   C244      1.0  0.07785  0.98872  0.27902  1.0000
  S   S84       1.0  0.27605  0.75650  0.49610  1.0000
  Fe  Fe47      1.0  0.20365  0.77329  0.04160  1.0000
  S   S85       1.0  0.18578  0.81297  0.03852  1.0000
  S   S86       1.0  0.23202  0.70490  0.04289  1.0000
  S   S87       1.0  0.19150  0.74460  0.08149  1.0000
  Fe  Fe48      1.0  0.06092  0.92998  0.18278  1.0000
  S   S88       1.0  0.08919  0.92033  0.13972  1.0000
  S   S89       1.0  0.07685  0.95035  0.23064  1.0000
  C   C245      1.0  0.06269  0.95746  0.35913  1.0000
  Fe  Fe49      1.0  0.07214  0.88098  0.14005  1.0000
  S   S90       1.0  0.09183  0.84215  0.13926  1.0000
  C   C246      1.0  0.13262  0.77967  0.00588  1.0000
  H   H244      1.0  0.31031  0.86979  0.31352  1.0000
  H   H245      1.0  0.52417  0.82415  0.28098  1.0000
  Fe  Fe50      1.0  0.24196  0.73656  0.00560  1.0000
  S   S91       1.0  0.46819  0.91563  0.18887  1.0000
  H   H246      1.0  0.36062  0.72408  0.20405  1.0000
  Fe  Fe51      1.0  0.39754  0.74681  0.28909  1.0000
  S   S92       1.0  0.41038  0.77514  0.24924  1.0000
  S   S93       1.0  0.41856  0.70882  0.29488  1.0000
  Fe  Fe52      1.0  0.35144  0.78031  0.31391  1.0000
  S   S94       1.0  0.36127  0.81104  0.27494  1.0000
  S   S95       1.0  0.31405  0.78901  0.34467  1.0000
  Fe  Fe53      1.0  0.36749  0.77871  0.23750  1.0000
  S   S96       1.0  0.35661  0.77927  0.18080  1.0000
  Fe  Fe54      1.0  0.40315  0.80457  0.29025  1.0000
  S   S97       1.0  0.43361  0.83463  0.30246  1.0000
  S   S98       1.0  0.35484  0.74841  0.27484  1.0000
  S   S99       1.0  0.39320  0.77604  0.33190  1.0000
  C   C247      1.0  0.44112  0.71116  0.22960  1.0000
  C   C248      1.0  0.06779  0.01002  0.29708  1.0000
  C   C249      1.0  0.48262  0.85058  0.15925  1.0000
  H   H247      1.0  0.43120  0.72918  0.22651  1.0000
  H   H248      1.0  0.33898  0.82489  0.41137  1.0000
  H   H249      1.0  0.39290  0.71625  0.11786  1.0000
  C   C250      1.0  0.45833  0.89383  0.22126  1.0000
  C   C251      1.0  0.43536  0.87957  0.21640  1.0000
  C   C252      1.0  0.42753  0.86132  0.24106  1.0000
  C   C253      1.0  0.44230  0.85772  0.27123  1.0000
  C   C254      1.0  0.46483  0.87249  0.27657  1.0000
  C   C255      1.0  0.47305  0.89021  0.25146  1.0000
  H   H250      1.0  0.42376  0.88242  0.19321  1.0000
  H   H251      1.0  0.41006  0.85012  0.23676  1.0000
  H   H252      1.0  0.47626  0.86990  0.29996  1.0000
  H   H253      1.0  0.49056  0.90129  0.25572  1.0000
  C   C256      1.0  0.28681  0.76696  0.45468  1.0000
  C   C257      1.0  0.27205  0.78374  0.43429  1.0000
  C   C258      1.0  0.28076  0.79027  0.40070  1.0000
  C   C259      1.0  0.30430  0.78022  0.38721  1.0000
  C   C260      1.0  0.31919  0.76366  0.40774  1.0000
  C   C261      1.0  0.31042  0.75703  0.44124  1.0000
  C   C262      1.0  0.37652  0.86804  0.32252  1.0000
  H   H254      1.0  0.26908  0.80311  0.38501  1.0000
  H   H255      1.0  0.33731  0.75575  0.39772  1.0000
  H   H256      1.0  0.32197  0.74400  0.45682  1.0000
  C   C263      1.0  0.28007  0.74075  0.14861  1.0000
  C   C264      1.0  0.28791  0.74054  0.18347  1.0000
  C   C265      1.0  0.31101  0.75288  0.19374  1.0000
  C   C266      1.0  0.32665  0.76511  0.16908  1.0000
  C   C267      1.0  0.31892  0.76519  0.13417  1.0000
  C   C268      1.0  0.29562  0.75313  0.12395  1.0000
  H   H257      1.0  0.27588  0.73110  0.20266  1.0000
  H   H258      1.0  0.31654  0.75301  0.22075  1.0000
  H   H259      1.0  0.33094  0.77462  0.11498  1.0000
  H   H260      1.0  0.28985  0.75316  0.09699  1.0000
  C   C269      1.0  0.16185  0.82253  0.06931  1.0000
  C   C270      1.0  0.14852  0.84585  0.06493  1.0000
  C   C271      1.0  0.12768  0.85275  0.08716  1.0000
  C   C272      1.0  0.12006  0.83630  0.11388  1.0000
  C   C273      1.0  0.13397  0.81346  0.11897  1.0000
  C   C274      1.0  0.15479  0.80664  0.09687  1.0000
  H   H261      1.0  0.15397  0.85837  0.04383  1.0000
  H   H262      1.0  0.11713  0.87046  0.08308  1.0000
  H   H263      1.0  0.12839  0.80078  0.13982  1.0000
  H   H264      1.0  0.16516  0.78899  0.10107  1.0000
  C   C275      1.0  0.07786  0.99496  0.14818  1.0000
  C   C276      1.0  0.43864  0.69753  0.26061  1.0000
  H   H265      1.0  0.52051  0.99393  0.25298  1.0000
  C   C277      1.0  0.06460  0.97861  0.25018  1.0000
  H   H266      1.0  0.36286  0.72731  0.13719  1.0000
  C   C278      1.0  0.23379  0.69507  0.49452  1.0000
  C   C279      1.0  0.32940  0.86529  0.32435  1.0000
  H   H267      1.0  0.16364  0.69746  0.10485  1.0000
  H   H268      1.0  0.31368  0.84169  0.36474  1.0000
  H   H269      1.0  0.08741  0.78425  0.08593  1.0000
  C   C280      1.0  0.11264  0.73932  0.08121  1.0000
  C   C281      1.0  0.38375  0.72265  0.14257  1.0000
  N   N22       1.0  0.11369  0.76067  0.05673  1.0000
  H   H270      1.0  0.17727  0.73623  0.41945  1.0000
  C   C282      1.0  0.49152  0.81963  0.24607  1.0000
  C   C283      1.0  0.24323  0.72963  0.41058  1.0000
  H   H271      1.0  0.25935  0.73512  0.39377  1.0000
  C   C284      1.0  0.06075  0.01591  0.14764  1.0000
  C   C285      1.0  0.51591  0.82914  0.25594  1.0000
  H   H272      1.0  0.47380  0.01000  0.42520  1.0000
  C   C286      1.0  0.03150  0.01179  0.25686  1.0000
  H   H273      1.0  0.04065  0.83123  0.10082  1.0000
  H   H274      1.0  0.26816  0.71070  0.44737  1.0000
  S   S100      1.0  0.04074  0.88985  0.10134  1.0000
  C   C287      1.0  0.21765  0.73716  0.40283  1.0000
  C   C288      1.0  0.37446  0.68929  0.22732  1.0000
  H   H275      1.0  0.36089  0.80548  0.38599  1.0000
  N   N23       1.0  0.49397  0.84329  0.19275  1.0000
  H   H276      1.0  0.09582  0.97980  0.28780  1.0000
  C   C289      1.0  0.09942  0.78243  0.06279  1.0000
  H   H277      1.0  0.46157  0.81986  0.20704  1.0000
  C   C290      1.0  0.51818  0.85218  0.20186  1.0000
  C   C291      1.0  0.20279  0.71636  0.45511  1.0000
  N   N24       1.0  0.51505  0.01379  0.42170  1.0000
  S   S101      1.0  0.15620  0.68956  0.03082  1.0000
  H   H278      1.0  0.45731  0.71165  0.17789  1.0000
  H   H279      1.0  0.48048  0.80748  0.26357  1.0000
  H   H280      1.0  0.48837  0.87036  0.15211  1.0000
  N   N25       1.0  0.38557  0.70319  0.16977  1.0000
  H   H281      1.0  0.21374  0.74839  0.37974  1.0000
  H   H282      1.0  0.25381  0.79145  0.44424  1.0000
  C   C292      1.0  0.35738  0.82515  0.39584  1.0000
  H   H283      1.0  0.13099  0.73865  0.09671  1.0000
  H   H284      1.0  0.49417  0.99589  0.00611  1.0000
  H   H285      1.0  0.10817  0.97470  0.12030  1.0000
  C   C293      1.0  0.33144  0.84937  0.35337  1.0000
  H   H286      1.0  0.09579  0.74095  0.09938  1.0000
  H   H287      1.0  0.05293  0.99028  0.39058  1.0000
  C   C294      1.0  0.48083  0.82685  0.21410  1.0000
  H   H288      1.0  0.07733  0.98145  0.16947  1.0000
  C   C295      1.0  0.05106  0.98064  0.04626  1.0000
  Fe  Fe55      1.0  0.05560  0.93015  0.10441  1.0000
  H   H289      1.0  0.51816  0.00537  0.09908  1.0000
  C   C296      1.0  0.24809  0.71575  0.44091  1.0000
  Fe  Fe56      1.0  0.51030  0.92897  0.18552  1.0000
  H   H290      1.0  0.39362  0.74041  0.15135  1.0000
  H   H291      1.0  0.39436  0.87486  0.31033  1.0000
  C   C297      1.0  0.35213  0.87472  0.30893  1.0000
  H   H292      1.0  0.39698  0.84593  0.36081  1.0000
  H   H293      1.0  0.37362  0.83053  0.41353  1.0000
  C   C298      1.0  0.37787  0.85174  0.35123  1.0000
  S   S102      1.0  0.06649  0.95144  0.05567  1.0000
  N   N26       1.0  0.35547  0.84288  0.36652  1.0000
  H   H294      1.0  0.35090  0.88676  0.28608  1.0000
  C   C299      1.0  0.45584  0.70108  0.20192  1.0000
  C   C300      1.0  0.13014  0.75912  0.02873  1.0000
  C   C301      1.0  0.04148  0.99037  0.23892  1.0000
  H   H295      1.0  0.48937  0.83724  0.13867  1.0000
  N   N27       1.0  0.22804  0.70961  0.46294  1.0000
  C   C302      1.0  0.09539  0.99133  0.12080  1.0000
  C   C303      1.0  0.05513  0.94233  0.33087  1.0000
  H   H296      1.0  0.14186  0.74210  0.02435  1.0000
  H   H297      1.0  0.06765  0.92657  0.32289  1.0000
  H   H298      1.0  0.18683  0.71131  0.47242  1.0000
  H   H299      1.0  0.11060  0.72095  0.06696  1.0000
  C   C304      1.0  0.37242  0.70701  0.20031  1.0000
  C   C305      1.0  0.10121  0.80325  0.04022  1.0000
  H   H300      1.0  0.08076  0.95343  0.37294  1.0000
  S   S103      1.0  0.04680  0.88955  0.18632  1.0000
  H   H301      1.0  0.46084  0.85061  0.16037  1.0000
  H   H302      1.0  0.09078  0.82087  0.04591  1.0000
  C   C306      1.0  0.04704  0.97813  0.36907  1.0000
  H   H303      1.0  0.04122  0.92015  0.27333  1.0000
  S   S104      1.0  0.52356  0.96947  0.17522  1.0000
  C   C307      1.0  0.52555  0.00832  0.38986  1.0000
  H   H304      1.0  0.30461  0.76467  0.01513  1.0000
  C   C308      1.0  0.02949  0.98928  0.06541  1.0000
  H   H305      1.0  0.10914  0.00581  0.07182  1.0000
  N   N28       1.0  0.03262  0.94773  0.31297  1.0000
  H   H306      1.0  0.03102  0.98269  0.21687  1.0000
  H   H307      1.0  0.52147  0.68617  0.22442  1.0000
  C   C309      1.0  0.09603  0.00888  0.09365  1.0000
  H   H308      1.0  0.51953  0.01083  0.47651  1.0000
  C   C310      1.0  0.11810  0.80188  0.01176  1.0000
  H   H309      1.0  0.51446  0.01216  0.36648  1.0000
  C   C311      1.0  0.52743  0.01167  0.07534  1.0000
  H   H310      1.0  0.36478  0.69279  0.25199  1.0000
  S   S105      1.0  0.07979  0.01293  0.46222  1.0000
  H   H311      1.0  0.07806  0.98932  0.00491  1.0000
  C   C312      1.0  0.52837  0.00758  0.45130  1.0000
  C   C313      1.0  0.14892  0.68294  0.10119  1.0000
  H   H312      1.0  0.28355  0.80674  0.00413  1.0000
  Fe  Fe57      1.0  0.22340  0.76924  0.60392  1.0000
  S   S106      1.0  0.23487  0.79919  0.56537  1.0000
  S   S107      1.0  0.23623  0.77105  0.65967  1.0000
  Fe  Fe58      1.0  0.18901  0.74088  0.55262  1.0000
  C   C314      1.0  0.06908  0.00904  0.50526  1.0000
  S   S108      1.0  0.16217  0.70784  0.54045  1.0000
  Fe  Fe59      1.0  0.04644  0.96464  0.64860  1.0000
  H   H313      1.0  0.51310  0.70253  0.80089  1.0000
  Fe  Fe60      1.0  0.19199  0.79881  0.55144  1.0000
  S   S109      1.0  0.16873  0.83536  0.54317  1.0000
  S   S110      1.0  0.23109  0.73652  0.56789  1.0000
  S   S111      1.0  0.18031  0.77085  0.59248  1.0000
  Fe  Fe61      1.0  0.52622  0.92055  0.68734  1.0000
  S   S112      1.0  0.08079  0.95689  0.68381  1.0000
  Fe  Fe62      1.0  0.05014  0.95206  0.72529  1.0000
  H   H314      1.0  0.08978  0.75150  0.55870  1.0000
  Fe  Fe63      1.0  0.07382  0.91565  0.66974  1.0000
  S   S113      1.0  0.10347  0.88306  0.66821  1.0000
  C   C315      1.0  0.52312  0.01105  0.79643  1.0000
  H   H315      1.0  0.21569  0.83456  0.72955  1.0000
  H   H316      1.0  0.05097  0.86383  0.66608  1.0000
  S   S114      1.0  0.04576  0.91015  0.71407  1.0000
  S   S115      1.0  0.48479  0.90520  0.68713  1.0000
  H   H317      1.0  0.06671  0.86283  0.60552  1.0000
  Fe  Fe64      1.0  0.40072  0.73632  0.78114  1.0000
  S   S116      1.0  0.41612  0.76264  0.74043  1.0000
  S   S117      1.0  0.41598  0.69581  0.78719  1.0000
  Fe  Fe65      1.0  0.36214  0.77613  0.81040  1.0000
  S   S118      1.0  0.37484  0.80576  0.77131  1.0000
  S   S119      1.0  0.32964  0.78843  0.84782  1.0000
  Fe  Fe66      1.0  0.37388  0.77348  0.73300  1.0000
  S   S120      1.0  0.35921  0.77570  0.67806  1.0000
  Fe  Fe67      1.0  0.41594  0.79252  0.78218  1.0000
  S   S121      1.0  0.45189  0.81699  0.79125  1.0000
  S   S122      1.0  0.35819  0.74487  0.77077  1.0000
  S   S123      1.0  0.40354  0.76526  0.82432  1.0000
  S   S124      1.0  0.27413  0.72495  0.96733  1.0000
  C   C316      1.0  0.50612  0.70206  0.74578  1.0000
  H   H318      1.0  0.38169  0.70189  0.66978  1.0000
  H   H319      1.0  0.48634  0.70961  0.74800  1.0000
  H   H320      1.0  0.16947  0.89410  0.66198  1.0000
  H   H321      1.0  0.45154  0.68797  0.66870  1.0000
  C   C317      1.0  0.47478  0.88214  0.71786  1.0000
  C   C318      1.0  0.45131  0.86878  0.71247  1.0000
  C   C319      1.0  0.44368  0.84912  0.73520  1.0000
  C   C320      1.0  0.45932  0.84298  0.76382  1.0000
  C   C321      1.0  0.48236  0.85687  0.76979  1.0000
  C   C322      1.0  0.49019  0.87621  0.74676  1.0000
  H   H322      1.0  0.43914  0.87340  0.69035  1.0000
  H   H323      1.0  0.42582  0.83863  0.73045  1.0000
  H   H324      1.0  0.49447  0.85231  0.79197  1.0000
  H   H325      1.0  0.50808  0.88655  0.75151  1.0000
  C   C323      1.0  0.28689  0.74162  0.93108  1.0000
  C   C324      1.0  0.27779  0.76584  0.92167  1.0000
  C   C325      1.0  0.29035  0.77943  0.89489  1.0000
  C   C326      1.0  0.31203  0.76895  0.87723  1.0000
  C   C327      1.0  0.32044  0.74430  0.88566  1.0000
  C   C328      1.0  0.30797  0.73077  0.91256  1.0000
  H   H326      1.0  0.26150  0.77435  0.93557  1.0000
  H   H327      1.0  0.28364  0.79846  0.88840  1.0000
  H   H328      1.0  0.33706  0.73600  0.87223  1.0000
  H   H329      1.0  0.31504  0.71197  0.91957  1.0000
  C   C329      1.0  0.27037  0.77301  0.66470  1.0000
  C   C330      1.0  0.28117  0.77484  0.69806  1.0000
  C   C331      1.0  0.30847  0.77621  0.70243  1.0000
  C   C332      1.0  0.32497  0.77578  0.67340  1.0000
  C   C333      1.0  0.31412  0.77415  0.64008  1.0000
  C   C334      1.0  0.28687  0.77273  0.63571  1.0000
  H   H330      1.0  0.26847  0.77508  0.72056  1.0000
  H   H331      1.0  0.31673  0.77753  0.72822  1.0000
  H   H332      1.0  0.32684  0.77378  0.61757  1.0000
  H   H333      1.0  0.27870  0.77128  0.60989  1.0000
  C   C335      1.0  0.14855  0.84746  0.57689  1.0000
  C   C336      1.0  0.13488  0.87057  0.57216  1.0000
  C   C337      1.0  0.12029  0.88155  0.59955  1.0000
  C   C338      1.0  0.11932  0.86940  0.63183  1.0000
  C   C339      1.0  0.13241  0.84602  0.63623  1.0000
  C   C340      1.0  0.14696  0.83512  0.60897  1.0000
  H   H334      1.0  0.13606  0.88030  0.54744  1.0000
  H   H335      1.0  0.11037  0.89965  0.59592  1.0000
  H   H336      1.0  0.13183  0.83656  0.66117  1.0000
  H   H337      1.0  0.15758  0.81759  0.61322  1.0000
  C   C341      1.0  0.43658  0.69229  0.72082  1.0000
  C   C342      1.0  0.36697  0.77750  0.93024  1.0000
  H   H338      1.0  0.17483  0.70609  0.61422  1.0000
  H   H339      1.0  0.30128  0.83493  0.95780  1.0000
  H   H340      1.0  0.23864  0.82007  0.70028  1.0000
  C   C343      1.0  0.50142  0.99824  0.97982  1.0000
  Fe  Fe68      1.0  0.23942  0.76658  0.52750  1.0000
  S   S125      1.0  0.04200  0.92383  0.63075  1.0000
  C   C344      1.0  0.51647  0.69556  0.71325  1.0000
  H   H341      1.0  0.11488  0.72426  0.63277  1.0000
  H   H342      1.0  0.07039  0.96585  0.57168  1.0000
  C   C345      1.0  0.49796  0.82183  0.69550  1.0000
  C   C346      1.0  0.50888  0.81136  0.72562  1.0000
  C   C347      1.0  0.52074  0.98146  0.96750  1.0000
  C   C348      1.0  0.07462  0.98640  0.52328  1.0000
  H   H343      1.0  0.50321  0.83576  0.62167  1.0000
  C   C349      1.0  0.04653  0.69790  0.61022  1.0000
  H   H344      1.0  0.20554  0.80840  0.70188  1.0000
  H   H345      1.0  0.38512  0.78284  0.94426  1.0000
  H   H346      1.0  0.33963  0.82076  0.92319  1.0000
  H   H347      1.0  0.23302  0.82483  0.63733  1.0000
  C   C350      1.0  0.10052  0.73411  0.56710  1.0000
  C   C351      1.0  0.06647  0.98347  0.55796  1.0000
  C   C352      1.0  0.03532  0.01347  0.78047  1.0000
  C   C353      1.0  0.04939  0.85213  0.61275  1.0000
  H   H348      1.0  0.30569  0.69840  0.74919  1.0000
  C   C354      1.0  0.32215  0.69831  0.73134  1.0000
  H   H349      1.0  0.04237  0.83775  0.56117  1.0000
  H   H350      1.0  0.08505  0.97104  0.51037  1.0000
  C   C355      1.0  0.05101  0.99582  0.79813  1.0000
  C   C356      1.0  0.03583  0.83795  0.58798  1.0000
  H   H351      1.0  0.35525  0.68873  0.79330  1.0000
  C   C357      1.0  0.31271  0.77749  0.99581  1.0000
  H   H352      1.0  0.30162  0.72099  0.69299  1.0000
  H   H353      1.0  0.18366  0.86472  0.70851  1.0000
  N   N29       1.0  0.08551  0.72044  0.59367  1.0000
  H   H354      1.0  0.50252  0.01167  0.78979  1.0000
  C   C358      1.0  0.50030  0.84900  0.64385  1.0000
  H   H355      1.0  0.33989  0.72309  0.65328  1.0000
  H   H356      1.0  0.36722  0.78658  0.90412  1.0000
  H   H357      1.0  0.36687  0.75655  0.92564  1.0000
  C   C359      1.0  0.05338  0.00349  0.57478  1.0000
  H   H358      1.0  0.12015  0.74003  0.57669  1.0000
  C   C360      1.0  0.31074  0.81683  0.96347  1.0000
  S   S126      1.0  0.05688  0.96468  0.78146  1.0000
  C   C361      1.0  0.52114  0.69802  0.77550  1.0000
  H   H359      1.0  0.50440  0.69799  0.69031  1.0000
  H   H360      1.0  0.10399  0.72148  0.54430  1.0000
  H   H361      1.0  0.47778  0.81742  0.68909  1.0000
  C   C362      1.0  0.08139  0.70391  0.65157  1.0000
  C   C363      1.0  0.05671  0.69431  0.64345  1.0000
  C   C364      1.0  0.36469  0.70049  0.68660  1.0000
  H   H362      1.0  0.47899  0.85262  0.64769  1.0000
  C   C365      1.0  0.31973  0.71122  0.69971  1.0000
  C   C366      1.0  0.34121  0.71236  0.67733  1.0000
  H   H363      1.0  0.42558  0.70942  0.71490  1.0000
  C   C367      1.0  0.33440  0.77000  0.97593  1.0000
  C   C368      1.0  0.06032  0.00213  0.83145  1.0000
  H   H364      1.0  0.21880  0.85367  0.58983  1.0000
  H   H365      1.0  0.08983  0.70042  0.67699  1.0000
  H   H366      1.0  0.50898  0.86786  0.63746  1.0000
  N   N30       1.0  0.20995  0.84372  0.67590  1.0000
  C   C369      1.0  0.21950  0.84037  0.64298  1.0000
  C   C370      1.0  0.19210  0.86266  0.68279  1.0000
  C   C371      1.0  0.21176  0.85671  0.61614  1.0000
  C   C372      1.0  0.18410  0.87947  0.65663  1.0000
  C   C373      1.0  0.19411  0.87648  0.62314  1.0000
  C   C374      1.0  0.21775  0.82590  0.70335  1.0000
  H   H367      1.0  0.18738  0.88879  0.60230  1.0000
  H   H368      1.0  0.07243  0.98858  0.84535  1.0000
  C   C375      1.0  0.09554  0.71719  0.62631  1.0000
  S   S127      1.0  0.04183  0.00084  0.61752  1.0000
  H   H369      1.0  0.25108  0.70332  0.50802  1.0000
  S   S128      1.0  0.19948  0.74625  0.99631  1.0000
  N   N31       1.0  0.51209  0.83830  0.67535  1.0000
  H   H370      1.0  0.04561  0.68379  0.66271  1.0000
  H   H371      1.0  0.49710  0.79932  0.74240  1.0000
  H   H372      1.0  0.14655  0.77879  0.98459  1.0000
  C   C376      1.0  0.30080  0.80104  0.98946  1.0000
  C   C377      1.0  0.33248  0.80874  0.94406  1.0000
  N   N32       1.0  0.34386  0.78548  0.95025  1.0000
  C   C378      1.0  0.06135  0.71097  0.58543  1.0000
  H   H373      1.0  0.34301  0.75134  0.98041  1.0000
  H   H374      1.0  0.52171  0.99575  0.59603  1.0000
  H   H375      1.0  0.12083  0.81838  0.99517  1.0000
  C   C379      1.0  0.15925  0.69265  0.60910  1.0000
  H   H376      1.0  0.05348  0.71332  0.55949  1.0000
  C   C380      1.0  0.04030  0.85275  0.64700  1.0000
  S   S129      1.0  0.19747  0.76883  0.50980  1.0000
  C   C381      1.0  0.52092  0.00426  0.91317  1.0000
  N   N33       1.0  0.34519  0.68647  0.74007  1.0000
  C   C382      1.0  0.14987  0.68952  0.57525  1.0000
  H   H377      1.0  0.21712  0.69565  0.51319  1.0000
  H   H378      1.0  0.52828  0.00678  0.88699  1.0000
  C   C383      1.0  0.36629  0.68746  0.71819  1.0000
  H   H379      1.0  0.52830  0.96642  0.98415  1.0000
  C   C384      1.0  0.65307  0.34012  0.34082  1.0000
  S   S130      1.0  0.89353  0.27959  0.08687  1.0000
  H   H380      1.0  0.74385  0.19377  0.26141  1.0000
  H   H381      1.0  0.67742  0.20608  0.23283  1.0000
  S   S131      1.0  0.84843  0.25836  0.03302  1.0000
  C   C385      1.0  0.69318  0.34562  0.44970  1.0000
  Fe  Fe69      1.0  0.85106  0.28797  0.07530  1.0000
  S   S132      1.0  0.81733  0.29787  0.11238  1.0000
  C   C386      1.0  0.95626  0.32074  0.46128  1.0000
  H   H382      1.0  0.54488  0.07314  0.14041  1.0000
  S   S133      1.0  0.86102  0.31983  0.03810  1.0000
  H   H383      1.0  0.83590  0.30839  0.20590  1.0000
  C   C387      1.0  0.57795  0.01912  0.15838  1.0000
  S   S134      1.0  0.97564  0.09329  0.44854  1.0000
  C   C388      1.0  0.89341  0.31936  0.16475  1.0000
  Fe  Fe70      1.0  0.68971  0.23387  0.31555  1.0000
  S   S135      1.0  0.69886  0.26214  0.27332  1.0000
  S   S136      1.0  0.65898  0.20422  0.30247  1.0000
  Fe  Fe71      1.0  0.72749  0.25926  0.36597  1.0000
  S   S137      1.0  0.73966  0.28919  0.32757  1.0000
  S   S138      1.0  0.74051  0.26196  0.42189  1.0000
  Fe  Fe72      1.0  0.69649  0.29158  0.31588  1.0000
  S   S139      1.0  0.67534  0.32933  0.30869  1.0000
  Fe  Fe73      1.0  0.74107  0.25712  0.28856  1.0000
  S   S140      1.0  0.77510  0.24676  0.25225  1.0000
  S   S141      1.0  0.68426  0.26370  0.35662  1.0000
  S   S142      1.0  0.73200  0.22668  0.32838  1.0000
  Fe  Fe74      1.0  0.57159  0.11385  0.41427  1.0000
  H   H384      1.0  0.56854  0.06813  0.08470  1.0000
  S   S143      1.0  0.61336  0.12849  0.41623  1.0000
  C   C389      1.0  0.58851  0.03378  0.10072  1.0000
  H   H385      1.0  0.56440  0.05473  0.33298  1.0000
  H   H386      1.0  0.58908  0.16895  0.46254  1.0000
  H   H387      1.0  0.86707  0.31145  0.22728  1.0000
  S   S144      1.0  0.55883  0.07246  0.41608  1.0000
  S   S145      1.0  0.54658  0.12527  0.45995  1.0000
  C   C390      1.0  0.64697  0.18283  0.33410  1.0000
  C   C391      1.0  0.62417  0.16883  0.32701  1.0000
  C   C392      1.0  0.61359  0.15219  0.35197  1.0000
  C   C393      1.0  0.62614  0.14891  0.38391  1.0000
  C   C394      1.0  0.64924  0.16254  0.39073  1.0000
  C   C395      1.0  0.65946  0.17969  0.36612  1.0000
  H   H388      1.0  0.61446  0.17107  0.30224  1.0000
  H   H389      1.0  0.59594  0.14165  0.34629  1.0000
  H   H390      1.0  0.65918  0.15995  0.41528  1.0000
  H   H391      1.0  0.67713  0.19025  0.37176  1.0000
  C   C396      1.0  0.99233  0.15804  0.39905  1.0000
  C   C397      1.0  0.65148  0.32822  0.37323  1.0000
  H   H392      1.0  0.70990  0.18809  0.26971  1.0000
  H   H393      1.0  0.66285  0.31125  0.37835  1.0000
  H   H394      1.0  0.96831  0.19095  0.44199  1.0000
  C   C398      1.0  0.90362  0.33372  0.13730  1.0000
  C   C399      1.0  0.59821  0.18715  0.45402  1.0000
  H   H395      1.0  0.63579  0.33022  0.42520  1.0000
  C   C400      1.0  0.00046  0.20369  0.47320  1.0000
  C   C401      1.0  0.69282  0.21332  0.21612  1.0000
  H   H396      1.0  0.01339  0.02060  0.24835  1.0000
  H   H397      1.0  0.00551  0.15665  0.37612  1.0000
  S   S146      1.0  0.01567  0.05938  0.02539  1.0000
  C   C402      1.0  0.55135  0.02847  0.01377  1.0000
  C   C403      1.0  0.94113  0.30984  0.48785  1.0000
  Fe  Fe75      1.0  0.53154  0.08497  0.45885  1.0000
  H   H398      1.0  0.98830  0.13848  0.40869  1.0000
  H   H399      1.0  0.55103  0.17749  0.42741  1.0000
  C   C404      1.0  0.85744  0.30604  0.20252  1.0000
  C   C405      1.0  0.80545  0.28277  0.15057  1.0000
  C   C406      1.0  0.78441  0.29411  0.16869  1.0000
  C   C407      1.0  0.77486  0.28344  0.19984  1.0000
  C   C408      1.0  0.78635  0.26129  0.21331  1.0000
  C   C409      1.0  0.80728  0.24987  0.19506  1.0000
  C   C410      1.0  0.81676  0.26048  0.16385  1.0000
  H   H400      1.0  0.77547  0.31135  0.15866  1.0000
  H   H401      1.0  0.75871  0.29241  0.21349  1.0000
  H   H402      1.0  0.81628  0.23268  0.20520  1.0000
  H   H403      1.0  0.83292  0.25149  0.15022  1.0000
  C   C411      1.0  0.82342  0.23414  0.44636  1.0000
  C   C412      1.0  0.80944  0.24864  0.47073  1.0000
  C   C413      1.0  0.78422  0.25774  0.46267  1.0000
  C   C414      1.0  0.77301  0.25254  0.43019  1.0000
  C   C415      1.0  0.78731  0.23873  0.40549  1.0000
  C   C416      1.0  0.81238  0.22942  0.41367  1.0000
  C   C417      1.0  0.56342  0.18849  0.41020  1.0000
  H   H404      1.0  0.77321  0.26847  0.48182  1.0000
  H   H405      1.0  0.77884  0.23470  0.38035  1.0000
  H   H406      1.0  0.82313  0.21819  0.39476  1.0000
  H   H407      1.0  0.02278  0.33624  0.48463  1.0000
  C   C418      1.0  0.57172  0.05457  0.10561  1.0000
  H   H408      1.0  0.80892  0.17302  0.45431  1.0000
  C   C419      1.0  0.97193  0.12035  0.47529  1.0000
  C   C420      1.0  0.68632  0.23099  0.19027  1.0000
  C   C421      1.0  0.77274  0.19161  0.46892  1.0000
  H   H409      1.0  0.70142  0.25490  0.14938  1.0000
  H   H410      1.0  0.76411  0.19004  0.44327  1.0000
  C   C422      1.0  0.55368  0.19566  0.37771  1.0000
  H   H411      1.0  0.86110  0.28546  0.19720  1.0000
  C   C423      1.0  0.79781  0.18193  0.47515  1.0000
  H   H412      1.0  0.95702  0.31168  0.43604  1.0000
  H   H413      1.0  0.61964  0.18328  0.45290  1.0000
  C   C424      1.0  0.55481  0.04159  0.31545  1.0000
  H   H414      1.0  0.93418  0.16354  0.03765  1.0000
  N   N34       1.0  0.71831  0.20598  0.22104  1.0000
  C   C425      1.0  0.73759  0.21473  0.19948  1.0000
  C   C426      1.0  0.73185  0.23248  0.17346  1.0000
  H   H415      1.0  0.02248  0.04758  0.12569  1.0000
  H   H416      1.0  0.75779  0.20873  0.20317  1.0000
  H   H417      1.0  0.01663  0.32394  0.03396  1.0000
  C   C427      1.0  0.70606  0.24079  0.16905  1.0000
  H   H418      1.0  0.74747  0.24015  0.15744  1.0000
  H   H419      1.0  0.56238  0.21504  0.32976  1.0000
  N   N35       1.0  0.58829  0.19495  0.41994  1.0000
  C   C428      1.0  0.60361  0.20949  0.39859  1.0000
  N   N36       1.0  0.86758  0.32158  0.17390  1.0000
  C   C429      1.0  0.59452  0.21700  0.36589  1.0000
  S   S147      1.0  0.02303  0.04294  0.40957  1.0000
  C   C430      1.0  0.56946  0.20981  0.35533  1.0000
  H   H420      1.0  0.81777  0.25227  0.49602  1.0000
  H   H421      1.0  0.62332  0.21469  0.40629  1.0000
  H   H422      1.0  0.00161  0.01987  0.07298  1.0000
  H   H423      1.0  0.83079  0.33947  0.16313  1.0000
  C   C431      1.0  0.94301  0.17647  0.01919  1.0000
  H   H424      1.0  0.97351  0.16656  0.39017  1.0000
  H   H425      1.0  0.53408  0.19000  0.36996  1.0000
  H   H426      1.0  0.56176  0.04249  0.21805  1.0000
  H   H427      1.0  0.90618  0.30613  0.17834  1.0000
  C   C432      1.0  0.93389  0.20177  0.01697  1.0000
  C   C433      1.0  0.56972  0.02408  0.29596  1.0000
  N   N37       1.0  0.00438  0.17327  0.42666  1.0000
  C   C434      1.0  0.98927  0.18942  0.44635  1.0000
  C   C435      1.0  0.54761  0.04238  0.19611  1.0000
  H   H428      1.0  0.01191  0.12059  0.49313  1.0000
  C   C436      1.0  0.71016  0.32643  0.43813  1.0000
  C   C437      1.0  0.01253  0.32968  0.00748  1.0000
  H   H429      1.0  0.93014  0.29268  0.48279  1.0000
  H   H430      1.0  0.74036  0.21302  0.49018  1.0000
  C   C438      1.0  0.97020  0.34337  0.46706  1.0000
  H   H431      1.0  0.98826  0.21605  0.48923  1.0000
  H   H432      1.0  0.72703  0.16849  0.23831  1.0000
  S   S148      1.0  0.93607  0.33745  0.05435  1.0000
  H   H433      1.0  0.60719  0.22764  0.34850  1.0000
  H   H434      1.0  0.59408  0.20222  0.47357  1.0000
  H   H435      1.0  0.71475  0.31016  0.45453  1.0000
  C   C439      1.0  0.72507  0.18811  0.24891  1.0000
  C   C440      1.0  0.94732  0.13224  0.47780  1.0000
  H   H436      1.0  0.66620  0.23737  0.18724  1.0000
  Fe  Fe76      1.0  0.90312  0.30905  0.04609  1.0000
  N   N38       1.0  0.56166  0.03965  0.16309  1.0000
  Fe  Fe77      1.0  0.89168  0.25229  0.04162  1.0000
  H   H437      1.0  0.93101  0.12501  0.46283  1.0000
  C   C441      1.0  0.55824  0.05717  0.13710  1.0000
  S   S149      1.0  0.54213  0.12592  0.37415  1.0000
  Fe  Fe78      1.0  0.01592  0.08281  0.42883  1.0000
  S   S150      1.0  0.90761  0.21187  0.04382  1.0000
  C   C442      1.0  0.63623  0.33911  0.39988  1.0000
  S   S151      1.0  0.85338  0.21940  0.45697  1.0000
  C   C443      1.0  0.75943  0.20456  0.49530  1.0000
  C   C444      1.0  0.72110  0.32806  0.40505  1.0000
  H   H438      1.0  0.73436  0.31324  0.39599  1.0000
  H   H439      1.0  0.92399  0.33160  0.12956  1.0000
  H   H440      1.0  0.53597  0.06033  0.19755  1.0000
  C   C445      1.0  0.99290  0.12972  0.49475  1.0000
  C   C446      1.0  0.85143  0.33810  0.15651  1.0000
  H   H441      1.0  0.59843  0.03108  0.07604  1.0000
  H   H442      1.0  0.86292  0.18983  0.00471  1.0000
  C   C447      1.0  0.53116  0.04305  0.02845  1.0000
  H   H443      1.0  0.68423  0.34441  0.47521  1.0000
  H   H444      1.0  0.59086  0.02392  0.29834  1.0000
  H   H445      1.0  0.98181  0.04438  0.48724  1.0000
  C   C448      1.0  0.94367  0.15359  0.49946  1.0000
  H   H446      1.0  0.53401  0.02609  0.19971  1.0000
  H   H447      1.0  0.97705  0.30736  0.00478  1.0000
  H   H448      1.0  0.92470  0.16285  0.50097  1.0000
  C   C449      1.0  0.71459  0.34867  0.38365  1.0000
  C   C450      1.0  0.02711  0.20094  0.48034  1.0000
  H   H449      1.0  0.72037  0.27069  0.90758  1.0000
  S   S152      1.0  0.91527  0.23957  0.58879  1.0000
  S   S153      1.0  0.90423  0.28107  0.00209  1.0000
  C   C451      1.0  0.84559  0.31277  0.63953  1.0000
  S   S154      1.0  0.88175  0.19770  0.54488  1.0000
  S   S155      1.0  0.84602  0.29754  0.94315  1.0000
  Fe  Fe79      1.0  0.87316  0.22754  0.58555  1.0000
  S   S156      1.0  0.85218  0.21521  0.63495  1.0000
  H   H450      1.0  0.56769  0.04062  0.84815  1.0000
  C   C452      1.0  0.84048  0.29799  0.66902  1.0000
  S   S157      1.0  0.86219  0.25826  0.54745  1.0000
  C   C453      1.0  0.77656  0.32058  0.94357  1.0000
  H   H451      1.0  0.85934  0.24492  0.70757  1.0000
  S   S158      1.0  0.00038  0.17429  0.94541  1.0000
  H   H452      1.0  0.83176  0.26470  0.71767  1.0000
  Fe  Fe80      1.0  0.68602  0.22691  0.79611  1.0000
  S   S159      1.0  0.68952  0.26252  0.76384  1.0000
  S   S160      1.0  0.65121  0.20093  0.78757  1.0000
  Fe  Fe81      1.0  0.73387  0.23979  0.83827  1.0000
  S   S161      1.0  0.74140  0.27624  0.80969  1.0000
  S   S162      1.0  0.75549  0.22722  0.88642  1.0000
  Fe  Fe82      1.0  0.69796  0.28244  0.81406  1.0000
  C   C454      1.0  0.77144  0.20759  0.52770  1.0000
  Fe  Fe83      1.0  0.73275  0.25360  0.76131  1.0000
  S   S163      1.0  0.75315  0.26431  0.71044  1.0000
  S   S164      1.0  0.69101  0.24772  0.84649  1.0000
  S   S165      1.0  0.72858  0.21616  0.78980  1.0000
  Fe  Fe84      1.0  0.57326  0.10967  0.90714  1.0000
  H   H453      1.0  0.78896  0.31961  0.96643  1.0000
  S   S166      1.0  0.61525  0.12355  0.90530  1.0000
  C   C455      1.0  0.53455  0.03926  0.53179  1.0000
  H   H454      1.0  0.83126  0.32655  0.63039  1.0000
  S   S167      1.0  0.68461  0.32277  0.82621  1.0000
  C   C456      1.0  0.97699  0.06230  0.53723  1.0000
  S   S168      1.0  0.55939  0.06946  0.91782  1.0000
  S   S169      1.0  0.54805  0.12684  0.94894  1.0000
  C   C457      1.0  0.64232  0.17865  0.81985  1.0000
  C   C458      1.0  0.61931  0.16441  0.81554  1.0000
  C   C459      1.0  0.61087  0.14746  0.84148  1.0000
  C   C460      1.0  0.62549  0.14443  0.87189  1.0000
  C   C461      1.0  0.64866  0.15849  0.87607  1.0000
  C   C462      1.0  0.65699  0.17566  0.85025  1.0000
  H   H455      1.0  0.60791  0.16660  0.79207  1.0000
  H   H456      1.0  0.59328  0.13650  0.83764  1.0000
  H   H457      1.0  0.66018  0.15614  0.89942  1.0000
  H   H458      1.0  0.67479  0.18649  0.85380  1.0000
  C   C463      1.0  0.53642  0.32751  0.87236  1.0000
  H   H459      1.0  0.58067  0.04657  0.76053  1.0000
  S   S170      1.0  0.92045  0.30835  0.55419  1.0000
  H   H460      1.0  0.57247  0.04500  0.50871  1.0000
  C   C464      1.0  0.88747  0.29171  0.63385  1.0000
  H   H461      1.0  0.97312  0.08107  0.52644  1.0000
  N   N39       1.0  0.98224  0.03498  0.58686  1.0000
  C   C465      1.0  0.55460  0.02636  0.67075  1.0000
  H   H462      1.0  0.96664  0.32122  0.94469  1.0000
  H   H463      1.0  0.82343  0.18721  0.57316  1.0000
  H   H464      1.0  0.80772  0.18971  0.92011  1.0000
  H   H465      1.0  0.61365  0.30241  0.90848  1.0000
  C   C466      1.0  0.53300  0.06589  0.74665  1.0000
  C   C467      1.0  0.98178  0.04164  0.51520  1.0000
  C   C468      1.0  0.83349  0.18752  0.96450  1.0000
  H   H466      1.0  0.00838  0.03259  0.95677  1.0000
  H   H467      1.0  0.73370  0.32150  0.86115  1.0000
  C   C469      1.0  0.56135  0.03440  0.52775  1.0000
  H   H468      1.0  0.82929  0.17894  0.51173  1.0000
  C   C470      1.0  0.82288  0.22741  0.65335  1.0000
  C   C471      1.0  0.81345  0.21656  0.68429  1.0000
  C   C472      1.0  0.79167  0.22716  0.70172  1.0000
  C   C473      1.0  0.77902  0.24866  0.68817  1.0000
  C   C474      1.0  0.78792  0.25897  0.65659  1.0000
  C   C475      1.0  0.80976  0.24843  0.63921  1.0000
  H   H469      1.0  0.82341  0.20019  0.69531  1.0000
  H   H470      1.0  0.78491  0.21897  0.72588  1.0000
  H   H471      1.0  0.77812  0.27554  0.64587  1.0000
  H   H472      1.0  0.81683  0.25699  0.61547  1.0000
  C   C476      1.0  0.82057  0.27818  0.92782  1.0000
  C   C477      1.0  0.81342  0.27954  0.89276  1.0000
  C   C478      1.0  0.79301  0.26438  0.87990  1.0000
  C   C479      1.0  0.77982  0.24770  0.90207  1.0000
  C   C480      1.0  0.78679  0.24654  0.93719  1.0000
  C   C481      1.0  0.80708  0.26181  0.95009  1.0000
  H   H473      1.0  0.82373  0.29230  0.87546  1.0000
  H   H474      1.0  0.78794  0.26513  0.85268  1.0000
  H   H475      1.0  0.77656  0.23366  0.95443  1.0000
  H   H476      1.0  0.81213  0.26093  0.97724  1.0000
  Fe  Fe85      1.0  0.92298  0.21229  0.54501  1.0000
  H   H477      1.0  0.55799  0.21565  0.80096  1.0000
  Fe  Fe86      1.0  0.87392  0.22934  0.50690  1.0000
  C   C482      1.0  0.97484  0.18423  0.97343  1.0000
  C   C483      1.0  0.57324  0.04113  0.73523  1.0000
  H   H478      1.0  0.90608  0.28938  0.62055  1.0000
  H   H479      1.0  0.97033  0.14818  0.99944  1.0000
  H   H480      1.0  0.97451  0.22239  0.95269  1.0000
  H   H481      1.0  0.65076  0.29099  0.86936  1.0000
  C   C484      1.0  0.00745  0.01974  0.93464  1.0000
  N   N40       1.0  0.54911  0.04934  0.72437  1.0000
  H   H482      1.0  0.70299  0.29323  0.93512  1.0000
  N   N41       1.0  0.73832  0.30684  0.91249  1.0000
  H   H483      1.0  0.74827  0.29411  0.96337  1.0000
  C   C485      1.0  0.98361  0.03199  0.62466  1.0000
  H   H484      1.0  0.97416  0.07493  0.59014  1.0000
  C   C486      1.0  0.57099  0.21511  0.82319  1.0000
  H   H485      1.0  0.56970  0.16273  0.89884  1.0000
  H   H486      1.0  0.00212  0.04046  0.63451  1.0000
  C   C487      1.0  0.60456  0.21215  0.87960  1.0000
  S   S171      1.0  0.54458  0.11716  0.86434  1.0000
  H   H487      1.0  0.89544  0.26241  0.67127  1.0000
  H   H488      1.0  0.98816  0.04705  0.90135  1.0000
  H   H489      1.0  0.00525  0.15764  0.53250  1.0000
  C   C488      1.0  0.86931  0.30960  0.62192  1.0000
  H   H490      1.0  0.61825  0.21045  0.90097  1.0000
  H   H491      1.0  0.81871  0.22099  0.56699  1.0000
  C   C489      1.0  0.64437  0.31063  0.87157  1.0000
  S   S172      1.0  0.96090  0.18970  0.54625  1.0000
  H   H492      1.0  0.02350  0.32256  0.54578  1.0000
  H   H493      1.0  0.98644  0.01781  0.85125  1.0000
  Fe  Fe87      1.0  0.86126  0.28951  0.99700  1.0000
  C   C490      1.0  0.61116  0.22757  0.85133  1.0000
  C   C491      1.0  0.85304  0.26511  0.71139  1.0000
  C   C492      1.0  0.78420  0.33520  0.91511  1.0000
  N   N42       1.0  0.79594  0.19781  0.53367  1.0000
  C   C493      1.0  0.61489  0.34260  0.89675  1.0000
  S   S173      1.0  0.00233  0.09593  0.93972  1.0000
  C   C494      1.0  0.96451  0.16272  0.51936  1.0000
  C   C495      1.0  0.97746  0.05865  0.57320  1.0000
  C   C496      1.0  0.71472  0.29107  0.91099  1.0000
  N   N43       1.0  0.85822  0.28006  0.68000  1.0000
  H   H494      1.0  0.82162  0.17366  0.97819  1.0000
  C   C497      1.0  0.57518  0.18187  0.90872  1.0000
  C   C498      1.0  0.53319  0.02836  0.82071  1.0000
  N   N44       1.0  0.86350  0.22367  0.92998  1.0000
  C   C499      1.0  0.84125  0.21441  0.91477  1.0000
  C   C500      1.0  0.87145  0.21472  0.96162  1.0000
  C   C501      1.0  0.82579  0.19637  0.93189  1.0000
  C   C502      1.0  0.85655  0.19662  0.97943  1.0000
  S   S174      1.0  0.91600  0.24159  0.50376  1.0000
  C   C503      1.0  0.87967  0.24242  0.91174  1.0000
  H   H495      1.0  0.83490  0.22141  0.88964  1.0000
  H   H496      1.0  0.88934  0.22167  0.97339  1.0000
  C   C504      1.0  0.99587  0.02778  0.90373  1.0000
  C   C505      1.0  0.53969  0.04212  0.69260  1.0000
  C   C506      1.0  0.57910  0.01771  0.68174  1.0000
  H   H497      1.0  0.86794  0.25347  0.89259  1.0000
  H   H498      1.0  0.88771  0.25663  0.93032  1.0000
  H   H499      1.0  0.89611  0.23261  0.89822  1.0000
  N   N45       1.0  0.58176  0.19849  0.87950  1.0000
  Fe  Fe88      1.0  0.90523  0.26805  0.54731  1.0000
  C   C507      1.0  0.74560  0.32120  0.88448  1.0000
  H   H500      1.0  0.82199  0.30056  0.68261  1.0000
  H   H501      1.0  0.62979  0.23746  0.85067  1.0000
  H   H502      1.0  0.60010  0.23961  0.80002  1.0000
  C   C508      1.0  0.62335  0.31712  0.89365  1.0000
  C   C509      1.0  0.98907  0.15061  0.51713  1.0000
  H   H503      1.0  0.93882  0.23781  0.99116  1.0000
  H   H504      1.0  0.96663  0.04140  0.63750  1.0000
  C   C510      1.0  0.80865  0.20226  0.56723  1.0000
  H   H505      1.0  0.70179  0.29671  0.88907  1.0000
  H   H506      1.0  0.56070  0.03480  0.99009  1.0000
  C   C511      1.0  0.56483  0.20011  0.85208  1.0000
  C   C512      1.0  0.65723  0.32967  0.85276  1.0000
  C   C513      1.0  0.55976  0.02729  0.82948  1.0000
  H   H507      1.0  0.79421  0.20216  0.58888  1.0000
  H   H508      1.0  0.54672  0.18928  0.85221  1.0000
  C   C514      1.0  0.75358  0.30618  0.94165  1.0000
  H   H509      1.0  0.55834  0.18990  0.92352  1.0000
  C   C515      1.0  0.98439  0.32782  0.95727  1.0000
  C   C516      1.0  0.93975  0.32147  0.52050  1.0000
  H   H510      1.0  0.86376  0.27335  0.73376  1.0000
  C   C517      1.0  0.59442  0.22875  0.82279  1.0000
  H   H511      1.0  0.01603  0.05020  0.78264  1.0000
  H   H512      1.0  0.87372  0.32088  0.59899  1.0000
  C   C518      1.0  0.88146  0.27678  0.66281  1.0000
  C   C519      1.0  0.96578  0.20953  0.97130  1.0000
  C   C520      1.0  0.98683  0.01760  0.52933  1.0000
  C   C521      1.0  0.95376  0.34411  0.52636  1.0000
  C   C522      1.0  0.99025  0.32001  0.99099  1.0000
  Fe  Fe89      1.0  0.01937  0.13496  0.94735  1.0000
  C   C523      1.0  0.80930  0.18546  0.50774  1.0000
  H   H513      1.0  0.59207  0.17886  0.92648  1.0000
  C   C524      1.0  0.00094  0.34488  0.94032  1.0000
  H   H514      1.0  0.53533  0.30343  0.82700  1.0000
  H   H515      1.0  0.55600  0.33464  0.86724  1.0000
  C   C525      1.0  0.96349  0.16772  0.99759  1.0000
  C   C526      1.0  0.94547  0.21830  0.99302  1.0000
  H   H516      1.0  0.80249  0.34568  0.91594  1.0000
  H   H517      1.0  0.76125  0.21822  0.54784  1.0000
  C   C527      1.0  0.58848  0.02505  0.71423  1.0000
  S   S175      1.0  0.02609  0.07162  0.84964  1.0000
  Fe  Fe90      1.0  0.53156  0.08747  0.95604  1.0000
  C   C528      1.0  0.76864  0.33557  0.88534  1.0000
  H   H518      1.0  0.91336  0.34799  0.98631  1.0000
  H   H519      1.0  0.77445  0.34666  0.86289  1.0000
  H   H520      1.0  0.54715  0.02056  0.64560  1.0000
  H   H521      1.0  0.54286  0.07040  0.77166  1.0000
  H   H522      1.0  0.52867  0.08419  0.73332  1.0000
  H   H523      1.0  0.60720  0.01789  0.72346  1.0000
  H   H524      1.0  0.00758  0.51610  0.40679  1.0000
  S   S176      1.0  0.02021  0.46306  0.35760  1.0000
  S   S177      1.0  0.00220  0.43161  0.44537  1.0000
  C   C529      1.0  0.68737  0.36620  0.42783  1.0000
  H   H525      1.0  0.56395  0.57642  0.29971  1.0000
  S   S178      1.0  0.97706  0.62673  0.17624  1.0000
  Fe  Fe91      1.0  0.56536  0.61088  0.17735  1.0000
  H   H526      1.0  0.56239  0.52749  0.10328  1.0000
  S   S179      1.0  0.60613  0.62790  0.17598  1.0000
  N   N46       1.0  0.69777  0.36730  0.39508  1.0000
  H   H527      1.0  0.54345  0.52555  0.40416  1.0000
  C   C530      1.0  0.98710  0.50053  0.48692  1.0000
  C   C531      1.0  0.00146  0.55913  0.04709  1.0000
  S   S180      1.0  0.55538  0.56882  0.17649  1.0000
  S   S181      1.0  0.01684  0.56657  0.19992  1.0000
  Fe  Fe92      1.0  0.57748  0.40828  0.41853  1.0000
  C   C532      1.0  0.99779  0.58462  0.03777  1.0000
  H   H528      1.0  0.54304  0.44130  0.10919  1.0000
  C   C533      1.0  0.98369  0.60088  0.05972  1.0000
  C   C534      1.0  0.54827  0.53703  0.38162  1.0000
  S   S182      1.0  0.56709  0.45756  0.01837  1.0000
  H   H529      1.0  0.99222  0.48736  0.42071  1.0000
  S   S183      1.0  0.55426  0.49854  0.46919  1.0000
  S   S184      1.0  0.58711  0.44891  0.40562  1.0000
  C   C535      1.0  0.54172  0.46356  0.15645  1.0000
  H   H530      1.0  0.96737  0.57276  0.15349  1.0000
  C   C536      1.0  0.57712  0.54710  0.33522  1.0000
  H   H531      1.0  0.61241  0.39091  0.35700  1.0000
  C   C537      1.0  0.55308  0.51874  0.08105  1.0000
  C   C538      1.0  0.69171  0.38907  0.37256  1.0000
  H   H532      1.0  0.58221  0.48894  0.07587  1.0000
  C   C539      1.0  0.55032  0.48662  0.29631  1.0000
  C   C540      1.0  0.64785  0.67947  0.23204  1.0000
  H   H533      1.0  0.55747  0.45306  0.16895  1.0000
  H   H534      1.0  0.67211  0.39729  0.37877  1.0000
  H   H535      1.0  0.70681  0.40406  0.37568  1.0000
  Fe  Fe93      1.0  0.01657  0.60668  0.17904  1.0000
  H   H536      1.0  0.84776  0.36473  0.11403  1.0000
  Fe  Fe94      1.0  0.55643  0.44472  0.36438  1.0000
  H   H537      1.0  0.61033  0.52022  0.37412  1.0000
  H   H538      1.0  0.97766  0.37400  0.04870  1.0000
  S   S185      1.0  0.53899  0.62016  0.13234  1.0000
  S   S186      1.0  0.60723  0.37725  0.43003  1.0000
  H   H539      1.0  0.60081  0.66691  0.29209  1.0000
  C   C541      1.0  0.56424  0.49686  0.06548  1.0000
  C   C542      1.0  0.60299  0.64945  0.24144  1.0000
  C   C543      1.0  0.61686  0.64780  0.21019  1.0000
  C   C544      1.0  0.52913  0.49557  0.02344  1.0000
  C   C545      1.0  0.00635  0.50236  0.42870  1.0000
  H   H540      1.0  0.58581  0.63788  0.24541  1.0000
  S   S187      1.0  0.98941  0.35594  0.43300  1.0000
  C   C546      1.0  0.61159  0.66587  0.26792  1.0000
  C   C547      1.0  0.96849  0.64931  0.14398  1.0000
  C   C548      1.0  0.86090  0.35246  0.12862  1.0000
  C   C549      1.0  0.95125  0.68187  0.09008  1.0000
  H   H541      1.0  0.55628  0.53388  0.23603  1.0000
  C   C550      1.0  0.98484  0.65422  0.11558  1.0000
  H   H542      1.0  0.67366  0.38074  0.43672  1.0000
  H   H543      1.0  0.98862  0.67359  0.06637  1.0000
  H   H544      1.0  0.00395  0.64526  0.11409  1.0000
  Fe  Fe95      1.0  0.55373  0.46014  0.44093  1.0000
  H   H545      1.0  0.01993  0.52946  0.26811  1.0000
  C   C551      1.0  0.54782  0.52277  0.25677  1.0000
  H   H546      1.0  0.02590  0.49336  0.43232  1.0000
  C   C552      1.0  0.62249  0.36200  0.39441  1.0000
  C   C553      1.0  0.55228  0.48511  0.03672  1.0000
  H   H547      1.0  0.69099  0.38301  0.34486  1.0000
  Fe  Fe96      1.0  0.01484  0.39072  0.44080  1.0000
  S   S188      1.0  0.54679  0.41966  0.45792  1.0000
  N   N47       1.0  0.99797  0.51483  0.46097  1.0000
  C   C554      1.0  0.53622  0.57003  0.34093  1.0000
  S   S189      1.0  0.54924  0.40310  0.37466  1.0000
  H   H548      1.0  0.65026  0.66153  0.18157  1.0000
  C   C555      1.0  0.63940  0.66276  0.20566  1.0000
  C   C556      1.0  0.93529  0.67762  0.11900  1.0000
  H   H549      1.0  0.00397  0.49015  0.29706  1.0000
  C   C557      1.0  0.96666  0.37459  0.02473  1.0000
  H   H550      1.0  0.00578  0.59171  0.01353  1.0000
  C   C558      1.0  0.00271  0.54027  0.46593  1.0000
  H   H551      1.0  0.96289  0.60413  0.10804  1.0000
  C   C559      1.0  0.96816  0.55723  0.13372  1.0000
  H   H552      1.0  0.57891  0.49468  0.25665  1.0000
  C   C560      1.0  0.52972  0.52898  0.06807  1.0000
  N   N48       1.0  0.97844  0.56670  0.10064  1.0000
  C   C561      1.0  0.97394  0.59147  0.09114  1.0000
  C   C562      1.0  0.99137  0.55039  0.07869  1.0000
  C   C563      1.0  0.55976  0.56587  0.32330  1.0000
  H   H553      1.0  0.99424  0.53055  0.08575  1.0000
  H   H554      1.0  0.01227  0.54622  0.03018  1.0000
  H   H555      1.0  0.98108  0.54199  0.14445  1.0000
  S   S190      1.0  0.56722  0.45954  0.31130  1.0000
  H   H556      1.0  0.63933  0.37169  0.30983  1.0000
  C   C564      1.0  0.94381  0.66122  0.14566  1.0000
  H   H557      1.0  0.58755  0.49618  0.35955  1.0000
  H   H558      1.0  0.89474  0.36096  0.09710  1.0000
  H   H559      1.0  0.54199  0.67163  0.16938  1.0000
  C   C565      1.0  0.58978  0.51348  0.37599  1.0000
  N   N49       1.0  0.57144  0.53328  0.36437  1.0000
  C   C566      1.0  0.62300  0.37328  0.36153  1.0000
  C   C567      1.0  0.56068  0.50068  0.26860  1.0000
  C   C568      1.0  0.63830  0.36238  0.33485  1.0000
  H   H560      1.0  0.59494  0.54335  0.32069  1.0000
  H   H561      1.0  0.98041  0.62068  0.05263  1.0000
  C   C569      1.0  0.97611  0.67025  0.08858  1.0000
  C   C570      1.0  0.53348  0.45681  0.12315  1.0000
  S   S191      1.0  0.53569  0.62147  0.21798  1.0000
  C   C571      1.0  0.99592  0.55217  0.49726  1.0000
  H   H562      1.0  0.93106  0.65753  0.16754  1.0000
  H   H563      1.0  0.94814  0.54954  0.13000  1.0000
  H   H564      1.0  0.98468  0.48008  0.48382  1.0000
  C   C572      1.0  0.94460  0.35889  0.02071  1.0000
  H   H565      1.0  0.58625  0.50811  0.40355  1.0000
  H   H566      1.0  0.01238  0.55139  0.44599  1.0000
  H   H567      1.0  0.53594  0.48911  0.19950  1.0000
  C   C573      1.0  0.52960  0.48408  0.17351  1.0000
  C   C574      1.0  0.01988  0.50081  0.30853  1.0000
  C   C575      1.0  0.53036  0.55551  0.37024  1.0000
  C   C576      1.0  0.63397  0.68098  0.26332  1.0000
  C   C577      1.0  0.96905  0.35499  0.49977  1.0000
  C   C578      1.0  0.88718  0.35024  0.11903  1.0000
  H   H568      1.0  0.72259  0.34935  0.35755  1.0000
  H   H569      1.0  0.02806  0.47759  0.08759  1.0000
  H   H570      1.0  0.00069  0.57208  0.50179  1.0000
  H   H571      1.0  0.99625  0.35163  0.91443  1.0000
  S   S192      1.0  0.97060  0.41147  0.93163  1.0000
  C   C579      1.0  0.54126  0.53480  0.80575  1.0000
  H   H572      1.0  0.97246  0.50018  0.53952  1.0000
  C   C580      1.0  0.63123  0.65391  0.78135  1.0000
  S   S193      1.0  0.54020  0.61779  0.72776  1.0000
  Fe  Fe97      1.0  0.57235  0.60611  0.69135  1.0000
  S   S194      1.0  0.54625  0.60284  0.64440  1.0000
  S   S195      1.0  0.60827  0.63109  0.68506  1.0000
  C   C581      1.0  0.53348  0.44756  0.79054  1.0000
  C   C582      1.0  0.54900  0.53655  0.56138  1.0000
  H   H573      1.0  0.54172  0.65947  0.66840  1.0000
  C   C583      1.0  0.98401  0.42661  0.82853  1.0000
  S   S196      1.0  0.56964  0.56418  0.70385  1.0000
  H   H574      1.0  0.55447  0.54566  0.50723  1.0000
  Fe  Fe98      1.0  0.57137  0.39004  0.92409  1.0000
  H   H575      1.0  0.68424  0.65587  0.63302  1.0000
  H   H576      1.0  0.54988  0.46571  0.53070  1.0000
  H   H577      1.0  0.00470  0.42302  0.82066  1.0000
  C   C584      1.0  0.55234  0.53044  0.52595  1.0000
  H   H578      1.0  0.96658  0.52703  0.83027  1.0000
  C   C585      1.0  0.54975  0.48543  0.53905  1.0000
  H   H579      1.0  0.54405  0.47635  0.59321  1.0000
  S   S197      1.0  0.59115  0.42746  0.93368  1.0000
  S   S198      1.0  0.54977  0.40375  0.87701  1.0000
  H   H580      1.0  0.54656  0.43244  0.79915  1.0000
  C   C586      1.0  0.62747  0.36154  0.87752  1.0000
  H   H581      1.0  0.99436  0.45971  0.77833  1.0000
  N   N50       1.0  0.59106  0.51202  0.94372  1.0000
  S   S199      1.0  0.53861  0.39885  0.96143  1.0000
  C   C587      1.0  0.56598  0.52838  0.79267  1.0000
  C   C588      1.0  0.93833  0.37648  0.96289  1.0000
  C   C589      1.0  0.58098  0.52130  0.97416  1.0000
  H   H582      1.0  0.55510  0.50235  0.72411  1.0000
  Fe  Fe99      1.0  0.56649  0.44217  0.88983  1.0000
  C   C590      1.0  0.54645  0.49154  0.57450  1.0000
  Fe  Fe100     1.0  0.54067  0.56171  0.65971  1.0000
  C   C591      1.0  0.61107  0.49187  0.94460  1.0000
  C   C592      1.0  0.67878  0.63252  0.67841  1.0000
  C   C593      1.0  0.96280  0.49164  0.85849  1.0000
  C   C594      1.0  0.55362  0.55074  0.94232  1.0000
  S   S200      1.0  0.58877  0.35017  0.92512  1.0000
  Fe  Fe101     1.0  0.53493  0.57574  0.73621  1.0000
  H   H583      1.0  0.95272  0.35331  0.55149  1.0000
  H   H584      1.0  0.66570  0.61918  0.66561  1.0000
  C   C595      1.0  0.61855  0.64056  0.75445  1.0000
  C   C596      1.0  0.62108  0.64881  0.72010  1.0000
  H   H585      1.0  0.56016  0.46133  0.75182  1.0000
  H   H586      1.0  0.72261  0.63084  0.77071  1.0000
  H   H587      1.0  0.60748  0.62350  0.76017  1.0000
  H   H588      1.0  0.61133  0.48075  0.91994  1.0000
  C   C597      1.0  0.58357  0.52233  0.91266  1.0000
  H   H589      1.0  0.63731  0.67761  0.68659  1.0000
  H   H590      1.0  0.53531  0.48815  0.86657  1.0000
  C   C598      1.0  0.68444  0.62979  0.71376  1.0000
  H   H591      1.0  0.92721  0.37720  0.93902  1.0000
  C   C599      1.0  0.96045  0.66278  0.59700  1.0000
  H   H592      1.0  0.98123  0.41780  0.85454  1.0000
  S   S201      1.0  0.58609  0.46639  0.84917  1.0000
  H   H593      1.0  0.96879  0.64386  0.59429  1.0000
  H   H594      1.0  0.02666  0.52922  0.60785  1.0000
  S   S202      1.0  0.53295  0.45476  0.92364  1.0000
  H   H595      1.0  0.62111  0.38121  0.87972  1.0000
  N   N51       1.0  0.69974  0.64730  0.73052  1.0000
  C   C600      1.0  0.94119  0.67141  0.57350  1.0000
  C   C601      1.0  0.96071  0.39178  0.96660  1.0000
  C   C602      1.0  0.56457  0.54166  0.91143  1.0000
  H   H596      1.0  0.65854  0.36991  0.84133  1.0000
  H   H597      1.0  0.59221  0.51552  0.88862  1.0000
  H   H598      1.0  0.67575  0.61406  0.72792  1.0000
  C   C603      1.0  0.98004  0.51182  0.51854  1.0000
  C   C604      1.0  0.54577  0.51711  0.58585  1.0000
  C   C605      1.0  0.98034  0.49483  0.80050  1.0000
  H   H599      1.0  0.71005  0.66246  0.78018  1.0000
  H   H600      1.0  0.53873  0.56561  0.94177  1.0000
  C   C606      1.0  0.98488  0.46848  0.80064  1.0000
  H   H601      1.0  0.55837  0.54947  0.88663  1.0000
  C   C607      1.0  0.70562  0.64390  0.76747  1.0000
  C   C608      1.0  0.55247  0.50490  0.51452  1.0000
  C   C609      1.0  0.55098  0.67776  0.67618  1.0000
  C   C610      1.0  0.56202  0.54068  0.97395  1.0000
  C   C611      1.0  0.63544  0.67099  0.71307  1.0000
  H   H602      1.0  0.95452  0.50050  0.88153  1.0000
  H   H603      1.0  0.68838  0.63611  0.78156  1.0000
  C   C612      1.0  0.96948  0.50649  0.82977  1.0000
  C   C613      1.0  0.02313  0.35404  0.95750  1.0000
  H   H604      1.0  0.98614  0.50626  0.77828  1.0000
  C   C614      1.0  0.97485  0.39079  0.99768  1.0000
  S   S203      1.0  0.00724  0.59068  0.65138  1.0000
  N   N52       1.0  0.97869  0.45413  0.82911  1.0000
  Fe  Fe102     1.0  0.01675  0.63267  0.65158  1.0000
  C   C615      1.0  0.56860  0.49267  0.83284  1.0000
  C   C616      1.0  0.53341  0.50090  0.72573  1.0000
  C   C617      1.0  0.96737  0.46528  0.85761  1.0000
  Fe  Fe103     1.0  0.55649  0.43791  0.96725  1.0000
  C   C618      1.0  0.68900  0.65323  0.66022  1.0000
  S   S204      1.0  0.99145  0.66832  0.65577  1.0000
  H   H605      1.0  0.54851  0.55629  0.56968  1.0000
  H   H606      1.0  0.59883  0.50244  0.79613  1.0000
  H   H607      1.0  0.62975  0.64709  0.80779  1.0000
  H   H608      1.0  0.63070  0.50036  0.94873  1.0000
  H   H609      1.0  0.57460  0.53961  0.77217  1.0000
  C   C619      1.0  0.71025  0.66739  0.71270  1.0000
  C   C620      1.0  0.57968  0.50738  0.80630  1.0000
  Fe  Fe104     1.0  0.01164  0.42784  0.92911  1.0000
  H   H610      1.0  0.99195  0.40265  0.00100  1.0000
  C   C621      1.0  0.54403  0.49932  0.84617  1.0000
  H   H611      1.0  0.98039  0.54658  0.54866  1.0000
  S   S205      1.0  0.53877  0.52366  0.63023  1.0000
  H   H612      1.0  0.96240  0.45391  0.88023  1.0000
  H   H613      1.0  0.97074  0.41704  0.80985  1.0000
  H   H614      1.0  0.60697  0.47810  0.96591  1.0000
  C   C622      1.0  0.98449  0.53781  0.52366  1.0000
  C   C623      1.0  0.93042  0.35994  0.98969  1.0000
  C   C624      1.0  0.55610  0.68164  0.73943  1.0000
  H   H615      1.0  0.97972  0.37246  0.50449  1.0000
  H   H616      1.0  0.93484  0.65902  0.55268  1.0000
  S   S206      1.0  0.02677  0.45204  0.53642  1.0000
  C   C625      1.0  0.64868  0.35510  0.85581  1.0000
  C   C626      1.0  0.54113  0.46409  0.76388  1.0000
  C   C627      1.0  0.53047  0.52046  0.83283  1.0000
  H   H617      1.0  0.01984  0.48293  0.59704  1.0000
  H   H618      1.0  0.57260  0.67497  0.67614  1.0000
  S   S207      1.0  0.02032  0.46775  0.91084  1.0000
  H   H619      1.0  0.57549  0.67333  0.73729  1.0000
  C   C628      1.0  0.96834  0.67848  0.62445  1.0000
  C   C629      1.0  0.70492  0.67076  0.67740  1.0000
  H   H620      1.0  0.72251  0.68124  0.72579  1.0000
  C   C630      1.0  0.64643  0.67556  0.77412  1.0000
  H   H621      1.0  0.53139  0.34980  0.91893  1.0000
  H   H622      1.0  0.55381  0.54772  0.99821  1.0000
  H   H623      1.0  0.58749  0.51356  0.99881  1.0000
  Fe  Fe105     1.0  0.90527  0.72690  0.06191  1.0000
  N   N53       1.0  0.78688  0.70509  0.12117  1.0000
  H   H624      1.0  0.79260  0.82744  0.01225  1.0000
  Fe  Fe106     1.0  0.86739  0.75157  0.11272  1.0000
  S   S208      1.0  0.85337  0.78057  0.07424  1.0000
  S   S209      1.0  0.85384  0.74870  0.16827  1.0000
  C   C631      1.0  0.59356  0.73406  0.25443  1.0000
  S   S210      1.0  0.84784  0.79332  0.44603  1.0000
  Fe  Fe107     1.0  0.89571  0.78384  0.05914  1.0000
  S   S211      1.0  0.91734  0.81946  0.04331  1.0000
  S   S212      1.0  0.86353  0.71818  0.07656  1.0000
  S   S213      1.0  0.90997  0.75801  0.10123  1.0000
  H   H625      1.0  0.61477  0.73531  0.24793  1.0000
  S   S214      1.0  0.97625  0.88436  0.15844  1.0000
  H   H626      1.0  0.76418  0.80298  0.45193  1.0000
  Fe  Fe108     1.0  0.54900  0.95244  0.13339  1.0000
  S   S215      1.0  0.58309  0.94457  0.16885  1.0000
  H   H627      1.0  0.60371  0.99903  0.12304  1.0000
  S   S216      1.0  0.54127  0.92022  0.22520  1.0000
  Fe  Fe109     1.0  0.55664  0.95911  0.21121  1.0000
  H   H628      1.0  0.86974  0.69183  0.48811  1.0000
  Fe  Fe110     1.0  0.56504  0.90654  0.17987  1.0000
  S   S217      1.0  0.58554  0.86808  0.17826  1.0000
  H   H629      1.0  0.58031  0.00504  0.17877  1.0000
  Fe  Fe111     1.0  0.68056  0.78999  0.29552  1.0000
  S   S218      1.0  0.67861  0.75939  0.33614  1.0000
  S   S219      1.0  0.65915  0.82805  0.29919  1.0000
  Fe  Fe112     1.0  0.71746  0.75920  0.25081  1.0000
  S   S220      1.0  0.71852  0.72543  0.28696  1.0000
  S   S221      1.0  0.73294  0.76334  0.19626  1.0000
  Fe  Fe113     1.0  0.67506  0.73177  0.29169  1.0000
  S   S222      1.0  0.64319  0.70199  0.29696  1.0000
  Fe  Fe114     1.0  0.72228  0.75507  0.32950  1.0000
  S   S223      1.0  0.74512  0.74542  0.37902  1.0000
  S   S224      1.0  0.67362  0.76273  0.25187  1.0000
  S   S225      1.0  0.72466  0.78838  0.29256  1.0000
  C   C632      1.0  0.56497  0.99256  0.41709  1.0000
  H   H630      1.0  0.77491  0.69206  0.21866  1.0000
  C   C633      1.0  0.01835  0.01325  0.05816  1.0000
  C   C634      1.0  0.86872  0.70374  0.46507  1.0000
  C   C635      1.0  0.99037  0.81284  0.15267  1.0000
  H   H631      1.0  0.66515  0.69100  0.22831  1.0000
  C   C636      1.0  0.54759  0.99706  0.06059  1.0000
  C   C637      1.0  0.01050  0.80408  0.08685  1.0000
  C   C638      1.0  0.97826  0.79576  0.12983  1.0000
  C   C639      1.0  0.55497  0.70873  0.23969  1.0000
  C   C640      1.0  0.59108  0.70870  0.20073  1.0000
  C   C641      1.0  0.60328  0.85621  0.21411  1.0000
  C   C642      1.0  0.60758  0.87099  0.24381  1.0000
  C   C643      1.0  0.62393  0.86169  0.27042  1.0000
  C   C644      1.0  0.63602  0.83762  0.26754  1.0000
  C   C645      1.0  0.63079  0.82250  0.23843  1.0000
  C   C646      1.0  0.61449  0.83176  0.21186  1.0000
  H   H632      1.0  0.59898  0.88986  0.24585  1.0000
  H   H633      1.0  0.62780  0.87348  0.29293  1.0000
  H   H634      1.0  0.63976  0.80393  0.23593  1.0000
  H   H635      1.0  0.61112  0.82018  0.18902  1.0000
  C   C647      1.0  0.81902  0.78007  0.42814  1.0000
  C   C648      1.0  0.80956  0.78955  0.39639  1.0000
  C   C649      1.0  0.78691  0.77927  0.38095  1.0000
  C   C650      1.0  0.77358  0.75930  0.39713  1.0000
  C   C651      1.0  0.78305  0.74984  0.42893  1.0000
  C   C652      1.0  0.80560  0.76022  0.44448  1.0000
  H   H636      1.0  0.81983  0.80492  0.38357  1.0000
  H   H637      1.0  0.77982  0.78670  0.35648  1.0000
  H   H638      1.0  0.77285  0.73433  0.44153  1.0000
  H   H639      1.0  0.81272  0.75273  0.46888  1.0000
  C   C653      1.0  0.82083  0.75608  0.17683  1.0000
  C   C654      1.0  0.80394  0.76328  0.15001  1.0000
  C   C655      1.0  0.77707  0.76641  0.15660  1.0000
  C   C656      1.0  0.76701  0.76244  0.19003  1.0000
  C   C657      1.0  0.78401  0.75618  0.21718  1.0000
  C   C658      1.0  0.81091  0.75298  0.21054  1.0000
  H   H640      1.0  0.81149  0.76590  0.12408  1.0000
  H   H641      1.0  0.76396  0.77135  0.13559  1.0000
  H   H642      1.0  0.77634  0.75312  0.24304  1.0000
  H   H643      1.0  0.82397  0.74748  0.23136  1.0000
  C   C659      1.0  0.93410  0.83669  0.07575  1.0000
  C   C660      1.0  0.95512  0.85241  0.06630  1.0000
  C   C661      1.0  0.96842  0.86686  0.09148  1.0000
  C   C662      1.0  0.96037  0.86612  0.12619  1.0000
  C   C663      1.0  0.93930  0.85041  0.13560  1.0000
  C   C664      1.0  0.92644  0.83543  0.11056  1.0000
  H   H644      1.0  0.96105  0.85358  0.03938  1.0000
  H   H645      1.0  0.98442  0.87909  0.08388  1.0000
  H   H646      1.0  0.93293  0.84980  0.16239  1.0000
  H   H647      1.0  0.91016  0.82348  0.11808  1.0000
  S   S226      1.0  0.89322  0.75324  0.01837  1.0000
  H   H648      1.0  0.58464  0.98470  0.41528  1.0000
  H   H649      1.0  0.82908  0.71768  0.39694  1.0000
  C   C665      1.0  0.77415  0.80937  0.47525  1.0000
  H   H650      1.0  0.74081  0.77289  0.48463  1.0000
  C   C666      1.0  0.84613  0.71844  0.41375  1.0000
  H   H651      1.0  0.82740  0.69880  0.13221  1.0000
  C   C667      1.0  0.88756  0.73599  0.42813  1.0000
  H   H652      1.0  0.02231  0.83918  0.15943  1.0000
  H   H653      1.0  0.02137  0.97750  0.08572  1.0000
  C   C668      1.0  0.81023  0.81652  0.02049  1.0000
  N   N54       1.0  0.86614  0.73500  0.40683  1.0000
  H   H654      1.0  0.58717  0.68526  0.15473  1.0000
  C   C669      1.0  0.88925  0.72024  0.45735  1.0000
  C   C670      1.0  0.55364  0.99718  0.44951  1.0000
  H   H655      1.0  0.59255  0.72708  0.28167  1.0000
  C   C671      1.0  0.79162  0.82979  0.47281  1.0000
  S   S227      1.0  0.55909  0.96842  0.07987  1.0000
  C   C672      1.0  0.02320  0.82114  0.10913  1.0000
  H   H656      1.0  0.73774  0.70392  0.18033  1.0000
  C   C673      1.0  0.97531  0.77360  0.07395  1.0000
  N   N55       1.0  0.57969  0.71656  0.23115  1.0000
  H   H657      1.0  0.01679  0.94302  0.26221  1.0000
  H   H658      1.0  0.90628  0.72096  0.47422  1.0000
  H   H659      1.0  0.56432  0.99288  0.47319  1.0000
  H   H660      1.0  0.54596  0.71487  0.26384  1.0000
  H   H661      1.0  0.77374  0.71075  0.06877  1.0000
  C   C674      1.0  0.57774  0.69234  0.17815  1.0000
  H   H662      1.0  0.82010  0.68976  0.19421  1.0000
  C   C675      1.0  0.55252  0.68436  0.18662  1.0000
  C   C676      1.0  0.77821  0.69510  0.19114  1.0000
  Fe  Fe115     1.0  0.01630  0.90087  0.14737  1.0000
  H   H663      1.0  0.83084  0.69006  0.44895  1.0000
  C   C677      1.0  0.79182  0.71164  0.08475  1.0000
  H   H664      1.0  0.98181  0.81690  0.17789  1.0000
  H   H665      1.0  0.79978  0.73130  0.08298  1.0000
  Fe  Fe116     1.0  0.85175  0.74760  0.03659  1.0000
  N   N56       1.0  0.68441  0.84635  0.20372  1.0000
  C   C678      1.0  0.68462  0.86583  0.22743  1.0000
  C   C679      1.0  0.67096  0.84887  0.17320  1.0000
  C   C680      1.0  0.67052  0.88834  0.22125  1.0000
  C   C681      1.0  0.65649  0.87106  0.16629  1.0000
  C   C682      1.0  0.65622  0.89084  0.19058  1.0000
  C   C683      1.0  0.69899  0.82281  0.21113  1.0000
  H   H666      1.0  0.69483  0.86357  0.25197  1.0000
  H   H667      1.0  0.67064  0.83338  0.15451  1.0000
  H   H668      1.0  0.66984  0.90329  0.24076  1.0000
  H   H669      1.0  0.64470  0.87253  0.14294  1.0000
  H   H670      1.0  0.64424  0.90770  0.18610  1.0000
  H   H671      1.0  0.69176  0.80642  0.19553  1.0000
  H   H672      1.0  0.72018  0.82538  0.20558  1.0000
  H   H673      1.0  0.69656  0.81743  0.23881  1.0000
  S   S228      1.0  0.94026  0.70059  0.05473  1.0000
  H   H674      1.0  0.57511  0.99442  0.01819  1.0000
  H   H675      1.0  0.61086  0.71445  0.19420  1.0000
  S   S229      1.0  0.53315  0.91282  0.14067  1.0000
  H   H676      1.0  0.00905  0.91790  0.29277  1.0000
  H   H677      1.0  0.54848  0.85288  0.24086  1.0000
  H   H678      1.0  0.55919  0.99416  0.36157  1.0000
  C   C684      1.0  0.86530  0.75114  0.37578  1.0000
  C   C685      1.0  0.01710  0.96789  0.32264  1.0000
  C   C686      1.0  0.55076  0.99790  0.38700  1.0000
  C   C687      1.0  0.80752  0.69889  0.14223  1.0000
  H   H679      1.0  0.84520  0.75237  0.36475  1.0000
  H   H680      1.0  0.01818  0.80126  0.06089  1.0000
  H   H681      1.0  0.52880  0.86482  0.18469  1.0000
  C   C688      1.0  0.84697  0.70277  0.44315  1.0000
  H   H682      1.0  0.74580  0.71279  0.11827  1.0000
  H   H683      1.0  0.87875  0.74343  0.35562  1.0000
  C   C689      1.0  0.80350  0.69371  0.17744  1.0000
  S   S230      1.0  0.57673  0.98598  0.24830  1.0000
  C   C690      1.0  0.53015  0.00722  0.27024  1.0000
  C   C691      1.0  0.01301  0.82552  0.14222  1.0000
  C   C692      1.0  0.55742  0.00688  0.27337  1.0000
  C   C693      1.0  0.02446  0.93133  0.28405  1.0000
  C   C694      1.0  0.54101  0.69254  0.21758  1.0000
  H   H684      1.0  0.96030  0.78643  0.13783  1.0000
  C   C695      1.0  0.75730  0.70166  0.16958  1.0000
  H   H685      1.0  0.80623  0.69824  0.07288  1.0000
  H   H686      1.0  0.87117  0.77100  0.38239  1.0000
  H   H687      1.0  0.98832  0.76709  0.05255  1.0000
  N   N57       1.0  0.98859  0.79131  0.09757  1.0000
  H   H688      1.0  0.90335  0.74922  0.42279  1.0000
  C   C696      1.0  0.76203  0.70677  0.13448  1.0000
  H   H689      1.0  0.58488  0.75349  0.25292  1.0000
  C   C697      1.0  0.55943  0.00556  0.02973  1.0000
  H   H690      1.0  0.99952  0.97250  0.30809  1.0000
  H   H691      1.0  0.81883  0.82650  0.04325  1.0000
  H   H692      1.0  0.79528  0.83881  0.44795  1.0000
  H   H693      1.0  0.91612  0.68648  0.12047  1.0000
  H   H694      1.0  0.80408  0.79715  0.02888  1.0000
  H   H695      1.0  0.96885  0.75616  0.08799  1.0000
  H   H696      1.0  0.95787  0.78307  0.06239  1.0000
  H   H697      1.0  0.86225  0.82428  0.02257  1.0000
  S   S231      1.0  0.81236  0.74467  0.00850  1.0000
  H   H698      1.0  0.01221  0.99997  0.35738  1.0000
  C   C698      1.0  0.52945  0.84538  0.23362  1.0000
  Fe  Fe117     1.0  0.86441  0.78482  0.49965  1.0000
  C   C699      1.0  0.02410  0.98343  0.35070  1.0000
  C   C700      1.0  0.80515  0.83774  0.50231  1.0000
  H   H699      1.0  0.81922  0.85317  0.50062  1.0000
  S   S232      1.0  0.02825  0.94241  0.14741  1.0000
  C   C701      1.0  0.59154  0.01582  0.12713  1.0000
  Fe  Fe118     1.0  0.89149  0.74706  0.54851  1.0000
  H   H700      1.0  0.80744  0.77622  0.78244  1.0000
  C   C702      1.0  0.99494  0.01109  0.87538  1.0000
  Fe  Fe119     1.0  0.85561  0.78784  0.57745  1.0000
  S   S233      1.0  0.86820  0.81687  0.53807  1.0000
  S   S234      1.0  0.82649  0.80228  0.61700  1.0000
  C   C703      1.0  0.86431  0.80863  0.93722  1.0000
  C   C704      1.0  0.01355  0.82437  0.59777  1.0000
  Fe  Fe120     1.0  0.90884  0.80263  0.54876  1.0000
  S   S235      1.0  0.94456  0.82826  0.54890  1.0000
  S   S236      1.0  0.84895  0.75670  0.53834  1.0000
  S   S237      1.0  0.89671  0.77587  0.59133  1.0000
  C   C705      1.0  0.00406  0.96955  0.84801  1.0000
  S   S238      1.0  0.97692  0.89752  0.67704  1.0000
  H   H701      1.0  0.54890  0.85665  0.66741  1.0000
  Fe  Fe121     1.0  0.56386  0.95300  0.64372  1.0000
  S   S239      1.0  0.59759  0.94246  0.67859  1.0000
  S   S240      1.0  0.57678  0.97897  0.59918  1.0000
  S   S241      1.0  0.55695  0.90841  0.72570  1.0000
  Fe  Fe122     1.0  0.56972  0.94937  0.72258  1.0000
  H   H702      1.0  0.54621  0.69239  0.65631  1.0000
  Fe  Fe123     1.0  0.58225  0.90251  0.67890  1.0000
  S   S242      1.0  0.60729  0.86711  0.67061  1.0000
  S   S243      1.0  0.55083  0.91204  0.64011  1.0000
  Fe  Fe124     1.0  0.69816  0.77980  0.78529  1.0000
  S   S244      1.0  0.70103  0.75520  0.83326  1.0000
  S   S245      1.0  0.67639  0.81766  0.78974  1.0000
  Fe  Fe125     1.0  0.72995  0.74227  0.74185  1.0000
  S   S246      1.0  0.73464  0.71508  0.78616  1.0000
  S   S247      1.0  0.74760  0.72760  0.69179  1.0000
  Fe  Fe126     1.0  0.69205  0.72294  0.79617  1.0000
  N   N58       1.0  0.83971  0.76003  0.70853  1.0000
  Fe  Fe127     1.0  0.74356  0.74956  0.81888  1.0000
  S   S248      1.0  0.78311  0.75030  0.84721  1.0000
  S   S249      1.0  0.68665  0.74787  0.74950  1.0000
  S   S250      1.0  0.74130  0.77653  0.77339  1.0000
  S   S251      1.0  0.01616  0.96210  0.69101  1.0000
  H   H703      1.0  0.71288  0.68709  0.66367  1.0000
  S   S252      1.0  0.90644  0.77297  0.50667  1.0000
  C   C706      1.0  0.55976  0.00184  0.57347  1.0000
  H   H704      1.0  0.79028  0.73252  0.77458  1.0000
  H   H705      1.0  0.01708  0.82437  0.70697  1.0000
  C   C707      1.0  0.56618  0.99204  0.78895  1.0000
  H   H706      1.0  0.98781  0.95586  0.85185  1.0000
  C   C708      1.0  0.81244  0.72553  0.72780  1.0000
  H   H707      1.0  0.89385  0.81907  0.97465  1.0000
  C   C709      1.0  0.54897  0.83393  0.71365  1.0000
  C   C710      1.0  0.62380  0.85135  0.70483  1.0000
  C   C711      1.0  0.62125  0.85945  0.73927  1.0000
  C   C712      1.0  0.63656  0.84803  0.76540  1.0000
  C   C713      1.0  0.65438  0.82834  0.75738  1.0000
  C   C714      1.0  0.65602  0.81944  0.72319  1.0000
  C   C715      1.0  0.64079  0.83095  0.69702  1.0000
  H   H708      1.0  0.60796  0.87489  0.74568  1.0000
  H   H709      1.0  0.63509  0.85489  0.79185  1.0000
  H   H710      1.0  0.66970  0.80432  0.71669  1.0000
  H   H711      1.0  0.64273  0.82446  0.67045  1.0000
  C   C716      1.0  0.80471  0.74491  0.96344  1.0000
  C   C717      1.0  0.77828  0.74684  0.95328  1.0000
  C   C718      1.0  0.77123  0.74810  0.91789  1.0000
  C   C719      1.0  0.79059  0.74742  0.89217  1.0000
  C   C720      1.0  0.81702  0.74523  0.90234  1.0000
  C   C721      1.0  0.82407  0.74395  0.93773  1.0000
  H   H712      1.0  0.76310  0.74749  0.97290  1.0000
  H   H713      1.0  0.75083  0.74975  0.91054  1.0000
  H   H714      1.0  0.83216  0.74454  0.88268  1.0000
  H   H715      1.0  0.98368  0.01153  0.63245  1.0000
  C   C722      1.0  0.80405  0.78135  0.63633  1.0000
  C   C723      1.0  0.80173  0.75600  0.62539  1.0000
  C   C724      1.0  0.78391  0.73971  0.64209  1.0000
  C   C725      1.0  0.76867  0.74865  0.66998  1.0000
  C   C726      1.0  0.77100  0.77401  0.68073  1.0000
  C   C727      1.0  0.78857  0.79033  0.66385  1.0000
  H   H716      1.0  0.81368  0.74892  0.60422  1.0000
  H   H717      1.0  0.78218  0.72006  0.63372  1.0000
  H   H718      1.0  0.75915  0.78113  0.70190  1.0000
  H   H719      1.0  0.79027  0.80997  0.67231  1.0000
  C   C728      1.0  0.95128  0.84920  0.58371  1.0000
  C   C729      1.0  0.97135  0.86724  0.57997  1.0000
  C   C730      1.0  0.97907  0.88254  0.60817  1.0000
  C   C731      1.0  0.96653  0.88009  0.64028  1.0000
  C   C732      1.0  0.94592  0.86258  0.64375  1.0000
  C   C733      1.0  0.93834  0.84711  0.61560  1.0000
  H   H720      1.0  0.98136  0.86901  0.55532  1.0000
  H   H721      1.0  0.99481  0.89606  0.60509  1.0000
  H   H722      1.0  0.93602  0.86072  0.66846  1.0000
  H   H723      1.0  0.92280  0.83333  0.61870  1.0000
  S   S253      1.0  0.58747  0.97073  0.76758  1.0000
  H   H724      1.0  0.00086  0.97994  0.82320  1.0000
  H   H725      1.0  0.59465  0.01240  0.54541  1.0000
  H   H726      1.0  0.02790  0.00884  0.75493  1.0000
  C   C734      1.0  0.81388  0.76481  0.76042  1.0000
  C   C735      1.0  0.00492  0.82554  0.63224  1.0000
  H   H727      1.0  0.80448  0.70660  0.72379  1.0000
  C   C736      1.0  0.64812  0.68427  0.73991  1.0000
  C   C737      1.0  0.54636  0.68782  0.77237  1.0000
  H   H728      1.0  0.92997  0.73053  0.60697  1.0000
  H   H729      1.0  0.85723  0.76144  0.65810  1.0000
  Fe  Fe128     1.0  0.01441  0.92067  0.67597  1.0000
  H   H730      1.0  0.65965  0.70091  0.73395  1.0000
  H   H731      1.0  0.96329  0.71520  0.64890  1.0000
  C   C738      1.0  0.95729  0.70297  0.62773  1.0000
  C   C739      1.0  0.85931  0.77010  0.68434  1.0000
  C   C740      1.0  0.80421  0.74018  0.75607  1.0000
  N   N59       1.0  0.54118  0.68555  0.71041  1.0000
  H   H732      1.0  0.87815  0.80608  0.91608  1.0000
  H   H733      1.0  0.76577  0.75697  0.50961  1.0000
  C   C741      1.0  0.01693  0.97903  0.90786  1.0000
  H   H734      1.0  0.02740  0.69025  0.60370  1.0000
  C   C742      1.0  0.83049  0.73573  0.70428  1.0000
  H   H735      1.0  0.85678  0.79104  0.68076  1.0000
  H   H736      1.0  0.83915  0.79371  0.73973  1.0000
  H   H737      1.0  0.74056  0.77568  0.53110  1.0000
  C   C743      1.0  0.82020  0.80699  0.95972  1.0000
  H   H738      1.0  0.84446  0.74232  0.94510  1.0000
  S   S254      1.0  0.66437  0.69020  0.80794  1.0000
  H   H739      1.0  0.83056  0.79830  0.90663  1.0000
  C   C744      1.0  0.53290  0.00653  0.57728  1.0000
  H   H740      1.0  0.83668  0.72427  0.68224  1.0000
  C   C745      1.0  0.93836  0.71170  0.60399  1.0000
  H   H741      1.0  0.98710  0.84032  0.69338  1.0000
  C   C746      1.0  0.80096  0.82536  0.53385  1.0000
  H   H742      1.0  0.81144  0.83137  0.55695  1.0000
  S   S255      1.0  0.90524  0.70586  0.54773  1.0000
  C   C747      1.0  0.83176  0.77451  0.73626  1.0000
  N   N60       1.0  0.77055  0.79700  0.50616  1.0000
  H   H743      1.0  0.98711  0.81560  0.63937  1.0000
  H   H744      1.0  0.78135  0.79465  0.55970  1.0000
  H   H745      1.0  0.54572  0.97188  0.92412  1.0000
  H   H746      1.0  0.99173  0.99599  0.57623  1.0000
  H   H747      1.0  0.87936  0.76610  0.69414  1.0000
  C   C748      1.0  0.53060  0.98461  0.93399  1.0000
  H   H748      1.0  0.79964  0.80265  0.95568  1.0000
  C   C749      1.0  0.83765  0.80434  0.93189  1.0000
  S   S256      1.0  0.53679  0.96247  0.68810  1.0000
  H   H749      1.0  0.00233  0.81388  0.57854  1.0000
  C   C750      1.0  0.85509  0.81871  0.99715  1.0000
  N   N61       1.0  0.65928  0.91137  0.74391  1.0000
  C   C751      1.0  0.67453  0.89930  0.76812  1.0000
  C   C752      1.0  0.66100  0.90471  0.70961  1.0000
  C   C753      1.0  0.69233  0.88024  0.75810  1.0000
  C   C754      1.0  0.67855  0.88572  0.69871  1.0000
  C   C755      1.0  0.69425  0.87340  0.72318  1.0000
  C   C756      1.0  0.63965  0.93026  0.75486  1.0000
  H   H750      1.0  0.67243  0.90373  0.79548  1.0000
  H   H751      1.0  0.64807  0.91336  0.69059  1.0000
  H   H752      1.0  0.70353  0.86987  0.77750  1.0000
  H   H753      1.0  0.67901  0.87980  0.67171  1.0000
  H   H754      1.0  0.70706  0.85781  0.71539  1.0000
  H   H755      1.0  0.64369  0.93797  0.78120  1.0000
  H   H756      1.0  0.63924  0.94680  0.73684  1.0000
  H   H757      1.0  0.61987  0.92147  0.75523  1.0000
  H   H758      1.0  0.55821  0.68440  0.79529  1.0000
  C   C757      1.0  0.87313  0.81588  0.97003  1.0000
  C   C758      1.0  0.93001  0.69587  0.57697  1.0000
  C   C759      1.0  0.53746  0.84402  0.68370  1.0000
  H   H759      1.0  0.01474  0.85884  0.70517  1.0000
  C   C760      1.0  0.78378  0.80466  0.53524  1.0000
  N   N62       1.0  0.00563  0.98714  0.87760  1.0000
  C   C761      1.0  0.53959  0.99303  0.78043  1.0000
  C   C762      1.0  0.57619  0.00900  0.81380  1.0000
  C   C763      1.0  0.75356  0.77454  0.50796  1.0000
  H   H760      1.0  0.02696  0.98867  0.96077  1.0000
  H   H761      1.0  0.02536  0.96003  0.90967  1.0000
  C   C764      1.0  0.53447  0.81767  0.73486  1.0000
  C   C765      1.0  0.01797  0.99516  0.93683  1.0000
  N   N63       1.0  0.01806  0.83993  0.65620  1.0000
  H   H762      1.0  0.53165  0.97984  0.76162  1.0000
  C   C766      1.0  0.00887  0.84072  0.69226  1.0000
  H   H763      1.0  0.56893  0.83891  0.72044  1.0000
  H   H764      1.0  0.59061  0.00514  0.66518  1.0000
  H   H765      1.0  0.54294  0.81021  0.75861  1.0000
  H   H766      1.0  0.59678  0.00831  0.82045  1.0000
  C   C767      1.0  0.98694  0.01457  0.56544  1.0000
  H   H767      1.0  0.99127  0.00152  0.51249  1.0000
  N   N64       1.0  0.82898  0.81432  0.99174  1.0000
  H   H768      1.0  0.02279  0.95882  0.84478  1.0000
  C   C768      1.0  0.57385  0.01585  0.54855  1.0000
