data_image0
_chemical_formula_structural       FeSFeSFeSHCH2C2H2SH2FeH2C2HSH2SC7H4SNC5SCH5CHC2H2C2H3CH4CFeSNFeSFeS2FeSFeS3CSCHC3HC6H6CHSC2SHCH2SC3HCH2CHCH2C3H2C2H2CHCHCNHFeSHFeS2FeSFeS3HC5H3C2H2C2HNH2C6HCHCHCH2CH2C2H3CHNC2NCHC2H3SHCHC5HCHCH2CH4FeS2FeS2FeSCHSHS2C6H4CHNHC2HCH4C3H2NH4C5HCHCSCHC2SCH2FeHCHC3HCFeCH3CHSHC2HFeCHC2SFeSFeCSFeH2CS2FeCSFeS2C6H4CFeH2C4HC2HC2HSHC2HNHC2HCNSCHSHCSHCH2FeHCHCHSCH2CSH2NCHFeSH2FeS2Fe2S2C2HSHC3FeH2CH2C2SCSCHFeCHC3H3CSCHNCH3SCH8CHC2SHC3NHCHC2HCH3SNH3CHC3H3C3HCFeSFeS2FeSFeS3CH2CHC2HSHC6H4C6H6C3H2NHCH2CNHSC2H3C4HCSC3HC2NHCH4CH4C2H3C2H2NC3SC3H2CFeS2HFe2S2H3NSHFeSC6H8NCHSC2H2C2HC2H6CHSH2SFeHSFeCSFeH2FeSHC2HC6H4NCS2C2FeH2SH2FeS2FeS2FeSFeS3HSC4H3C4H4CHC2NH2CHCHSC8HCHC3HC4H4C3H3C2H2C3HCNC2NCH3CH4C3FeNHCSH2FeSFeS2FeSFeS3CHCSC3H3C2H2NCFeC2HC4H2C2H2C2SCH2SHCNHCHC2FeH3C2HSCSH2NC6H3NSCH2CH2SH2FeC4H5S2FeSCFe2S2FeHSFeS2C6H5CH2FeC6H5SH3C3HC3HCNH4FeNHC2HSNHC7HCSH4CH2CH3SCH2
_chemical_formula_sum              "Fe64 S128 H384 C384 N32"
_cell_length_a       38.173
_cell_length_b       37.6437
_cell_length_c       31.2667
_cell_angle_alpha    89.6161
_cell_angle_beta     90.5286
_cell_angle_gamma    89.7841

_space_group_name_H-M_alt    "P 1"
_space_group_IT_number       1

loop_
  _space_group_symop_operation_xyz
  'x, y, z'

loop_
  _atom_site_type_symbol
  _atom_site_label
  _atom_site_symmetry_multiplicity
  _atom_site_fract_x
  _atom_site_fract_y
  _atom_site_fract_z
  _atom_site_occupancy
  Fe  Fe1       1.0  0.08382  0.28671  0.29580  1.0000
  S   S1        1.0  0.11570  0.28650  0.35666  1.0000
  Fe  Fe2       1.0  0.11003  0.22706  0.35329  1.0000
  S   S2        1.0  0.15217  0.18828  0.37409  1.0000
  Fe  Fe3       1.0  0.06357  0.28538  0.38917  1.0000
  S   S3        1.0  0.08189  0.22735  0.28994  1.0000
  H   H1        1.0  0.29743  0.03796  0.24994  1.0000
  C   C1        1.0  0.11331  0.26238  0.50083  1.0000
  H   H2        1.0  0.13645  0.24442  0.50270  1.0000
  H   H3        1.0  0.21334  0.04141  0.24721  1.0000
  C   C2        1.0  0.16035  0.33420  0.25929  1.0000
  C   C3        1.0  0.11434  0.14830  0.46703  1.0000
  H   H4        1.0  0.07703  0.15036  0.39374  1.0000
  H   H5        1.0  0.11800  0.28343  0.47653  1.0000
  S   S4        1.0  0.09072  0.32358  0.23935  1.0000
  H   H6        1.0  0.12106  0.03028  0.43034  1.0000
  H   H7        1.0  0.34387  0.32252  0.10350  1.0000
  Fe  Fe4       1.0  0.03316  0.23073  0.32911  1.0000
  H   H8        1.0  0.09073  0.24603  0.48998  1.0000
  H   H9        1.0  0.06414  0.10049  0.34541  1.0000
  C   C4        1.0  0.21135  0.07408  0.47760  1.0000
  C   C5        1.0  0.20499  0.03953  0.46302  1.0000
  H   H10       1.0  0.21570  0.03110  0.43290  1.0000
  S   S5        1.0  0.05127  0.31669  0.44820  1.0000
  H   H11       1.0  0.22656  0.09228  0.45835  1.0000
  H   H12       1.0  0.09835  0.14704  0.49653  1.0000
  S   S6        1.0  0.14420  0.04024  0.28000  1.0000
  C   C6        1.0  0.43657  0.34671  0.03980  1.0000
  C   C7        1.0  0.15273  0.14781  0.34613  1.0000
  C   C8        1.0  0.13447  0.14430  0.30747  1.0000
  C   C9        1.0  0.13276  0.11135  0.28703  1.0000
  C   C10       1.0  0.14909  0.08151  0.30526  1.0000
  C   C11       1.0  0.16802  0.08495  0.34359  1.0000
  C   C12       1.0  0.17003  0.11815  0.36384  1.0000
  H   H13       1.0  0.12174  0.16696  0.29305  1.0000
  H   H14       1.0  0.11828  0.10892  0.25727  1.0000
  H   H15       1.0  0.18057  0.06206  0.35809  1.0000
  H   H16       1.0  0.18418  0.12065  0.39382  1.0000
  S   S7        1.0  0.06105  0.22626  0.39204  1.0000
  N   N1        1.0  0.10573  0.11855  0.43877  1.0000
  C   C13       1.0  0.11736  0.08522  0.44931  1.0000
  C   C14       1.0  0.08595  0.12394  0.40255  1.0000
  C   C15       1.0  0.11059  0.05640  0.42249  1.0000
  C   C16       1.0  0.07849  0.09573  0.37504  1.0000
  C   C17       1.0  0.09119  0.06181  0.38493  1.0000
  S   S8        1.0  0.03194  0.29027  0.32872  1.0000
  C   C18       1.0  0.27863  0.02049  0.26678  1.0000
  H   H17       1.0  0.13255  0.08098  0.47822  1.0000
  H   H18       1.0  0.10967  0.17434  0.45098  1.0000
  H   H19       1.0  0.08682  0.04004  0.36292  1.0000
  H   H20       1.0  0.15727  0.31425  0.28395  1.0000
  H   H21       1.0  0.14268  0.14753  0.47590  1.0000
  C   C19       1.0  0.22187  0.01840  0.22929  1.0000
  H   H22       1.0  0.26427  0.03637  0.29088  1.0000
  C   C20       1.0  0.19842  0.08501  0.51716  1.0000
  C   C21       1.0  0.17263  0.02682  0.52746  1.0000
  H   H23       1.0  0.05092  0.27986  0.53208  1.0000
  H   H24       1.0  0.01113  0.34013  0.52088  1.0000
  C   C22       1.0  0.13227  0.34274  0.23207  1.0000
  C   C23       1.0  0.18620  0.01569  0.48834  1.0000
  H   H25       1.0  0.41773  0.34122  0.06441  1.0000
  H   H26       1.0  0.21420  0.34497  0.27589  1.0000
  H   H27       1.0  0.23134  0.16037  0.81812  1.0000
  C   C24       1.0  0.04416  0.02592  0.67110  1.0000
  H   H28       1.0  0.48624  0.34051  0.87895  1.0000
  H   H29       1.0  0.03808  0.30589  0.60256  1.0000
  H   H30       1.0  0.05663  0.08053  0.68446  1.0000
  H   H31       1.0  0.16868  0.06978  0.57235  1.0000
  C   C25       1.0  0.02663  0.21736  0.64892  1.0000
  Fe  Fe5       1.0  0.33831  0.31359  0.83352  1.0000
  S   S9        1.0  0.32218  0.26040  0.80662  1.0000
  N   N2        1.0  0.21546  0.24844  0.82825  1.0000
  Fe  Fe6       1.0  0.13969  0.13297  0.67355  1.0000
  S   S10       1.0  0.12264  0.12485  0.60543  1.0000
  Fe  Fe7       1.0  0.17086  0.20541  0.65646  1.0000
  S   S11       1.0  0.15683  0.20292  0.58685  1.0000
  S   S12       1.0  0.19101  0.25760  0.68167  1.0000
  Fe  Fe8       1.0  0.10526  0.18157  0.60816  1.0000
  S   S13       1.0  0.05696  0.19986  0.57231  1.0000
  Fe  Fe9       1.0  0.17560  0.14669  0.59033  1.0000
  S   S14       1.0  0.12766  0.09122  0.72271  1.0000
  S   S15       1.0  0.11764  0.18807  0.67790  1.0000
  S   S16       1.0  0.19444  0.15060  0.65847  1.0000
  C   C26       1.0  0.22919  0.27982  0.85027  1.0000
  S   S17       1.0  0.20830  0.12759  0.53577  1.0000
  C   C27       1.0  0.09247  0.30829  0.62172  1.0000
  H   H32       1.0  0.47570  0.33965  0.82333  1.0000
  C   C28       1.0  0.13955  0.04971  0.70212  1.0000
  C   C29       1.0  0.15943  0.04815  0.66494  1.0000
  C   C30       1.0  0.12834  0.01816  0.72164  1.0000
  H   H33       1.0  0.49767  0.30194  0.84790  1.0000
  C   C31       1.0  0.28854  0.26063  0.76764  1.0000
  C   C32       1.0  0.27841  0.22859  0.74855  1.0000
  C   C33       1.0  0.24918  0.22747  0.72088  1.0000
  C   C34       1.0  0.23003  0.25846  0.71214  1.0000
  C   C35       1.0  0.24081  0.29066  0.73019  1.0000
  C   C36       1.0  0.26999  0.29177  0.75781  1.0000
  H   H34       1.0  0.29276  0.20445  0.75593  1.0000
  H   H35       1.0  0.24115  0.20256  0.70697  1.0000
  H   H36       1.0  0.22615  0.31475  0.72347  1.0000
  H   H37       1.0  0.27748  0.31657  0.77240  1.0000
  H   H38       1.0  0.14941  0.22428  0.76170  1.0000
  H   H39       1.0  0.16857  0.07231  0.65006  1.0000
  C   C37       1.0  0.17862  0.06152  0.54180  1.0000
  H   H40       1.0  0.21657  0.28268  0.88190  1.0000
  S   S18       1.0  0.38073  0.34359  0.98409  1.0000
  C   C38       1.0  0.18595  0.25136  0.80327  1.0000
  C   C39       1.0  0.23141  0.21614  0.83417  1.0000
  S   S19       1.0  0.39303  0.32327  0.85849  1.0000
  H   H41       1.0  0.04679  0.20158  0.66415  1.0000
  C   C40       1.0  0.03585  0.06114  0.68038  1.0000
  H   H42       1.0  0.25806  0.27775  0.85503  1.0000
  H   H43       1.0  0.22452  0.30437  0.83103  1.0000
  S   S20       1.0  0.31268  0.33497  0.89229  1.0000
  C   C41       1.0  0.25943  0.05207  0.59245  1.0000
  C   C42       1.0  0.21814  0.18575  0.81420  1.0000
  C   C43       1.0  0.18827  0.18856  0.78828  1.0000
  H   H44       1.0  0.07127  0.01784  0.66749  1.0000
  C   C44       1.0  0.17203  0.22155  0.78278  1.0000
  H   H45       1.0  0.17359  0.27702  0.79794  1.0000
  H   H46       1.0  0.14852  0.30706  0.63127  1.0000
  C   C45       1.0  0.02501  0.22005  0.60433  1.0000
  H   H47       1.0  0.17801  0.16536  0.77193  1.0000
  C   C46       1.0  0.12692  0.30159  0.60949  1.0000
  H   H48       1.0  0.25520  0.21396  0.85335  1.0000
  H   H49       1.0  0.08706  0.31895  0.65312  1.0000
  C   C47       1.0  0.25449  0.01847  0.65806  1.0000
  C   C48       1.0  0.06502  0.30098  0.59342  1.0000
  C   C49       1.0  0.25364  0.02085  0.56944  1.0000
  H   H50       1.0  0.26260  0.07725  0.57573  1.0000
  H   H51       1.0  0.18269  0.01445  0.61794  1.0000
  C   C50       1.0  0.13335  0.28703  0.56925  1.0000
  C   C51       1.0  0.49582  0.33137  0.84744  1.0000
  H   H52       1.0  0.16020  0.28159  0.56019  1.0000
  H   H53       1.0  0.11297  0.01924  0.75052  1.0000
  C   C52       1.0  0.07242  0.28623  0.55355  1.0000
  H   H54       1.0  0.26301  0.07508  0.65520  1.0000
  C   C53       1.0  0.25961  0.05084  0.63704  1.0000
  H   H55       1.0  0.25355  0.01732  0.69271  1.0000
  C   C54       1.0  0.16776  0.01531  0.64697  1.0000
  N   N3        1.0  0.10617  0.27859  0.54239  1.0000
  H   H56       1.0  0.25250  0.02226  0.53480  1.0000
  Fe  Fe10      1.0  0.22823  0.47162  0.07891  1.0000
  S   S21       1.0  0.21276  0.48686  0.14565  1.0000
  H   H57       1.0  0.04507  0.36535  0.37429  1.0000
  Fe  Fe11      1.0  0.30356  0.45591  0.10376  1.0000
  S   S22       1.0  0.29489  0.47003  0.17202  1.0000
  S   S23       1.0  0.35433  0.43990  0.07438  1.0000
  Fe  Fe12      1.0  0.24501  0.43912  0.16530  1.0000
  S   S24       1.0  0.23744  0.39936  0.21869  1.0000
  Fe  Fe13      1.0  0.26400  0.51612  0.14595  1.0000
  S   S25       1.0  0.27316  0.57008  0.17464  1.0000
  S   S26       1.0  0.25617  0.42140  0.09828  1.0000
  S   S27       1.0  0.27708  0.50411  0.07796  1.0000
  H   H58       1.0  0.22087  0.66425  0.04219  1.0000
  C   C55       1.0  0.09986  0.37755  0.37727  1.0000
  C   C56       1.0  0.28486  0.60306  0.13757  1.0000
  C   C57       1.0  0.28010  0.59795  0.09372  1.0000
  C   C58       1.0  0.29207  0.62325  0.06429  1.0000
  C   C59       1.0  0.30019  0.63451  0.15205  1.0000
  H   H59       1.0  0.26674  0.57477  0.08236  1.0000
  H   H60       1.0  0.08850  0.40785  0.25991  1.0000
  H   H61       1.0  0.30359  0.63882  0.18602  1.0000
  C   C60       1.0  0.19694  0.37752  0.22272  1.0000
  C   C61       1.0  0.32420  0.37554  0.17163  1.0000
  H   H62       1.0  0.21502  0.60326  0.04228  1.0000
  H   H63       1.0  0.31300  0.35811  0.09197  1.0000
  C   C62       1.0  0.06713  0.37611  0.35687  1.0000
  C   C63       1.0  0.16897  0.38589  0.19523  1.0000
  H   H64       1.0  0.10286  0.36796  0.40994  1.0000
  N   N4        1.0  0.34971  0.36813  0.14248  1.0000
  H   H65       1.0  0.37464  0.41190  0.24999  1.0000
  H   H66       1.0  0.17216  0.40583  0.17050  1.0000
  C   C64       1.0  0.39191  0.45079  0.10372  1.0000
  C   C65       1.0  0.38980  0.47152  0.14053  1.0000
  C   C66       1.0  0.41986  0.47756  0.16548  1.0000
  C   C67       1.0  0.45189  0.46240  0.15386  1.0000
  C   C68       1.0  0.45406  0.44209  0.11669  1.0000
  C   C69       1.0  0.42417  0.43672  0.09133  1.0000
  H   H67       1.0  0.36500  0.48242  0.15017  1.0000
  C   C70       1.0  0.36634  0.56509  0.13048  1.0000
  H   H68       1.0  0.42588  0.42071  0.06277  1.0000
  C   C71       1.0  0.02924  0.38422  0.29351  1.0000
  H   H69       1.0  0.41814  0.49317  0.19432  1.0000
  C   C72       1.0  0.19257  0.35161  0.25466  1.0000
  H   H70       1.0  0.35154  0.52770  0.08176  1.0000
  H   H71       1.0  0.02990  0.36107  0.27160  1.0000
  C   C73       1.0  0.36772  0.39904  0.22016  1.0000
  H   H72       1.0  0.38232  0.60764  0.17139  1.0000
  H   H73       1.0  0.42088  0.39699  0.19736  1.0000
  C   C74       1.0  0.37934  0.59912  0.13851  1.0000
  C   C75       1.0  0.36172  0.55401  0.08834  1.0000
  H   H74       1.0  0.15442  0.39084  0.36990  1.0000
  H   H75       1.0  0.39128  0.67673  0.09000  1.0000
  H   H76       1.0  0.21543  0.64965  0.11909  1.0000
  C   C76       1.0  0.31196  0.65999  0.12263  1.0000
  H   H77       1.0  0.11505  0.37518  0.17874  1.0000
  N   N5        1.0  0.38688  0.62176  0.10543  1.0000
  C   C77       1.0  0.30843  0.65416  0.07866  1.0000
  C   C78       1.0  0.09129  0.40026  0.29333  1.0000
  N   N6        1.0  0.06319  0.38748  0.31541  1.0000
  C   C79       1.0  0.13670  0.36849  0.19992  1.0000
  H   H78       1.0  0.20318  0.54185  0.06550  1.0000
  C   C80       1.0  0.39364  0.39055  0.19076  1.0000
  C   C81       1.0  0.12441  0.40202  0.31271  1.0000
  H   H79       1.0  0.47862  0.43009  0.10761  1.0000
  H   H80       1.0  0.35902  0.54780  0.15681  1.0000
  H   H81       1.0  0.14681  0.41115  0.29452  1.0000
  S   S28       1.0  0.48873  0.46768  0.18679  1.0000
  H   H82       1.0  0.40439  0.36900  0.12900  1.0000
  C   C82       1.0  0.38413  0.37475  0.15200  1.0000
  H   H83       1.0  0.31234  0.39764  0.23341  1.0000
  C   C83       1.0  0.12869  0.39041  0.35490  1.0000
  C   C84       1.0  0.38235  0.61114  0.06396  1.0000
  C   C85       1.0  0.36958  0.57720  0.05480  1.0000
  C   C86       1.0  0.34044  0.35176  0.10148  1.0000
  C   C87       1.0  0.40079  0.65726  0.11435  1.0000
  H   H84       1.0  0.29688  0.36988  0.16461  1.0000
  C   C88       1.0  0.33280  0.39118  0.21080  1.0000
  H   H85       1.0  0.35723  0.36225  0.07536  1.0000
  C   C89       1.0  0.22404  0.67590  0.10922  1.0000
  H   H86       1.0  0.38741  0.62941  0.03771  1.0000
  H   H87       1.0  0.39181  0.66723  0.14583  1.0000
  C   C90       1.0  0.47211  0.35106  0.05073  1.0000
  H   H88       1.0  0.00750  0.38028  0.31645  1.0000
  H   H89       1.0  0.48051  0.34913  0.08378  1.0000
  H   H90       1.0  0.02334  0.40853  0.27439  1.0000
  H   H91       1.0  0.42985  0.65678  0.11409  1.0000
  Fe  Fe14      1.0  0.33418  0.64965  0.87131  1.0000
  S   S29       1.0  0.31764  0.65600  0.80292  1.0000
  S   S30       1.0  0.39052  0.65105  0.89404  1.0000
  Fe  Fe15      1.0  0.25902  0.63961  0.90055  1.0000
  S   S31       1.0  0.23622  0.64511  0.83429  1.0000
  S   S32       1.0  0.22699  0.63459  0.96015  1.0000
  Fe  Fe16      1.0  0.28166  0.61073  0.81588  1.0000
  S   S33       1.0  0.28105  0.56831  0.76609  1.0000
  C   C91       1.0  0.21199  0.58284  0.01854  1.0000
  H   H92       1.0  0.21065  0.61033  0.74483  1.0000
  S   S34       1.0  0.30146  0.60118  0.88278  1.0000
  H   H93       1.0  0.37156  0.45931  0.97674  1.0000
  S   S35       1.0  0.26630  0.42238  0.86423  1.0000
  S   S36       1.0  0.36514  0.40376  0.88380  1.0000
  C   C92       1.0  0.27494  0.52726  0.79158  1.0000
  C   C93       1.0  0.28858  0.49618  0.77373  1.0000
  C   C94       1.0  0.28664  0.46383  0.79622  1.0000
  C   C95       1.0  0.26930  0.46232  0.83541  1.0000
  C   C96       1.0  0.25400  0.49308  0.85193  1.0000
  C   C97       1.0  0.25762  0.52568  0.83068  1.0000
  H   H94       1.0  0.30090  0.49723  0.74279  1.0000
  H   H95       1.0  0.29759  0.43990  0.78276  1.0000
  H   H96       1.0  0.23960  0.49179  0.88140  1.0000
  H   H97       1.0  0.24637  0.54947  0.84417  1.0000
  C   C98       1.0  0.21615  0.59092  0.97514  1.0000
  H   H98       1.0  0.49451  0.43315  0.76262  1.0000
  N   N7        1.0  0.28737  0.43220  0.97265  1.0000
  H   H99       1.0  0.34282  0.51652  0.95469  1.0000
  C   C99       1.0  0.20286  0.52953  0.95786  1.0000
  C   C100      1.0  0.21145  0.56422  0.94466  1.0000
  H   H100      1.0  0.33566  0.40599  0.98758  1.0000
  C   C101      1.0  0.26602  0.40040  0.97924  1.0000
  H   H101      1.0  0.19860  0.50904  0.93435  1.0000
  H   H102      1.0  0.21384  0.57046  0.91101  1.0000
  H   H103      1.0  0.44150  0.40381  0.87808  1.0000
  H   H104      1.0  0.27959  0.38080  0.00036  1.0000
  C   C102      1.0  0.20891  0.63550  0.72765  1.0000
  C   C103      1.0  0.38952  0.55252  0.85948  1.0000
  C   C104      1.0  0.37798  0.47470  0.76267  1.0000
  H   H105      1.0  0.27822  0.51850  0.94376  1.0000
  H   H106      1.0  0.41669  0.51126  0.89496  1.0000
  N   N8        1.0  0.38114  0.50155  0.79621  1.0000
  H   H107      1.0  0.35413  0.54201  0.76057  1.0000
  H   H108      1.0  0.26452  0.64449  0.72980  1.0000
  H   H109      1.0  0.36147  0.58754  0.81632  1.0000
  H   H110      1.0  0.24077  0.40756  0.99458  1.0000
  C   C105      1.0  0.23925  0.65471  0.71923  1.0000
  C   C106      1.0  0.41990  0.67385  0.86068  1.0000
  C   C107      1.0  0.32294  0.43056  0.97768  1.0000
  C   C108      1.0  0.40278  0.51821  0.86566  1.0000
  C   C109      1.0  0.37199  0.56102  0.82142  1.0000
  H   H111      1.0  0.39284  0.57262  0.88396  1.0000
  C   C110      1.0  0.39828  0.49291  0.83348  1.0000
  H   H112      1.0  0.36183  0.48409  0.73512  1.0000
  C   C111      1.0  0.36801  0.53509  0.78992  1.0000
  S   S37       1.0  0.42952  0.40122  0.78695  1.0000
  C   C112      1.0  0.20081  0.52117  0.00154  1.0000
  H   H113      1.0  0.26032  0.38789  0.94788  1.0000
  C   C113      1.0  0.27154  0.46312  0.95975  1.0000
  C   C114      1.0  0.46471  0.41698  0.81756  1.0000
  S   S38       1.0  0.33457  0.36487  0.79668  1.0000
  C   C115      1.0  0.32738  0.49276  0.95938  1.0000
  H   H114      1.0  0.24358  0.46377  0.95372  1.0000
  H   H115      1.0  0.36559  0.45025  0.77567  1.0000
  Fe  Fe17      1.0  0.31314  0.38703  0.85739  1.0000
  H   H116      1.0  0.40872  0.46632  0.83828  1.0000
  C   C116      1.0  0.34348  0.46081  0.97133  1.0000
  H   H117      1.0  0.40437  0.46759  0.75056  1.0000
  C   C117      1.0  0.41170  0.68027  0.81768  1.0000
  C   C118      1.0  0.17645  0.64901  0.71439  1.0000
  C   C119      1.0  0.46403  0.41474  0.86215  1.0000
  H   H118      1.0  0.49250  0.42387  0.92084  1.0000
  C   C120      1.0  0.29117  0.49397  0.95344  1.0000
  Fe  Fe18      1.0  0.38703  0.37648  0.82639  1.0000
  C   C121      1.0  0.49402  0.43121  0.79716  1.0000
  H   H119      1.0  0.36499  0.56934  0.02196  1.0000
  H   H120      1.0  0.15263  0.63460  0.72149  1.0000
  H   H121      1.0  0.28851  0.61886  0.03032  1.0000
  C   C122      1.0  0.49297  0.42594  0.88630  1.0000
  H   H122      1.0  0.38738  0.67105  0.80437  1.0000
  S   S39       1.0  0.19601  0.47697  0.01892  1.0000
  H   H123      1.0  0.45877  0.68030  0.91039  1.0000
  C   C123      1.0  0.48568  0.35851  0.97584  1.0000
  C   C124      1.0  0.49683  0.35652  0.01863  1.0000
  H   H124      1.0  0.50465  0.36316  0.95115  1.0000
  Fe  Fe19      1.0  0.36686  0.34961  0.91405  1.0000
  C   C125      1.0  0.42543  0.34890  0.99699  1.0000
  H   H125      1.0  0.44158  0.35675  0.93206  1.0000
  C   C126      1.0  0.45005  0.35505  0.96504  1.0000
  C   C127      1.0  0.20516  0.54798  0.03176  1.0000
  S   S40       1.0  0.44902  0.75557  0.16368  1.0000
  Fe  Fe20      1.0  0.40360  0.76934  0.12020  1.0000
  S   S41       1.0  0.40347  0.74912  0.05278  1.0000
  Fe  Fe21      1.0  0.33157  0.80383  0.11090  1.0000
  C   C128      1.0  0.02377  0.84443  0.51551  1.0000
  S   S42       1.0  0.28120  0.82669  0.13603  1.0000
  Fe  Fe22      1.0  0.34786  0.73488  0.06590  1.0000
  H   H126      1.0  0.13126  0.92639  0.52319  1.0000
  H   H127      1.0  0.25253  0.75441  0.14973  1.0000
  C   C129      1.0  0.50473  0.86001  0.05485  1.0000
  S   S43       1.0  0.34937  0.75046  0.13472  1.0000
  S   S44       1.0  0.38625  0.82497  0.10356  1.0000
  Fe  Fe23      1.0  0.14894  0.91620  0.33692  1.0000
  C   C130      1.0  0.47541  0.86016  0.08135  1.0000
  S   S45       1.0  0.11073  0.87129  0.33399  1.0000
  Fe  Fe24      1.0  0.22391  0.93902  0.32320  1.0000
  S   S46       1.0  0.27783  0.92501  0.29939  1.0000
  S   S47       1.0  0.19782  0.90904  0.37623  1.0000
  C   C131      1.0  0.28134  0.85209  0.18304  1.0000
  C   C132      1.0  0.31244  0.86505  0.20095  1.0000
  C   C133      1.0  0.31125  0.88675  0.23739  1.0000
  C   C134      1.0  0.27906  0.89521  0.25621  1.0000
  C   C135      1.0  0.24813  0.88156  0.23876  1.0000
  C   C136      1.0  0.24926  0.86034  0.20208  1.0000
  H   H128      1.0  0.33729  0.85875  0.18642  1.0000
  H   H129      1.0  0.33529  0.89718  0.25083  1.0000
  H   H130      1.0  0.22328  0.88747  0.25332  1.0000
  H   H131      1.0  0.22515  0.85022  0.18847  1.0000
  C   C137      1.0  0.48793  0.75204  0.13466  1.0000
  Fe  Fe25      1.0  0.18458  0.96260  0.40242  1.0000
  H   H132      1.0  0.02997  0.91268  0.42512  1.0000
  H   H133      1.0  0.45001  0.86833  0.06868  1.0000
  C   C138      1.0  0.24520  0.73445  0.12640  1.0000
  C   C139      1.0  0.03984  0.86535  0.33988  1.0000
  C   C140      1.0  0.06775  0.88668  0.32684  1.0000
  C   C141      1.0  0.06106  0.91978  0.30787  1.0000
  H   H134      1.0  0.19106  0.96034  0.15519  1.0000
  C   C142      1.0  0.22732  0.68416  0.06577  1.0000
  C   C143      1.0  0.05231  0.91656  0.44628  1.0000
  H   H135      1.0  0.08258  0.93632  0.29762  1.0000
  C   C144      1.0  0.47893  0.84868  0.12372  1.0000
  C   C145      1.0  0.02638  0.93091  0.30053  1.0000
  H   H136      1.0  0.14383  0.86726  0.43044  1.0000
  S   S48       1.0  0.17580  0.94200  0.28145  1.0000
  H   H137      1.0  0.46589  0.77565  0.07766  1.0000
  C   C146      1.0  0.20912  0.97311  0.17719  1.0000
  C   C147      1.0  0.08259  0.89606  0.44133  1.0000
  H   H138      1.0  0.32423  0.68366  0.13419  1.0000
  N   N9        1.0  0.25457  0.00427  0.23582  1.0000
  H   H139      1.0  0.02124  0.95599  0.28449  1.0000
  C   C148      1.0  0.05068  0.94090  0.47966  1.0000
  C   C149      1.0  0.01224  0.83992  0.47318  1.0000
  H   H140      1.0  0.04497  0.83983  0.35490  1.0000
  C   C150      1.0  0.14153  0.87727  0.46370  1.0000
  N   N10       1.0  0.11074  0.90023  0.46816  1.0000
  S   S49       1.0  0.21546  0.99247  0.35326  1.0000
  C   C151      1.0  0.10929  0.92386  0.50115  1.0000
  H   H141      1.0  0.01060  0.86298  0.18567  1.0000
  S   S50       1.0  0.18139  0.97131  0.47319  1.0000
  H   H142      1.0  0.25729  0.76775  0.07278  1.0000
  C   C152      1.0  0.24807  0.74178  0.08264  1.0000
  S   S51       1.0  0.13346  0.96732  0.36743  1.0000
  H   H143      1.0  0.03103  0.83496  0.44822  1.0000
  C   C153      1.0  0.19858  0.00294  0.20011  1.0000
  H   H144      1.0  0.02699  0.95625  0.48453  1.0000
  H   H145      1.0  0.08307  0.87594  0.41681  1.0000
  Fe  Fe26      1.0  0.16510  0.99291  0.31601  1.0000
  H   H146      1.0  0.45625  0.84756  0.14439  1.0000
  C   C154      1.0  0.24287  0.95952  0.18314  1.0000
  H   H147      1.0  0.25131  0.93605  0.16593  1.0000
  C   C155      1.0  0.26549  0.97574  0.21249  1.0000
  H   H148      1.0  0.02442  0.81180  0.26344  1.0000
  S   S52       1.0  0.32535  0.68412  0.04094  1.0000
  C   C156      1.0  0.23328  0.70119  0.13969  1.0000
  H   H149      1.0  0.16592  0.89210  0.47122  1.0000
  H   H150      1.0  0.23161  0.69484  0.17351  1.0000
  C   C157      1.0  0.07935  0.94468  0.50728  1.0000
  S   S53       1.0  0.32699  0.78701  0.04238  1.0000
  H   H151      1.0  0.29337  0.99958  0.28484  1.0000
  H   H152      1.0  0.29148  0.96461  0.21755  1.0000
  N   N11       1.0  0.23966  0.71653  0.05299  1.0000
  C   C158      1.0  0.48870  0.76366  0.09222  1.0000
  H   H153      1.0  0.03006  0.87163  0.23754  1.0000
  Fe  Fe27      1.0  0.38304  0.80338  0.03680  1.0000
  S   S54       1.0  0.06861  0.84270  0.52811  1.0000
  H   H154      1.0  0.13924  0.85416  0.48580  1.0000
  H   H155      1.0  0.17227  0.01365  0.19619  1.0000
  Fe  Fe28      1.0  0.10672  0.82772  0.68223  1.0000
  S   S55       1.0  0.13400  0.84701  0.62321  1.0000
  S   S56       1.0  0.11717  0.77549  0.71590  1.0000
  Fe  Fe29      1.0  0.07997  0.85632  0.59676  1.0000
  Fe  Fe30      1.0  0.12756  0.90125  0.65166  1.0000
  S   S57       1.0  0.16869  0.94308  0.64322  1.0000
  S   S58       1.0  0.10526  0.88129  0.71345  1.0000
  C   C159      1.0  0.36088  0.76792  0.82208  1.0000
  C   C160      1.0  0.46610  0.80748  0.97405  1.0000
  H   H156      1.0  0.21810  0.72218  0.99047  1.0000
  S   S59       1.0  0.07566  0.91223  0.62028  1.0000
  H   H157      1.0  0.25587  0.74986  0.00085  1.0000
  C   C161      1.0  0.39802  0.77014  0.89857  1.0000
  C   C162      1.0  0.44403  0.83657  0.96565  1.0000
  C   C163      1.0  0.20315  0.73290  0.65856  1.0000
  Fe  Fe31      1.0  0.27423  0.69016  0.82730  1.0000
  H   H158      1.0  0.34638  0.76701  0.79207  1.0000
  H   H159      1.0  0.20036  0.70702  0.80227  1.0000
  C   C164      1.0  0.45695  0.86600  0.94329  1.0000
  H   H160      1.0  0.34942  0.75581  0.92884  1.0000
  H   H161      1.0  0.50171  0.86854  0.02186  1.0000
  C   C165      1.0  0.15652  0.98375  0.66605  1.0000
  C   C166      1.0  0.01744  0.00100  0.66695  1.0000
  S   S60       1.0  0.29356  0.68753  0.89526  1.0000
  C   C167      1.0  0.22438  0.75387  0.77610  1.0000
  S   S61       1.0  0.26721  0.74232  0.79222  1.0000
  C   C168      1.0  0.13650  0.98513  0.70331  1.0000
  H   H162      1.0  0.26133  0.70300  0.99311  1.0000
  Fe  Fe32      1.0  0.05351  0.88777  0.67960  1.0000
  C   C169      1.0  0.50092  0.80790  0.95965  1.0000
  H   H163      1.0  0.12783  0.96080  0.71841  1.0000
  C   C170      1.0  0.15754  0.76977  0.74246  1.0000
  C   C171      1.0  0.18519  0.79344  0.73613  1.0000
  C   C172      1.0  0.21862  0.78543  0.75290  1.0000
  H   H164      1.0  0.18107  0.81730  0.71720  1.0000
  H   H165      1.0  0.24019  0.80332  0.74707  1.0000
  H   H166      1.0  0.41214  0.77117  0.92873  1.0000
  C   C173      1.0  0.19634  0.73107  0.78393  1.0000
  S   S62       1.0  0.39986  0.83672  0.98075  1.0000
  C   C174      1.0  0.46740  0.71005  0.80782  1.0000
  H   H167      1.0  0.00803  0.85409  0.58025  1.0000
  N   N12       1.0  0.24801  0.98932  0.59026  1.0000
  C   C175      1.0  0.43541  0.69812  0.79131  1.0000
  H   H168      1.0  0.45624  0.78451  0.99099  1.0000
  H   H169      1.0  0.50206  0.89025  0.91432  1.0000
  H   H170      1.0  0.50050  0.71255  0.86389  1.0000
  S   S63       1.0  0.49564  0.73336  0.77369  1.0000
  C   C176      1.0  0.39654  0.77647  0.82295  1.0000
  H   H171      1.0  0.43992  0.88844  0.93650  1.0000
  H   H172      1.0  0.42878  0.70293  0.75803  1.0000
  H   H173      1.0  0.46657  0.77412  0.88584  1.0000
  H   H174      1.0  0.31594  0.75521  0.86018  1.0000
  H   H175      1.0  0.02375  0.97336  0.66079  1.0000
  H   H176      1.0  0.17680  0.74557  0.66032  1.0000
  H   H177      1.0  0.40969  0.78217  0.79309  1.0000
  H   H178      1.0  0.22226  0.75267  0.67082  1.0000
  C   C177      1.0  0.47590  0.70351  0.85080  1.0000
  H   H179      1.0  0.14157  0.72082  0.77242  1.0000
  C   C178      1.0  0.34375  0.76091  0.86038  1.0000
  C   C179      1.0  0.36244  0.76155  0.89887  1.0000
  S   S64       1.0  0.05287  0.83261  0.65329  1.0000
  H   H180      1.0  0.46389  0.78608  0.83045  1.0000
  C   C180      1.0  0.24388  0.72355  0.00715  1.0000
  C   C181      1.0  0.45107  0.78961  0.86191  1.0000
  C   C182      1.0  0.16301  0.73901  0.76712  1.0000
  N   N13       1.0  0.41456  0.77771  0.86097  1.0000
  H   H181      1.0  0.24280  0.96308  0.65056  1.0000
  C   C183      1.0  0.49199  0.86693  0.93043  1.0000
  H   H182      1.0  0.45212  0.81818  0.87041  1.0000
  C   C184      1.0  0.23789  0.95783  0.56582  1.0000
  C   C185      1.0  0.23675  0.68722  0.69741  1.0000
  H   H183      1.0  0.20889  0.72717  0.62457  1.0000
  C   C186      1.0  0.24865  0.98778  0.63401  1.0000
  H   H184      1.0  0.20882  0.95658  0.56340  1.0000
  H   H185      1.0  0.26043  0.70231  0.69174  1.0000
  H   H186      1.0  0.07832  0.96306  0.53378  1.0000
  S   S65       1.0  0.00771  0.91097  0.71460  1.0000
  N   N14       1.0  0.20487  0.70004  0.68396  1.0000
  H   H187      1.0  0.24737  0.93307  0.58169  1.0000
  H   H188      1.0  0.15788  0.00843  0.54697  1.0000
  H   H189      1.0  0.14957  0.69194  0.68220  1.0000
  C   C187      1.0  0.45222  0.68528  0.87713  1.0000
  H   H190      1.0  0.24850  0.95860  0.53283  1.0000
  C   C188      1.0  0.17492  0.68139  0.69211  1.0000
  C   C189      1.0  0.59754  0.20317  0.24216  1.0000
  C   C190      1.0  0.56290  0.25695  0.24071  1.0000
  H   H191      1.0  0.79974  0.17471  0.47389  1.0000
  H   H192      1.0  0.78884  0.31981  0.37082  1.0000
  H   H193      1.0  0.92930  0.09067  0.24570  1.0000
  C   C191      1.0  0.72507  0.05580  0.46138  1.0000
  C   C192      1.0  0.99355  0.32708  0.49872  1.0000
  C   C193      1.0  0.79833  0.28040  0.46833  1.0000
  H   H194      1.0  0.61214  0.16967  0.33489  1.0000
  C   C194      1.0  0.56949  0.26110  0.28433  1.0000
  Fe  Fe33      1.0  0.78369  0.13181  0.30927  1.0000
  S   S66       1.0  0.79901  0.15811  0.37041  1.0000
  Fe  Fe34      1.0  0.72812  0.18714  0.28773  1.0000
  S   S67       1.0  0.73897  0.21849  0.34701  1.0000
  S   S68       1.0  0.69056  0.20265  0.23450  1.0000
  Fe  Fe35      1.0  0.79551  0.20869  0.33298  1.0000
  S   S69       1.0  0.83549  0.25166  0.34089  1.0000
  Fe  Fe36      1.0  0.74165  0.16553  0.38001  1.0000
  S   S70       1.0  0.72519  0.16293  0.44856  1.0000
  S   S71       1.0  0.78475  0.18214  0.27068  1.0000
  S   S72       1.0  0.72579  0.13419  0.32188  1.0000
  C   C195      1.0  0.72926  0.11970  0.46969  1.0000
  H   H195      1.0  0.85899  0.02370  0.28827  1.0000
  H   H196      1.0  0.89214  0.23245  0.43921  1.0000
  C   C196      1.0  0.74817  0.29236  0.40516  1.0000
  H   H197      1.0  0.71429  0.26162  0.44544  1.0000
  C   C197      1.0  0.72360  0.09015  0.44369  1.0000
  C   C198      1.0  0.87376  0.19685  0.22858  1.0000
  H   H198      1.0  0.92953  0.24322  0.52358  1.0000
  S   S73       1.0  0.88937  0.30677  0.48801  1.0000
  H   H199      1.0  0.71706  0.09377  0.41021  1.0000
  C   C199      1.0  0.63313  0.30911  0.23728  1.0000
  C   C200      1.0  0.65034  0.29631  0.27412  1.0000
  C   C201      1.0  0.67028  0.26495  0.27282  1.0000
  C   C202      1.0  0.67254  0.24581  0.23479  1.0000
  C   C203      1.0  0.65656  0.25939  0.19747  1.0000
  C   C204      1.0  0.63715  0.29121  0.19858  1.0000
  H   H200      1.0  0.64726  0.31014  0.30409  1.0000
  H   H201      1.0  0.68236  0.25474  0.30171  1.0000
  H   H202      1.0  0.65825  0.24468  0.16795  1.0000
  H   H203      1.0  0.62381  0.30084  0.17009  1.0000
  C   C205      1.0  0.94711  0.20915  0.33068  1.0000
  C   C206      1.0  0.91901  0.18559  0.33416  1.0000
  C   C207      1.0  0.88472  0.19855  0.33752  1.0000
  C   C208      1.0  0.87842  0.23514  0.33837  1.0000
  C   C209      1.0  0.90661  0.25872  0.33643  1.0000
  C   C210      1.0  0.94093  0.24574  0.33241  1.0000
  H   H204      1.0  0.92367  0.15725  0.33304  1.0000
  H   H205      1.0  0.86324  0.18012  0.33847  1.0000
  H   H206      1.0  0.90187  0.28708  0.33724  1.0000
  H   H207      1.0  0.96236  0.26412  0.32956  1.0000
  H   H208      1.0  0.73591  0.22626  0.50478  1.0000
  H   H209      1.0  0.96061  0.14515  0.24191  1.0000
  C   C211      1.0  0.84432  0.20480  0.45213  1.0000
  C   C212      1.0  0.93460  0.30916  0.47858  1.0000
  C   C213      1.0  0.87852  0.21545  0.46175  1.0000
  H   H210      1.0  0.82997  0.02017  0.42935  1.0000
  H   H211      1.0  0.94607  0.21847  0.47899  1.0000
  N   N15       1.0  0.60401  0.20754  0.28495  1.0000
  H   H212      1.0  0.84926  0.21151  0.22673  1.0000
  C   C214      1.0  0.59014  0.23593  0.30612  1.0000
  H   H213      1.0  0.60975  0.18156  0.22490  1.0000
  H   H214      1.0  0.81261  0.03098  0.48185  1.0000
  C   C215      1.0  0.75664  0.24628  0.51123  1.0000
  N   N16       1.0  0.76547  0.26647  0.47262  1.0000
  H   H215      1.0  0.83194  0.21341  0.42245  1.0000
  S   S74       1.0  0.81791  0.08736  0.28619  1.0000
  C   C216      1.0  0.98361  0.29604  0.43229  1.0000
  C   C217      1.0  0.94770  0.29483  0.44081  1.0000
  H   H216      1.0  0.71968  0.03308  0.44137  1.0000
  H   H217      1.0  0.76062  0.06043  0.33737  1.0000
  H   H218      1.0  0.84908  0.14654  0.24041  1.0000
  C   C218      1.0  0.90391  0.10406  0.25199  1.0000
  C   C219      1.0  0.81044  0.04598  0.31058  1.0000
  C   C220      1.0  0.74037  0.27255  0.44190  1.0000
  C   C221      1.0  0.87383  0.16020  0.23651  1.0000
  H   H219      1.0  0.90589  0.24326  0.22006  1.0000
  C   C222      1.0  0.77993  0.03959  0.33382  1.0000
  S   S75       1.0  0.98897  0.19216  0.31991  1.0000
  C   C223      1.0  0.93691  0.19572  0.22833  1.0000
  C   C224      1.0  0.90555  0.21467  0.22469  1.0000
  C   C225      1.0  0.73769  0.11475  0.51304  1.0000
  H   H220      1.0  0.96183  0.20949  0.22706  1.0000
  C   C226      1.0  0.74048  0.08030  0.53038  1.0000
  C   C227      1.0  0.93603  0.15917  0.23672  1.0000
  N   N17       1.0  0.90471  0.14188  0.24054  1.0000
  H   H221      1.0  0.88329  0.09008  0.23327  1.0000
  C   C228      1.0  0.57679  0.22771  0.21946  1.0000
  H   H222      1.0  0.56012  0.28468  0.30052  1.0000
  H   H223      1.0  0.81808  0.27626  0.49305  1.0000
  H   H224      1.0  0.72845  0.29673  0.38045  1.0000
  H   H225      1.0  0.99332  0.28418  0.40347  1.0000
  C   C229      1.0  0.83534  0.01886  0.30616  1.0000
  H   H226      1.0  0.89765  0.10103  0.28649  1.0000
  H   H227      1.0  0.54842  0.27729  0.22311  1.0000
  H   H228      1.0  0.57293  0.22501  0.18523  1.0000
  H   H229      1.0  0.59607  0.23995  0.33971  1.0000
  C   C230      1.0  0.73365  0.05080  0.50468  1.0000
  C   C231      1.0  0.82628  0.18338  0.48107  1.0000
  H   H230      1.0  0.93007  0.28266  0.41806  1.0000
  H   H231      1.0  0.77971  0.23138  0.52376  1.0000
  H   H232      1.0  0.64985  0.19664  0.32163  1.0000
  C   C232      1.0  0.62671  0.18246  0.30840  1.0000
  C   C233      1.0  0.93027  0.21657  0.50863  1.0000
  H   H233      1.0  0.63710  0.16128  0.28729  1.0000
  H   H234      1.0  0.94401  0.19787  0.53081  1.0000
  N   N18       1.0  0.89449  0.20480  0.49907  1.0000
  C   C234      1.0  0.84234  0.17359  0.51967  1.0000
  C   C235      1.0  0.87661  0.18474  0.52831  1.0000
  C   C236      1.0  0.95764  0.32471  0.50802  1.0000
  S   S76       1.0  0.60267  0.34396  0.24248  1.0000
  C   C237      1.0  0.00655  0.31291  0.46064  1.0000
  C   C238      1.0  0.80717  0.29972  0.43164  1.0000
  C   C239      1.0  0.78195  0.30557  0.39984  1.0000
  H   H235      1.0  0.83355  0.30978  0.42754  1.0000
  H   H236      1.0  0.93301  0.08473  0.67478  1.0000
  C   C240      1.0  0.00067  0.07102  0.68491  1.0000
  Fe  Fe37      1.0  0.82433  0.27183  0.61546  1.0000
  S   S77       1.0  0.84345  0.29969  0.67408  1.0000
  S   S78       1.0  0.78367  0.22935  0.61381  1.0000
  H   H237      1.0  0.93088  0.05498  0.72028  1.0000
  Fe  Fe38      1.0  0.89689  0.29200  0.64645  1.0000
  Fe  Fe39      1.0  0.87367  0.31074  0.55669  1.0000
  S   S79       1.0  0.87785  0.25916  0.59189  1.0000
  S   S80       1.0  0.94305  0.27525  0.68653  1.0000
  H   H238      1.0  0.54730  0.34566  0.90311  1.0000
  H   H239      1.0  0.80452  0.30938  0.81368  1.0000
  H   H240      1.0  0.77651  0.34303  0.68031  1.0000
  N   N19       1.0  0.53011  0.34682  0.83791  1.0000
  S   S81       1.0  0.85276  0.08220  0.66382  1.0000
  H   H241      1.0  0.99690  0.24246  0.55043  1.0000
  Fe  Fe40      1.0  0.81886  0.03535  0.64817  1.0000
  S   S82       1.0  0.81801  0.32113  0.57567  1.0000
  C   C241      1.0  0.80251  0.18854  0.62851  1.0000
  C   C242      1.0  0.83566  0.18733  0.64792  1.0000
  C   C243      1.0  0.85105  0.15454  0.65850  1.0000
  C   C244      1.0  0.83331  0.12291  0.64972  1.0000
  C   C245      1.0  0.80031  0.12412  0.62994  1.0000
  C   C246      1.0  0.78478  0.15694  0.61968  1.0000
  H   H242      1.0  0.84914  0.21164  0.65576  1.0000
  H   H243      1.0  0.87648  0.15372  0.67404  1.0000
  H   H244      1.0  0.78666  0.09984  0.62275  1.0000
  H   H245      1.0  0.75907  0.15785  0.60487  1.0000
  H   H246      1.0  0.74211  0.13755  0.53320  1.0000
  H   H247      1.0  0.90719  0.30434  0.75907  1.0000
  H   H248      1.0  0.74755  0.26454  0.53667  1.0000
  H   H249      1.0  0.91970  0.03985  0.66738  1.0000
  N   N20       1.0  0.97456  0.04650  0.67993  1.0000
  C   C247      1.0  0.97461  0.25436  0.65468  1.0000
  H   H250      1.0  0.82826  0.15765  0.54292  1.0000
  S   S83       1.0  0.76013  0.03156  0.64728  1.0000
  C   C248      1.0  0.85673  0.30306  0.78882  1.0000
  C   C249      1.0  0.97299  0.25718  0.61003  1.0000
  H   H251      1.0  0.95285  0.27320  0.59484  1.0000
  H   H252      1.0  0.74705  0.07667  0.56383  1.0000
  C   C250      1.0  0.82591  0.32191  0.79673  1.0000
  C   C251      1.0  0.88358  0.31939  0.76577  1.0000
  H   H253      1.0  0.85957  0.27574  0.79960  1.0000
  C   C252      1.0  0.99802  0.23986  0.58490  1.0000
  C   C253      1.0  0.00157  0.23459  0.67406  1.0000
  H   H254      1.0  0.88867  0.17746  0.55873  1.0000
  H   H255      1.0  0.72526  0.34033  0.72839  1.0000
  H   H256      1.0  0.68122  0.01996  0.68121  1.0000
  H   H257      1.0  0.99441  0.09839  0.69252  1.0000
  H   H258      1.0  0.00285  0.23222  0.70855  1.0000
  H   H259      1.0  0.94771  0.33581  0.53730  1.0000
  C   C254      1.0  0.93791  0.05702  0.68596  1.0000
  H   H260      1.0  0.69402  0.01629  0.60372  1.0000
  S   S84       1.0  0.89716  0.34306  0.60953  1.0000
  H   H261      1.0  0.58928  0.60502  0.10338  1.0000
  H   H262      1.0  0.53660  0.60034  0.22274  1.0000
  S   S85       1.0  0.55402  0.44238  0.09694  1.0000
  Fe  Fe41      1.0  0.58555  0.37633  0.18480  1.0000
  H   H263      1.0  0.58830  0.65548  0.14729  1.0000
  S   S86       1.0  0.65302  0.62778  0.19334  1.0000
  Fe  Fe42      1.0  0.66868  0.67029  0.14665  1.0000
  C   C255      1.0  0.56888  0.55394  0.12073  1.0000
  S   S87       1.0  0.53063  0.37447  0.15785  1.0000
  Fe  Fe43      1.0  0.53270  0.43386  0.16258  1.0000
  H   H264      1.0  0.57919  0.54070  0.09277  1.0000
  H   H265      1.0  0.57799  0.65011  0.20225  1.0000
  Fe  Fe44      1.0  0.55642  0.38306  0.09427  1.0000
  S   S88       1.0  0.64766  0.47700  0.10589  1.0000
  H   H266      1.0  0.52585  0.53585  0.21284  1.0000
  C   C256      1.0  0.56817  0.64476  0.16931  1.0000
  C   C257      1.0  0.55118  0.53441  0.15176  1.0000
  H   H267      1.0  0.71205  0.44379  0.05971  1.0000
  C   C258      1.0  0.65091  0.51808  0.13193  1.0000
  C   C259      1.0  0.66652  0.54669  0.11058  1.0000
  C   C260      1.0  0.66797  0.58026  0.12974  1.0000
  C   C261      1.0  0.65410  0.58526  0.17053  1.0000
  C   C262      1.0  0.63928  0.55645  0.19235  1.0000
  C   C263      1.0  0.63756  0.52292  0.17301  1.0000
  H   H268      1.0  0.67723  0.54304  0.07898  1.0000
  H   H269      1.0  0.68007  0.60215  0.11301  1.0000
  H   H270      1.0  0.62872  0.56016  0.22401  1.0000
  H   H271      1.0  0.62600  0.50087  0.18995  1.0000
  N   N21       1.0  0.56305  0.60651  0.16337  1.0000
  C   C264      1.0  0.54556  0.58750  0.19387  1.0000
  S   S89       1.0  0.61148  0.37983  0.12067  1.0000
  S   S90       1.0  0.58508  0.43539  0.19498  1.0000
  C   C265      1.0  0.53940  0.55117  0.18855  1.0000
  C   C266      1.0  0.57460  0.59024  0.12705  1.0000
  Fe  Fe45      1.0  0.60655  0.43890  0.12887  1.0000
  H   H272      1.0  0.54708  0.50617  0.14778  1.0000
  H   H273      1.0  0.54319  0.65930  0.16364  1.0000
  S   S91       1.0  0.64634  0.66831  0.08011  1.0000
  H   H274      1.0  0.70688  0.48549  0.03333  1.0000
  H   H275      1.0  0.67523  0.39287  0.03757  1.0000
  Fe  Fe46      1.0  0.68052  0.49394  0.88512  1.0000
  S   S92       1.0  0.69802  0.49554  0.81683  1.0000
  S   S93       1.0  0.71759  0.50680  0.93911  1.0000
  Fe  Fe47      1.0  0.60831  0.46571  0.86246  1.0000
  S   S94       1.0  0.61909  0.46523  0.79216  1.0000
  S   S95       1.0  0.55941  0.45022  0.89701  1.0000
  Fe  Fe48      1.0  0.67161  0.44262  0.81105  1.0000
  S   S96       1.0  0.69139  0.39266  0.77986  1.0000
  Fe  Fe49      1.0  0.64440  0.51800  0.80406  1.0000
  S   S97       1.0  0.63575  0.56431  0.75950  1.0000
  S   S98       1.0  0.65873  0.43895  0.88081  1.0000
  S   S99       1.0  0.62877  0.52045  0.87300  1.0000
  H   H276      1.0  0.67088  0.62795  0.95180  1.0000
  S   S100      1.0  0.82373  0.40077  0.65929  1.0000
  C   C267      1.0  0.64309  0.60491  0.78501  1.0000
  C   C268      1.0  0.65452  0.60554  0.82752  1.0000
  C   C269      1.0  0.65805  0.63791  0.84877  1.0000
  C   C270      1.0  0.63630  0.63689  0.76334  1.0000
  H   H277      1.0  0.66116  0.58118  0.84396  1.0000
  H   H278      1.0  0.66669  0.63819  0.88159  1.0000
  H   H279      1.0  0.62802  0.63653  0.73015  1.0000
  C   C271      1.0  0.72728  0.39578  0.74499  1.0000
  C   C272      1.0  0.74490  0.42788  0.73874  1.0000
  C   C273      1.0  0.77407  0.42933  0.71167  1.0000
  C   C274      1.0  0.78566  0.39876  0.69060  1.0000
  H   H280      1.0  0.57154  0.59279  0.88262  1.0000
  H   H281      1.0  0.71932  0.67187  0.90338  1.0000
  H   H282      1.0  0.73612  0.45157  0.75474  1.0000
  H   H283      1.0  0.78771  0.45419  0.70710  1.0000
  C   C275      1.0  0.74405  0.58422  0.82341  1.0000
  H   H284      1.0  0.78367  0.55973  0.91679  1.0000
  C   C276      1.0  0.64011  0.66938  0.78463  1.0000
  C   C277      1.0  0.56501  0.60607  0.85268  1.0000
  N   N22       1.0  0.66903  0.44638  0.01598  1.0000
  H   H285      1.0  0.51394  0.66220  0.73125  1.0000
  H   H286      1.0  0.59542  0.48138  0.97137  1.0000
  C   C278      1.0  0.76039  0.56237  0.85387  1.0000
  H   H287      1.0  0.54583  0.45269  0.80545  1.0000
  C   C279      1.0  0.76594  0.61279  0.90063  1.0000
  H   H288      1.0  0.77359  0.62350  0.93148  1.0000
  S   S101      1.0  0.72339  0.66467  0.99995  1.0000
  C   C280      1.0  0.71596  0.61926  0.99202  1.0000
  C   C281      1.0  0.90722  0.36974  0.72493  1.0000
  C   C282      1.0  0.73886  0.55907  0.99329  1.0000
  C   C283      1.0  0.71419  0.54908  0.96223  1.0000
  C   C284      1.0  0.68910  0.57373  0.94799  1.0000
  C   C285      1.0  0.68981  0.60869  0.96327  1.0000
  C   C286      1.0  0.74192  0.67105  0.88129  1.0000
  C   C287      1.0  0.61289  0.46181  0.98570  1.0000
  H   H289      1.0  0.66991  0.56631  0.92424  1.0000
  C   C288      1.0  0.55389  0.60395  0.77664  1.0000
  H   H290      1.0  0.57465  0.41981  0.98407  1.0000
  C   C289      1.0  0.60128  0.42719  0.99267  1.0000
  C   C290      1.0  0.73884  0.36523  0.72380  1.0000
  C   C291      1.0  0.56106  0.64293  0.85109  1.0000
  H   H291      1.0  0.56422  0.65863  0.87981  1.0000
  C   C292      1.0  0.56114  0.58637  0.81532  1.0000
  C   C293      1.0  0.58722  0.36539  0.86161  1.0000
  C   C294      1.0  0.76789  0.36671  0.69657  1.0000
  C   C295      1.0  0.52274  0.43913  0.86592  1.0000
  H   H292      1.0  0.55211  0.58847  0.74756  1.0000
  H   H293      1.0  0.89569  0.38644  0.69879  1.0000
  H   H294      1.0  0.56500  0.55778  0.81589  1.0000
  H   H295      1.0  0.72578  0.63691  0.80876  1.0000
  C   C296      1.0  0.64713  0.47096  0.99735  1.0000
  C   C297      1.0  0.52311  0.44220  0.82135  1.0000
  C   C298      1.0  0.54271  0.65827  0.73466  1.0000
  H   H296      1.0  0.76369  0.53417  0.84799  1.0000
  H   H297      1.0  0.79860  0.37176  0.78788  1.0000
  H   H298      1.0  0.65587  0.49800  0.99227  1.0000
  C   C299      1.0  0.57196  0.36778  0.78665  1.0000
  C   C300      1.0  0.73998  0.59422  0.00785  1.0000
  H   H299      1.0  0.73443  0.57316  0.79353  1.0000
  H   H300      1.0  0.61501  0.37526  0.01681  1.0000
  C   C301      1.0  0.65070  0.66984  0.82756  1.0000
  C   C302      1.0  0.59627  0.37322  0.81950  1.0000
  C   C303      1.0  0.62398  0.40215  0.01093  1.0000
  H   H301      1.0  0.62206  0.38356  0.81233  1.0000
  C   C304      1.0  0.55358  0.65958  0.81192  1.0000
  N   N23       1.0  0.55065  0.64016  0.77527  1.0000
  C   C305      1.0  0.77174  0.57675  0.89253  1.0000
  C   C306      1.0  0.73917  0.62028  0.83229  1.0000
  N   N24       1.0  0.74982  0.63403  0.87068  1.0000
  C   C307      1.0  0.84991  0.37235  0.75930  1.0000
  H   H302      1.0  0.72347  0.44828  0.00345  1.0000
  H   H303      1.0  0.60573  0.37016  0.88746  1.0000
  H   H304      1.0  0.55264  0.64297  0.70699  1.0000
  C   C308      1.0  0.70475  0.45632  0.02858  1.0000
  H   H305      1.0  0.84685  0.39939  0.74753  1.0000
  H   H306      1.0  0.75823  0.54008  0.00462  1.0000
  H   H307      1.0  0.92401  0.38652  0.74565  1.0000
  H   H308      1.0  0.57879  0.37412  0.75387  1.0000
  C   C309      1.0  0.53880  0.35438  0.79646  1.0000
  C   C310      1.0  0.65798  0.41225  0.02248  1.0000
  C   C311      1.0  0.55395  0.35184  0.87027  1.0000
  Fe  Fe50      1.0  0.84171  0.34847  0.63258  1.0000
  N   N25       1.0  0.87949  0.35329  0.75034  1.0000
  H   H309      1.0  0.51988  0.35052  0.77081  1.0000
  C   C312      1.0  0.82258  0.35691  0.78230  1.0000
  S   S102      1.0  0.54197  0.35889  0.03067  1.0000
  H   H310      1.0  0.76042  0.60233  0.02990  1.0000
  H   H311      1.0  0.92385  0.34934  0.70928  1.0000
  Fe  Fe51      1.0  0.91316  0.89211  0.33339  1.0000
  S   S103      1.0  0.89135  0.91531  0.39335  1.0000
  Fe  Fe52      1.0  0.86305  0.83003  0.33330  1.0000
  S   S104      1.0  0.83733  0.84738  0.39387  1.0000
  S   S105      1.0  0.84764  0.77831  0.30284  1.0000
  Fe  Fe53      1.0  0.83915  0.90185  0.36484  1.0000
  S   S106      1.0  0.79177  0.93689  0.37048  1.0000
  Fe  Fe54      1.0  0.89171  0.85904  0.41705  1.0000
  S   S107      1.0  0.90658  0.84724  0.48523  1.0000
  S   S108      1.0  0.86063  0.88380  0.30216  1.0000
  S   S109      1.0  0.91754  0.83651  0.35930  1.0000
  C   C313      1.0  0.77580  0.75158  0.21274  1.0000
  H   H312      1.0  0.96756  0.83801  0.43050  1.0000
  C   C314      1.0  0.97478  0.78696  0.27493  1.0000
  S   S110      1.0  0.68809  0.74281  0.06384  1.0000
  C   C315      1.0  0.97630  0.84162  0.46310  1.0000
  C   C316      1.0  0.95189  0.84694  0.49557  1.0000
  C   C317      1.0  0.93856  0.78942  0.26914  1.0000
  H   H313      1.0  0.75015  0.00081  0.36912  1.0000
  H   H314      1.0  0.56505  0.82632  0.12287  1.0000
  H   H315      1.0  0.88857  0.92652  0.50495  1.0000
  C   C318      1.0  0.79905  0.97881  0.34744  1.0000
  C   C319      1.0  0.79338  0.95172  0.47523  1.0000
  H   H316      1.0  0.75512  0.77056  0.31742  1.0000
  H   H317      1.0  0.84159  0.88223  0.51364  1.0000
  N   N26       1.0  0.98196  0.84274  0.23819  1.0000
  C   C320      1.0  0.80083  0.91758  0.49074  1.0000
  Fe  Fe55      1.0  0.63625  0.72623  0.08920  1.0000
  C   C321      1.0  0.78947  0.81372  0.20221  1.0000
  C   C322      1.0  0.83530  0.90847  0.50121  1.0000
  H   H318      1.0  0.84932  0.96474  0.32157  1.0000
  C   C323      1.0  0.81910  0.78034  0.25844  1.0000
  C   C324      1.0  0.81369  0.81218  0.23613  1.0000
  C   C325      1.0  0.51156  0.83727  0.13901  1.0000
  C   C326      1.0  0.80062  0.74987  0.24618  1.0000
  H   H319      1.0  0.82795  0.83570  0.24498  1.0000
  H   H320      1.0  0.80487  0.72508  0.26323  1.0000
  C   C327      1.0  0.55057  0.74989  0.08856  1.0000
  C   C328      1.0  0.86179  0.93348  0.49623  1.0000
  H   H321      1.0  0.78235  0.80000  0.34678  1.0000
  H   H322      1.0  0.72346  0.90199  0.22514  1.0000
  C   C329      1.0  0.51975  0.76210  0.06915  1.0000
  C   C330      1.0  0.55014  0.73803  0.13108  1.0000
  S   S111      1.0  0.95546  0.92149  0.29856  1.0000
  C   C331      1.0  0.82983  0.98543  0.32493  1.0000
  H   H323      1.0  0.89603  0.82112  0.24391  1.0000
  H   H324      1.0  0.93505  0.86872  0.21710  1.0000
  S   S112      1.0  0.65343  0.72728  0.15770  1.0000
  H   H325      1.0  0.78000  0.89840  0.49458  1.0000
  C   C332      1.0  0.94643  0.84555  0.23282  1.0000
  N   N27       1.0  0.53658  0.84853  0.06998  1.0000
  H   H326      1.0  0.76656  0.95851  0.46673  1.0000
  C   C333      1.0  0.54024  0.83708  0.11143  1.0000
  H   H327      1.0  0.57405  0.72894  0.14643  1.0000
  C   C334      1.0  0.92422  0.81889  0.24803  1.0000
  C   C335      1.0  0.76996  0.78366  0.19103  1.0000
  Fe  Fe56      1.0  0.70678  0.73951  0.13185  1.0000
  H   H328      1.0  0.51829  0.73050  0.18726  1.0000
  H   H329      1.0  0.76008  0.91375  0.28980  1.0000
  H   H330      1.0  0.98403  0.86012  0.34334  1.0000
  C   C336      1.0  0.85341  0.96743  0.48075  1.0000
  C   C337      1.0  0.51869  0.73907  0.15417  1.0000
  H   H331      1.0  0.73652  0.79619  0.36057  1.0000
  S   S113      1.0  0.73619  0.78828  0.15291  1.0000
  C   C338      1.0  0.99626  0.81388  0.25884  1.0000
  S   S114      1.0  0.58945  0.75299  0.05966  1.0000
  H   H332      1.0  0.76084  0.72826  0.20424  1.0000
  H   H333      1.0  0.78508  0.83856  0.18534  1.0000
  N   N28       1.0  0.74642  0.82566  0.30394  1.0000
  C   C339      1.0  0.72530  0.81920  0.26927  1.0000
  C   C340      1.0  0.75823  0.85929  0.31182  1.0000
  C   C341      1.0  0.71666  0.84654  0.24047  1.0000
  C   C342      1.0  0.75012  0.88724  0.28369  1.0000
  C   C343      1.0  0.72939  0.88070  0.24764  1.0000
  C   C344      1.0  0.75535  0.79672  0.33376  1.0000
  H   H334      1.0  0.71614  0.79251  0.26264  1.0000
  H   H335      1.0  0.77428  0.86469  0.33978  1.0000
  H   H336      1.0  0.70127  0.84082  0.21196  1.0000
  N   N29       1.0  0.81959  0.97604  0.47012  1.0000
  S   S115      1.0  0.72393  0.68239  0.12679  1.0000
  C   C345      1.0  0.99841  0.90936  0.31309  1.0000
  H   H337      1.0  0.92150  0.76879  0.28152  1.0000
  H   H338      1.0  0.51413  0.82689  0.17137  1.0000
  C   C346      1.0  0.77402  0.00585  0.35173  1.0000
  H   H339      1.0  0.59165  0.84475  0.05788  1.0000
  H   H340      1.0  0.87409  0.98683  0.47734  1.0000
  S   S116      1.0  0.73521  0.00750  0.52607  1.0000
  H   H341      1.0  0.99251  0.89646  0.22056  1.0000
  H   H342      1.0  0.98611  0.76438  0.29188  1.0000
  Fe  Fe57      1.0  0.70016  0.68481  0.06083  1.0000
  C   C347      1.0  0.56613  0.84597  0.04053  1.0000
  C   C348      1.0  0.00493  0.86969  0.21941  1.0000
  C   C349      1.0  0.00525  0.87693  0.33361  1.0000
  C   C350      1.0  0.81146  0.01204  0.45479  1.0000
  H   H343      1.0  0.78474  0.01360  0.44062  1.0000
  H   H344      1.0  0.52011  0.77164  0.03662  1.0000
  H   H345      1.0  0.88349  0.80180  0.56453  1.0000
  H   H346      1.0  0.69141  0.83465  0.93952  1.0000
  H   H347      1.0  0.59997  0.77355  0.96858  1.0000
  S   S117      1.0  0.54564  0.82093  0.80403  1.0000
  S   S118      1.0  0.55868  0.84098  0.92675  1.0000
  Fe  Fe58      1.0  0.61679  0.75124  0.83415  1.0000
  S   S119      1.0  0.59398  0.75559  0.76826  1.0000
  C   C351      1.0  0.66853  0.99970  0.66204  1.0000
  Fe  Fe59      1.0  0.57212  0.81101  0.86737  1.0000
  Fe  Fe60      1.0  0.59970  0.81442  0.77697  1.0000
  S   S120      1.0  0.61929  0.84480  0.71945  1.0000
  S   S121      1.0  0.62665  0.80960  0.84094  1.0000
  Fe  Fe61      1.0  0.82919  0.95937  0.62146  1.0000
  H   H348      1.0  0.66091  0.98723  0.74473  1.0000
  S   S122      1.0  0.87082  0.92085  0.60189  1.0000
  Fe  Fe62      1.0  0.76833  0.97817  0.67861  1.0000
  S   S123      1.0  0.73603  0.96221  0.73576  1.0000
  S   S124      1.0  0.77167  0.94809  0.61705  1.0000
  C   C352      1.0  0.65549  0.87312  0.72588  1.0000
  C   C353      1.0  0.67442  0.88345  0.68968  1.0000
  C   C354      1.0  0.70060  0.90945  0.69276  1.0000
  C   C355      1.0  0.70784  0.92539  0.73208  1.0000
  C   C356      1.0  0.68985  0.91405  0.76863  1.0000
  C   C357      1.0  0.66378  0.88787  0.76560  1.0000
  H   H349      1.0  0.66817  0.87197  0.65892  1.0000
  H   H350      1.0  0.71413  0.91807  0.66441  1.0000
  H   H351      1.0  0.69535  0.92633  0.79915  1.0000
  H   H352      1.0  0.64919  0.88017  0.79363  1.0000
  H   H353      1.0  0.66762  0.96859  0.56027  1.0000
  C   C358      1.0  0.99937  0.85041  0.54764  1.0000
  H   H354      1.0  0.62610  0.92594  0.59425  1.0000
  H   H355      1.0  0.62776  0.95425  0.73947  1.0000
  Fe  Fe63      1.0  0.54254  0.76150  0.80122  1.0000
  C   C359      1.0  0.97038  0.91739  0.68262  1.0000
  C   C360      1.0  0.97200  0.91341  0.63830  1.0000
  C   C361      1.0  0.94150  0.91701  0.61334  1.0000
  C   C362      1.0  0.90928  0.92366  0.63265  1.0000
  C   C363      1.0  0.90788  0.92912  0.67679  1.0000
  C   C364      1.0  0.93851  0.92626  0.70174  1.0000
  H   H356      1.0  0.98883  0.78421  0.63892  1.0000
  H   H357      1.0  0.94275  0.91433  0.57901  1.0000
  H   H358      1.0  0.88305  0.93386  0.69205  1.0000
  H   H359      1.0  0.93728  0.92964  0.73605  1.0000
  H   H360      1.0  0.56358  0.82144  0.02119  1.0000
  S   S125      1.0  0.56481  0.75213  0.86680  1.0000
  H   H361      1.0  0.88140  0.85402  0.66545  1.0000
  H   H362      1.0  0.72617  0.77871  0.93547  1.0000
  H   H363      1.0  0.56665  0.86914  0.01830  1.0000
  C   C365      1.0  0.51401  0.83790  0.93854  1.0000
  C   C366      1.0  0.96190  0.81811  0.68326  1.0000
  C   C367      1.0  0.62778  0.77454  0.96182  1.0000
  H   H364      1.0  0.64895  0.69035  0.98232  1.0000
  C   C368      1.0  0.63780  0.94708  0.61288  1.0000
  C   C369      1.0  0.69854  0.77788  0.94310  1.0000
  C   C370      1.0  0.96492  0.79879  0.64553  1.0000
  H   H365      1.0  0.55067  0.68820  0.81078  1.0000
  C   C371      1.0  0.93133  0.83733  0.69092  1.0000
  N   N30       1.0  0.64724  0.74398  0.96020  1.0000
  H   H366      1.0  0.60732  0.71167  0.98769  1.0000
  H   H367      1.0  0.61673  0.00046  0.72988  1.0000
  H   H368      1.0  0.94045  0.78524  0.58581  1.0000
  H   H369      1.0  0.62204  0.69850  0.93539  1.0000
  Fe  Fe64      1.0  0.76782  0.00188  0.58600  1.0000
  N   N31       1.0  0.64581  0.97623  0.68045  1.0000
  H   H370      1.0  0.61227  0.93161  0.67102  1.0000
  C   C372      1.0  0.68207  0.74533  0.95045  1.0000
  C   C373      1.0  0.90445  0.83768  0.66018  1.0000
  H   H371      1.0  0.94484  0.85584  0.56248  1.0000
  S   S126      1.0  0.82657  0.98498  0.68560  1.0000
  N   N32       1.0  0.90769  0.81881  0.62319  1.0000
  H   H372      1.0  0.88063  0.84835  0.57544  1.0000
  C   C374      1.0  0.64349  0.80759  0.95493  1.0000
  C   C375      1.0  0.93735  0.79932  0.61573  1.0000
  C   C376      1.0  0.88001  0.82151  0.59049  1.0000
  C   C377      1.0  0.63721  0.97981  0.72583  1.0000
  C   C378      1.0  0.67622  0.99754  0.61846  1.0000
  C   C379      1.0  0.67906  0.80920  0.94544  1.0000
  C   C380      1.0  0.66108  0.97082  0.59391  1.0000
  H   H373      1.0  0.85385  0.81743  0.60490  1.0000
  C   C381      1.0  0.96358  0.85132  0.53763  1.0000
  S   S127      1.0  0.65576  0.70980  0.85528  1.0000
  H   H374      1.0  0.51789  0.78528  0.96534  1.0000
  H   H375      1.0  0.96195  0.99220  0.66864  1.0000
  H   H376      1.0  0.98346  0.81884  0.70618  1.0000
  H   H377      1.0  0.92905  0.85291  0.71984  1.0000
  C   C382      1.0  0.63003  0.95050  0.65635  1.0000
  H   H378      1.0  0.62807  0.83178  0.95639  1.0000
  H   H379      1.0  0.99664  0.90725  0.62328  1.0000
  C   C383      1.0  0.63048  0.70940  0.96667  1.0000
  H   H380      1.0  0.69723  0.72109  0.94809  1.0000
  H   H381      1.0  0.73496  0.68710  0.85242  1.0000
  H   H382      1.0  0.63563  0.69395  0.76748  1.0000
  S   S128      1.0  0.82574  0.01016  0.58421  1.0000
  C   C384      1.0  0.98257  0.01178  0.67161  1.0000
  H   H383      1.0  0.55536  0.68485  0.73345  1.0000
  H   H384      1.0  0.76472  0.68371  0.89732  1.0000
