data_image0
_chemical_formula_structural       H2CH2CHC2HC3HC2HCSCSCHC2H4C3H2CHC4HCNCHCSH2CHCHCHCHCHCHSHC2H2CNSH5C2SH6S2HCHCHC3H2CH2C2H3C2SC2H2FeHCNC4H2CHSCNS2FeHCHC4NH2CSC2H2CSCH3C2HCHS3CFeSH2FeS2FeSHFeCFeS3C5HCH2CHC3HCH2C7H4C3HNC4HCH4CHSCNCSH2CH2NHFeCH2C2FeCH2NHSCHCSHFeHC2SCH2CHCHCHCH2CH2CHCSH2CHCH3CSC2NHCHFeSC2SFeSFeSCNHFeS2FeS2H2FeCFeHSFeS2FeS2HCFeC2HC7H3C4FeH4SHNC6H3FeH3S2HSFeCH2SHCHC2SH2NHCNSHC3H2S2HFeHCHFe2CHS2FeSCFeS2FeSCFeSFeS4CHC2H3NHCHC3SC6H4CHC4HSH6SC2H2C3H2FeC2H5CHCHC2SC2HCNC4H2CHNCH4C2H3CHFeS2FeS2FeSFeS3H2FeSC3H3C7H4C3HC2HCH4SH3CHSCSH2CNHCH2CHCNCHC2FeHCH5C3HSCNC5H2C3HC2HNH2C5H5SCSC5HCHCSCFeSNFe2SCFeHS2CHSHSFe2S2HSFeHFeCHCH2S2HC3SCHCHC2FeH2C6H5CH2CFe2NC6SHCH3CH4CHSCNFeCS2HFeCHSCH3CH3C2SFeC3SHFeS2FeHFeSCSH2CSFeS2HS3NHSH2FeC3HC3H2C6H4C2HC3HCHCSH6NH2CH2NC4H5CH3FeCFeS2FeH2C5H3NHC3HFeH3C3HC2HC5SFeHCSHNHC4HCHNHFeCHCHCHC2HCH2SHC2HSHNC2SHC3H8FeH2CH3CSHSH3CHCHCHC3HC2HC2H3C2H2SHCH3NCHCHSHC3H2C3SH4CHC2HSC2
_chemical_formula_sum              "H384 C384 S128 N32 Fe64"
_cell_length_a       29.3228
_cell_length_b       29.274
_cell_length_c       37.3186
_cell_angle_alpha    89.8686
_cell_angle_beta     90.168
_cell_angle_gamma    89.6381

_space_group_name_H-M_alt    "P 1"
_space_group_IT_number       1

loop_
  _space_group_symop_operation_xyz
  'x, y, z'

loop_
  _atom_site_type_symbol
  _atom_site_label
  _atom_site_symmetry_multiplicity
  _atom_site_fract_x
  _atom_site_fract_y
  _atom_site_fract_z
  _atom_site_occupancy
  H   H1        1.0  0.41406  0.04300  0.09370  1.0000
  H   H2        1.0  0.43749  0.10938  0.23353  1.0000
  C   C1        1.0  0.45038  0.08933  0.28827  1.0000
  H   H3        1.0  0.04184  0.04954  0.22821  1.0000
  H   H4        1.0  0.45690  0.06044  0.34107  1.0000
  C   C2        1.0  0.44454  0.05521  0.31408  1.0000
  H   H5        1.0  0.41305  0.11678  0.06035  1.0000
  C   C3        1.0  0.43363  0.08274  0.25343  1.0000
  C   C4        1.0  0.02053  0.06192  0.24977  1.0000
  H   H6        1.0  0.39916  0.03695  0.21721  1.0000
  C   C5        1.0  0.41197  0.04180  0.24415  1.0000
  C   C6        1.0  0.47180  0.10055  0.02805  1.0000
  C   C7        1.0  0.43952  0.04970  0.07345  1.0000
  H   H7        1.0  0.47775  0.50390  0.06867  1.0000
  C   C8        1.0  0.43902  0.09144  0.05453  1.0000
  C   C9        1.0  0.02476  0.07638  0.02011  1.0000
  H   H8        1.0  0.05092  0.11552  0.06446  1.0000
  C   C10       1.0  0.03074  0.04958  0.28530  1.0000
  S   S1        1.0  0.47915  0.14014  0.29844  1.0000
  C   C11       1.0  0.02092  0.10032  0.05259  1.0000
  S   S2        1.0  0.07757  0.01323  0.29401  1.0000
  C   C12       1.0  0.47343  0.01716  0.06643  1.0000
  H   H9        1.0  0.01108  0.05674  0.34053  1.0000
  C   C13       1.0  0.42152  0.01486  0.30513  1.0000
  C   C14       1.0  0.40549  0.00800  0.27011  1.0000
  H   H10       1.0  0.03386  0.50101  0.02977  1.0000
  H   H11       1.0  0.07104  0.00765  0.07148  1.0000
  H   H12       1.0  0.14771  0.01292  0.04149  1.0000
  H   H13       1.0  0.23665  0.02311  0.49776  1.0000
  C   C15       1.0  0.13955  0.46336  0.64894  1.0000
  C   C16       1.0  0.11842  0.45719  0.61581  1.0000
  C   C17       1.0  0.02684  0.02386  0.67561  1.0000
  H   H14       1.0  0.16902  0.48542  0.65127  1.0000
  H   H15       1.0  0.16656  0.08568  0.64798  1.0000
  C   C18       1.0  0.02374  0.08277  0.47487  1.0000
  H   H16       1.0  0.05005  0.13134  0.58695  1.0000
  C   C19       1.0  0.38659  0.05434  0.48687  1.0000
  C   C20       1.0  0.46478  0.07771  0.49825  1.0000
  C   C21       1.0  0.46006  0.06318  0.53392  1.0000
  C   C22       1.0  0.42764  0.07392  0.47483  1.0000
  H   H17       1.0  0.43084  0.08517  0.44732  1.0000
  C   C23       1.0  0.11164  0.11192  0.61495  1.0000
  N   N1        1.0  0.05608  0.05447  0.65480  1.0000
  C   C24       1.0  0.41907  0.04393  0.54598  1.0000
  H   H18       1.0  0.04012  0.07960  0.44905  1.0000
  C   C25       1.0  0.13032  0.08460  0.64202  1.0000
  S   S3        1.0  0.32814  0.03210  0.64217  1.0000
  H   H19       1.0  0.41624  0.03222  0.57341  1.0000
  H   H20       1.0  0.35830  0.05062  0.46845  1.0000
  C   C26       1.0  0.06500  0.10991  0.60774  1.0000
  H   H21       1.0  0.47845  0.49444  0.50800  1.0000
  C   C27       1.0  0.10185  0.05586  0.66173  1.0000
  H   H22       1.0  0.48858  0.06611  0.55225  1.0000
  C   C28       1.0  0.07995  0.42961  0.61335  1.0000
  H   H23       1.0  0.13111  0.47459  0.59214  1.0000
  C   C29       1.0  0.03763  0.08047  0.62784  1.0000
  H   H24       1.0  0.03290  0.38751  0.64210  1.0000
  C   C30       1.0  0.38244  0.03863  0.52233  1.0000
  H   H25       1.0  0.13320  0.13472  0.59965  1.0000
  C   C31       1.0  0.01036  0.12616  0.48766  1.0000
  H   H26       1.0  0.01665  0.15619  0.47150  1.0000
  S   S4        1.0  0.50198  0.18139  0.40041  1.0000
  H   H27       1.0  0.06276  0.42551  0.58776  1.0000
  C   C32       1.0  0.06304  0.40858  0.64422  1.0000
  C   C33       1.0  0.01626  0.04376  0.49573  1.0000
  H   H28       1.0  0.50242  0.20883  0.48499  1.0000
  H   H29       1.0  0.00909  0.46868  0.51024  1.0000
  C   C34       1.0  0.12160  0.44204  0.67935  1.0000
  N   N2        1.0  0.08394  0.41484  0.67666  1.0000
  S   S5        1.0  0.33276  0.00930  0.53577  1.0000
  H   H30       1.0  0.20802  0.00635  0.45662  1.0000
  H   H31       1.0  0.05761  0.35678  0.70373  1.0000
  H   H32       1.0  0.45467  0.39189  0.93259  1.0000
  H   H33       1.0  0.41956  0.11765  0.70656  1.0000
  H   H34       1.0  0.04037  0.01913  0.70327  1.0000
  C   C35       1.0  0.40894  0.49469  0.90920  1.0000
  C   C36       1.0  0.33608  0.11087  0.80767  1.0000
  S   S6        1.0  0.09420  0.06063  0.89493  1.0000
  H   H35       1.0  0.30665  0.09649  0.82115  1.0000
  H   H36       1.0  0.41653  0.40696  0.81040  1.0000
  H   H37       1.0  0.13967  0.01668  0.74346  1.0000
  H   H38       1.0  0.49368  0.21949  0.80405  1.0000
  H   H39       1.0  0.06745  0.05258  0.81219  1.0000
  H   H40       1.0  0.36798  0.08631  0.70536  1.0000
  S   S7        1.0  0.21938  0.02118  0.85870  1.0000
  S   S8        1.0  0.46541  0.05932  0.85706  1.0000
  H   H41       1.0  0.08014  0.09904  0.75761  1.0000
  C   C37       1.0  0.45788  0.04774  0.81096  1.0000
  H   H42       1.0  0.42673  0.46457  0.96007  1.0000
  C   C38       1.0  0.17450  0.01878  0.79419  1.0000
  H   H43       1.0  0.45223  0.38256  0.86683  1.0000
  C   C39       1.0  0.04576  0.08998  0.76525  1.0000
  C   C40       1.0  0.48214  0.05291  0.74894  1.0000
  C   C41       1.0  0.25686  0.01463  0.79174  1.0000
  H   H44       1.0  0.13768  0.44801  0.70514  1.0000
  H   H45       1.0  0.36674  0.13629  0.85623  1.0000
  C   C42       1.0  0.44143  0.41929  0.91581  1.0000
  H   H46       1.0  0.44045  0.16116  0.75914  1.0000
  H   H47       1.0  0.45636  0.45378  0.80723  1.0000
  C   C43       1.0  0.36954  0.13349  0.82733  1.0000
  C   C44       1.0  0.40695  0.15216  0.80969  1.0000
  H   H48       1.0  0.08776  0.39565  0.73220  1.0000
  H   H49       1.0  0.38045  0.02337  0.00450  1.0000
  H   H50       1.0  0.00778  0.23495  0.86409  1.0000
  C   C45       1.0  0.42584  0.45990  0.93119  1.0000
  C   C46       1.0  0.48815  0.06431  0.78525  1.0000
  S   S9        1.0  0.07903  0.06979  0.99997  1.0000
  C   C47       1.0  0.41944  0.06427  0.94816  1.0000
  C   C48       1.0  0.03872  0.06354  0.79608  1.0000
  H   H51       1.0  0.43322  0.16953  0.82481  1.0000
  H   H52       1.0  0.40080  0.06065  0.92238  1.0000
  Fe  Fe1       1.0  0.15107  0.01025  0.88503  1.0000
  H   H53       1.0  0.39573  0.46427  0.80532  1.0000
  C   C49       1.0  0.38307  0.11898  0.71467  1.0000
  N   N3        1.0  0.42270  0.44836  0.85722  1.0000
  C   C50       1.0  0.01275  0.14680  0.92335  1.0000
  C   C51       1.0  0.41087  0.14715  0.77255  1.0000
  C   C52       1.0  0.06449  0.39356  0.70871  1.0000
  C   C53       1.0  0.49735  0.25238  0.79143  1.0000
  H   H54       1.0  0.39889  0.08538  0.96697  1.0000
  H   H55       1.0  0.03180  0.41071  0.71570  1.0000
  C   C54       1.0  0.40758  0.48835  0.87208  1.0000
  H   H56       1.0  0.45139  0.08338  0.94327  1.0000
  S   S10       1.0  0.48545  0.28984  0.85841  1.0000
  C   C55       1.0  0.34104  0.10655  0.77053  1.0000
  N   N4        1.0  0.37856  0.12378  0.75359  1.0000
  S   S11       1.0  0.45953  0.16915  0.90382  1.0000
  S   S12       1.0  0.47003  0.15325  0.00476  1.0000
  Fe  Fe2       1.0  0.08841  0.02796  0.94934  1.0000
  H   H57       1.0  0.31496  0.08892  0.75538  1.0000
  C   C56       1.0  0.42285  0.44302  0.81815  1.0000
  H   H58       1.0  0.02841  0.13695  0.94869  1.0000
  C   C57       1.0  0.49375  0.29230  0.81181  1.0000
  C   C58       1.0  0.17249  0.01612  0.75671  1.0000
  C   C59       1.0  0.44543  0.02561  0.73796  1.0000
  C   C60       1.0  0.43984  0.41417  0.87853  1.0000
  N   N5        1.0  0.43030  0.01916  0.96303  1.0000
  H   H59       1.0  0.36592  0.14796  0.70081  1.0000
  H   H60       1.0  0.14343  0.02185  0.80947  1.0000
  C   C61       1.0  0.00868  0.10476  0.74435  1.0000
  S   S13       1.0  0.43960  0.01235  0.69199  1.0000
  C   C62       1.0  0.21262  0.01241  0.73663  1.0000
  C   C63       1.0  0.21662  0.01815  0.81177  1.0000
  H   H61       1.0  0.04252  0.21398  0.92251  1.0000
  H   H62       1.0  0.28952  0.01364  0.80528  1.0000
  C   C64       1.0  0.02082  0.18988  0.90861  1.0000
  S   S14       1.0  0.01985  0.13578  0.70508  1.0000
  C   C65       1.0  0.25486  0.01166  0.75419  1.0000
  H   H63       1.0  0.28597  0.00891  0.73888  1.0000
  H   H64       1.0  0.49566  0.36587  0.81055  1.0000
  H   H65       1.0  0.48203  0.00627  0.92421  1.0000
  C   C66       1.0  0.42093  0.02071  0.79999  1.0000
  C   C67       1.0  0.49783  0.33488  0.79497  1.0000
  H   H66       1.0  0.11651  0.03505  0.68288  1.0000
  C   C68       1.0  0.41438  0.01008  0.76355  1.0000
  H   H67       1.0  0.39737  0.00779  0.81977  1.0000
  S   S15       1.0  0.20914  0.00780  0.68975  1.0000
  S   S16       1.0  0.08547  0.70613  0.19589  1.0000
  S   S17       1.0  0.06321  0.61653  0.14617  1.0000
  C   C69       1.0  0.47514  0.54724  0.24042  1.0000
  Fe  Fe3       1.0  0.10499  0.68094  0.14171  1.0000
  S   S18       1.0  0.17969  0.68467  0.12730  1.0000
  H   H68       1.0  0.23843  0.87122  0.32439  1.0000
  H   H69       1.0  0.26366  0.92082  0.20194  1.0000
  Fe  Fe4       1.0  0.33066  0.89402  0.13974  1.0000
  S   S19       1.0  0.39352  0.86645  0.11311  1.0000
  S   S20       1.0  0.25857  0.88568  0.11938  1.0000
  Fe  Fe5       1.0  0.38345  0.93291  0.20272  1.0000
  S   S21       1.0  0.45079  0.90941  0.18112  1.0000
  H   H70       1.0  0.11500  0.83508  0.19188  1.0000
  Fe  Fe6       1.0  0.42452  0.93429  0.12774  1.0000
  C   C70       1.0  0.14750  0.97493  0.04310  1.0000
  Fe  Fe7       1.0  0.41464  0.84424  0.16842  1.0000
  S   S22       1.0  0.44049  0.77421  0.18407  1.0000
  S   S23       1.0  0.35970  0.96387  0.15059  1.0000
  S   S24       1.0  0.34904  0.86593  0.19362  1.0000
  C   C71       1.0  0.23132  0.91466  0.21512  1.0000
  C   C72       1.0  0.47511  0.77314  0.30361  1.0000
  C   C73       1.0  0.45702  0.73409  0.28742  1.0000
  C   C74       1.0  0.44699  0.73411  0.25055  1.0000
  C   C75       1.0  0.45441  0.77341  0.22992  1.0000
  H   H71       1.0  0.38105  0.78040  0.32917  1.0000
  C   C76       1.0  0.47333  0.81198  0.24604  1.0000
  H   H72       1.0  0.15657  0.96429  0.27267  1.0000
  H   H73       1.0  0.03730  0.67326  0.31767  1.0000
  C   C77       1.0  0.14727  0.89915  0.24649  1.0000
  H   H74       1.0  0.43250  0.60748  0.23950  1.0000
  C   C78       1.0  0.44570  0.58511  0.29364  1.0000
  C   C79       1.0  0.46668  0.55212  0.31537  1.0000
  C   C80       1.0  0.47477  0.62384  0.09305  1.0000
  H   H75       1.0  0.42555  0.61203  0.30557  1.0000
  C   C81       1.0  0.42643  0.66344  0.13711  1.0000
  H   H76       1.0  0.28442  0.75175  0.04108  1.0000
  H   H77       1.0  0.11412  0.89387  0.25853  1.0000
  C   C82       1.0  0.39547  0.86908  0.31845  1.0000
  C   C83       1.0  0.20149  0.74057  0.12470  1.0000
  C   C84       1.0  0.17226  0.77827  0.12116  1.0000
  C   C85       1.0  0.19020  0.82252  0.11839  1.0000
  C   C86       1.0  0.23742  0.82948  0.12011  1.0000
  C   C87       1.0  0.26672  0.79186  0.12396  1.0000
  C   C88       1.0  0.24879  0.74745  0.12570  1.0000
  H   H78       1.0  0.13579  0.77339  0.12037  1.0000
  H   H79       1.0  0.16734  0.85149  0.11570  1.0000
  H   H80       1.0  0.30319  0.79696  0.12556  1.0000
  H   H81       1.0  0.27156  0.71842  0.12850  1.0000
  C   C89       1.0  0.01316  0.92544  0.02686  1.0000
  C   C90       1.0  0.38019  0.58330  0.15190  1.0000
  C   C91       1.0  0.49268  0.51723  0.29956  1.0000
  H   H82       1.0  0.16140  0.79814  0.20526  1.0000
  N   N6        1.0  0.43837  0.62387  0.11992  1.0000
  C   C92       1.0  0.19795  0.69773  0.03770  1.0000
  C   C93       1.0  0.49725  0.51498  0.26213  1.0000
  C   C94       1.0  0.34978  0.80037  0.32776  1.0000
  C   C95       1.0  0.48427  0.81160  0.28261  1.0000
  H   H83       1.0  0.44418  0.69511  0.13162  1.0000
  C   C96       1.0  0.12549  0.73461  0.02632  1.0000
  H   H84       1.0  0.31327  0.90849  0.31602  1.0000
  H   H85       1.0  0.36315  0.55143  0.15800  1.0000
  H   H86       1.0  0.08860  0.73535  0.02866  1.0000
  H   H87       1.0  0.13317  0.67085  0.05487  1.0000
  C   C97       1.0  0.30793  0.77822  0.33157  1.0000
  H   H88       1.0  0.45177  0.70347  0.30294  1.0000
  S   S25       1.0  0.05113  0.72154  0.11279  1.0000
  C   C98       1.0  0.44947  0.58234  0.25622  1.0000
  N   N7        1.0  0.16541  0.86740  0.22364  1.0000
  C   C99       1.0  0.02533  0.85811  0.25134  1.0000
  S   S26       1.0  0.47892  0.54486  0.19352  1.0000
  H   H89       1.0  0.38217  0.69508  0.17616  1.0000
  H   H90       1.0  0.28381  0.69669  0.01909  1.0000
  C   C100      1.0  0.13900  0.82677  0.21412  1.0000
  H   H91       1.0  0.00793  0.74815  0.30742  1.0000
  H   H92       1.0  0.49708  0.59324  0.09641  1.0000
  N   N8        1.0  0.10120  0.95777  0.03719  1.0000
  H   H93       1.0  0.02769  0.56800  0.07028  1.0000
  Fe  Fe8       1.0  0.03826  0.64637  0.19824  1.0000
  C   C101      1.0  0.42558  0.52917  0.03281  1.0000
  H   H94       1.0  0.49697  0.65429  0.09547  1.0000
  H   H95       1.0  0.48035  0.84197  0.23022  1.0000
  C   C102      1.0  0.01123  0.77689  0.25433  1.0000
  C   C103      1.0  0.41537  0.58428  0.12667  1.0000
  Fe  Fe9       1.0  0.00745  0.65921  0.12084  1.0000
  C   C104      1.0  0.21337  0.94691  0.23872  1.0000
  H   H96       1.0  0.43318  0.70379  0.23815  1.0000
  H   H97       1.0  0.23194  0.97807  0.24439  1.0000
  N   N9        1.0  0.35134  0.84667  0.32285  1.0000
  H   H98       1.0  0.22117  0.84999  0.18963  1.0000
  S   S27       1.0  0.47658  0.96452  0.08961  1.0000
  C   C105      1.0  0.20687  0.87479  0.20798  1.0000
  H   H99       1.0  0.34123  0.62286  0.18975  1.0000
  C   C106      1.0  0.39124  0.66371  0.16238  1.0000
  S   S28       1.0  0.37640  0.95751  0.25962  1.0000
  H   H100      1.0  0.11884  0.81419  0.23730  1.0000
  Fe  Fe10      1.0  0.02849  0.74223  0.16794  1.0000
  H   H101      1.0  0.42508  0.55282  0.11334  1.0000
  C   C107      1.0  0.26761  0.80376  0.33013  1.0000
  C   C108      1.0  0.36818  0.62329  0.16989  1.0000
  S   S29       1.0  0.11866  0.91170  0.34434  1.0000
  C   C109      1.0  0.17110  0.93914  0.25459  1.0000
  H   H102      1.0  0.40012  0.94787  0.03034  1.0000
  H   H103      1.0  0.45973  0.62316  0.06566  1.0000
  C   C110      1.0  0.06542  0.97813  0.05451  1.0000
  H   H104      1.0  0.42216  0.85230  0.33520  1.0000
  C   C111      1.0  0.26951  0.85089  0.32460  1.0000
  H   H105      1.0  0.17165  0.96228  0.02242  1.0000
  C   C112      1.0  0.31195  0.87186  0.32057  1.0000
  H   H106      1.0  0.49572  0.98684  0.22331  1.0000
  C   C113      1.0  0.01733  0.81655  0.23396  1.0000
  H   H107      1.0  0.49907  0.84162  0.29478  1.0000
  H   H108      1.0  0.06998  0.62614  0.33451  1.0000
  C   C114      1.0  0.02088  0.96246  0.04951  1.0000
  H   H109      1.0  0.21702  0.66983  0.04991  1.0000
  H   H110      1.0  0.30682  0.74167  0.33661  1.0000
  C   C115      1.0  0.02222  0.82010  0.30931  1.0000
  H   H111      1.0  0.03467  0.89202  0.30212  1.0000
  C   C116      1.0  0.02806  0.85989  0.28894  1.0000
  S   S30       1.0  0.03106  0.61820  0.25425  1.0000
  H   H112      1.0  0.03053  0.88864  0.23559  1.0000
  H   H113      1.0  0.39788  0.51574  0.04870  1.0000
  C   C117      1.0  0.47086  0.52237  0.04416  1.0000
  H   H114      1.0  0.41625  0.98896  0.32534  1.0000
  C   C118      1.0  0.15039  0.69816  0.04067  1.0000
  H   H115      1.0  0.23503  0.78716  0.33417  1.0000
  H   H116      1.0  0.16018  0.96393  0.06988  1.0000
  H   H117      1.0  0.40576  0.86769  0.28984  1.0000
  C   C119      1.0  0.26995  0.73213  0.01831  1.0000
  S   S31       1.0  0.01687  0.81439  0.18683  1.0000
  C   C120      1.0  0.05378  0.65915  0.34218  1.0000
  C   C121      1.0  0.01314  0.77881  0.29190  1.0000
  N   N10       1.0  0.22004  0.73244  0.02049  1.0000
  H   H118      1.0  0.39379  0.90550  0.32658  1.0000
  C   C122      1.0  0.09403  0.92096  0.01537  1.0000
  H   H119      1.0  0.00802  0.53452  0.21624  1.0000
  Fe  Fe11      1.0  0.06054  0.57184  0.61290  1.0000
  S   S32       1.0  0.02485  0.63817  0.62362  1.0000
  C   C123      1.0  0.49510  0.60674  0.52766  1.0000
  C   C124      1.0  0.22747  0.92937  0.52174  1.0000
  S   S33       1.0  0.12117  0.99925  0.39879  1.0000
  Fe  Fe12      1.0  0.09313  0.66411  0.64240  1.0000
  S   S34       1.0  0.11442  0.73726  0.63060  1.0000
  Fe  Fe13      1.0  0.27420  0.98533  0.66326  1.0000
  S   S35       1.0  0.12996  0.59955  0.62707  1.0000
  C   C125      1.0  0.15721  0.89395  0.54032  1.0000
  N   N11       1.0  0.20360  0.95893  0.50018  1.0000
  H   H120      1.0  0.00942  0.72556  0.37593  1.0000
  Fe  Fe14      1.0  0.15034  0.92786  0.39727  1.0000
  S   S36       1.0  0.22499  0.91390  0.40931  1.0000
  S   S37       1.0  0.09371  0.89665  0.42878  1.0000
  Fe  Fe15      1.0  0.36534  0.68864  0.41480  1.0000
  S   S38       1.0  0.41969  0.73455  0.43624  1.0000
  S   S39       1.0  0.29053  0.70698  0.42048  1.0000
  H   H121      1.0  0.13908  0.86853  0.55592  1.0000
  H   H122      1.0  0.20524  0.69517  0.62690  1.0000
  Fe  Fe16      1.0  0.45343  0.66962  0.45550  1.0000
  C   C126      1.0  0.15697  0.95743  0.49888  1.0000
  Fe  Fe17      1.0  0.45402  0.72063  0.38354  1.0000
  H   H123      1.0  0.37647  0.76327  0.58854  1.0000
  S   S40       1.0  0.39657  0.62426  0.43779  1.0000
  Fe  Fe18      1.0  0.32157  0.89934  0.63885  1.0000
  S   S41       1.0  0.38173  0.93797  0.61690  1.0000
  S   S42       1.0  0.03372  0.98844  0.48187  1.0000
  Fe  Fe19      1.0  0.43551  0.61972  0.38606  1.0000
  S   S43       1.0  0.27019  0.94501  0.61239  1.0000
  S   S44       1.0  0.48624  0.77545  0.34993  1.0000
  H   H124      1.0  0.22370  0.87296  0.55916  1.0000
  C   C127      1.0  0.48955  0.52415  0.52277  1.0000
  Fe  Fe20      1.0  0.32993  0.98644  0.59392  1.0000
  C   C128      1.0  0.48030  0.56808  0.50911  1.0000
  C   C129      1.0  0.20910  0.73168  0.62981  1.0000
  H   H125      1.0  0.28277  0.72944  0.62895  1.0000
  C   C130      1.0  0.24261  0.85638  0.41367  1.0000
  C   C131      1.0  0.28924  0.84613  0.41736  1.0000
  C   C132      1.0  0.30439  0.80049  0.41950  1.0000
  C   C133      1.0  0.27293  0.76477  0.41830  1.0000
  C   C134      1.0  0.22625  0.77510  0.41536  1.0000
  C   C135      1.0  0.21113  0.82071  0.41278  1.0000
  C   C136      1.0  0.25825  0.79878  0.63367  1.0000
  H   H126      1.0  0.34038  0.79304  0.42179  1.0000
  H   H127      1.0  0.20168  0.74768  0.41453  1.0000
  H   H128      1.0  0.17511  0.82820  0.40993  1.0000
  C   C137      1.0  0.17031  0.75962  0.63209  1.0000
  C   C138      1.0  0.17574  0.80711  0.63485  1.0000
  C   C139      1.0  0.21943  0.82660  0.63587  1.0000
  C   C140      1.0  0.45099  0.93714  0.52602  1.0000
  Fe  Fe21      1.0  0.06201  0.96712  0.42760  1.0000
  H   H129      1.0  0.31377  0.87356  0.41799  1.0000
  H   H130      1.0  0.14588  0.82893  0.63651  1.0000
  H   H131      1.0  0.22295  0.86315  0.63845  1.0000
  H   H132      1.0  0.42021  0.69616  0.56543  1.0000
  S   S45       1.0  0.49414  0.66162  0.40529  1.0000
  H   H133      1.0  0.46202  0.57192  0.48410  1.0000
  N   N12       1.0  0.30171  0.72636  0.52580  1.0000
  C   C141      1.0  0.32548  0.68951  0.51293  1.0000
  C   C142      1.0  0.31982  0.75283  0.55237  1.0000
  C   C143      1.0  0.36821  0.67797  0.52723  1.0000
  C   C144      1.0  0.36250  0.74233  0.56720  1.0000
  C   C145      1.0  0.38683  0.70464  0.55445  1.0000
  C   C146      1.0  0.25678  0.73835  0.51105  1.0000
  H   H134      1.0  0.31158  0.66882  0.49145  1.0000
  H   H135      1.0  0.30116  0.78221  0.56242  1.0000
  H   H136      1.0  0.38706  0.64868  0.51717  1.0000
  Fe  Fe22      1.0  0.05927  0.88623  0.37567  1.0000
  H   H137      1.0  0.23127  0.74126  0.53294  1.0000
  H   H138      1.0  0.25874  0.77131  0.49633  1.0000
  H   H139      1.0  0.24432  0.71217  0.49185  1.0000
  S   S46       1.0  0.48558  0.66233  0.51042  1.0000
  S   S47       1.0  0.02170  0.95306  0.37723  1.0000
  H   H140      1.0  0.38985  0.93797  0.47296  1.0000
  S   S48       1.0  0.04699  0.52411  0.56625  1.0000
  Fe  Fe23      1.0  0.37662  0.98113  0.66684  1.0000
  C   C147      1.0  0.42827  0.96796  0.43009  1.0000
  H   H141      1.0  0.02239  0.58063  0.36986  1.0000
  H   H142      1.0  0.26435  0.93161  0.52355  1.0000
  S   S49       1.0  0.39755  0.67852  0.36085  1.0000
  H   H143      1.0  0.41484  0.94077  0.53462  1.0000
  C   C148      1.0  0.42262  0.95175  0.46513  1.0000
  H   H144      1.0  0.26054  0.97965  0.46899  1.0000
  C   C149      1.0  0.25292  0.75122  0.63068  1.0000
  C   C150      1.0  0.20470  0.89627  0.54198  1.0000
  S   S50       1.0  0.31367  0.82250  0.63317  1.0000
  H   H145      1.0  0.46111  0.90056  0.52729  1.0000
  H   H146      1.0  0.40024  0.96673  0.41108  1.0000
  N   N13       1.0  0.45735  0.95481  0.48958  1.0000
  H   H147      1.0  0.13780  0.98145  0.48243  1.0000
  C   C151      1.0  0.13313  0.92480  0.51874  1.0000
  N   N14       1.0  0.01969  0.65362  0.37051  1.0000
  S   S51       1.0  0.46120  0.55384  0.36227  1.0000
  H   H148      1.0  0.09613  0.92360  0.51733  1.0000
  C   C152      1.0  0.46990  0.98693  0.42010  1.0000
  C   C153      1.0  0.00710  0.61091  0.38167  1.0000
  C   C154      1.0  0.22825  0.99392  0.47997  1.0000
  H   H149      1.0  0.02445  0.99017  0.66219  1.0000
  H   H150      1.0  0.47454  0.00054  0.39328  1.0000
  S   S52       1.0  0.02716  0.82111  0.35638  1.0000
  S   S53       1.0  0.04798  0.54293  0.66780  1.0000
  H   H151      1.0  0.47165  0.95669  0.54571  1.0000
  Fe  Fe24      1.0  0.01656  0.61097  0.67955  1.0000
  H   H152      1.0  0.08106  0.68284  0.35094  1.0000
  C   C155      1.0  0.49850  0.97273  0.47984  1.0000
  H   H153      1.0  0.23551  0.64296  0.67646  1.0000
  Fe  Fe25      1.0  0.08319  0.97961  0.34840  1.0000
  Fe  Fe26      1.0  0.04845  0.00363  0.87739  1.0000
  C   C156      1.0  0.46385  0.99340  0.94744  1.0000
  H   H154      1.0  0.39683  0.52638  0.92090  1.0000
  S   S54       1.0  0.08095  0.64321  0.69953  1.0000
  S   S55       1.0  0.10558  0.95596  0.86277  1.0000
  Fe  Fe27      1.0  0.10211  0.93162  0.91958  1.0000
  S   S56       1.0  0.11019  0.85650  0.93240  1.0000
  C   C157      1.0  0.19597  0.76875  0.00691  1.0000
  Fe  Fe28      1.0  0.24587  0.60697  0.89369  1.0000
  S   S57       1.0  0.27839  0.65692  0.85664  1.0000
  S   S58       1.0  0.17273  0.59065  0.88027  1.0000
  Fe  Fe29      1.0  0.33338  0.59635  0.93786  1.0000
  S   S59       1.0  0.37264  0.64510  0.90305  1.0000
  C   C158      1.0  0.20548  0.55000  0.81940  1.0000
  Fe  Fe30      1.0  0.30827  0.68809  0.90576  1.0000
  S   S60       1.0  0.30539  0.76472  0.91382  1.0000
  Fe  Fe31      1.0  0.33837  0.60889  0.85695  1.0000
  S   S61       1.0  0.35883  0.58449  0.80154  1.0000
  S   S62       1.0  0.27131  0.64164  0.94338  1.0000
  S   S63       1.0  0.30379  0.55695  0.89166  1.0000
  S   S64       1.0  0.32219  0.93717  0.69135  1.0000
  C   C159      1.0  0.04994  0.90436  0.00977  1.0000
  H   H155      1.0  0.07616  0.53183  0.86133  1.0000
  C   C160      1.0  0.41351  0.56455  0.78929  1.0000
  C   C161      1.0  0.29285  0.59856  0.72076  1.0000
  H   H156      1.0  0.44786  0.58714  0.83709  1.0000
  H   H157      1.0  0.23196  0.51996  0.77105  1.0000
  H   H158      1.0  0.28367  0.86857  0.85008  1.0000
  N   N15       1.0  0.25466  0.62854  0.73053  1.0000
  H   H159      1.0  0.14694  0.88904  0.73814  1.0000
  C   C162      1.0  0.04441  0.54285  0.87351  1.0000
  H   H160      1.0  0.44481  0.58807  0.95574  1.0000
  C   C163      1.0  0.49431  0.55297  0.80088  1.0000
  C   C164      1.0  0.08192  0.54084  0.93249  1.0000
  C   C165      1.0  0.41585  0.55283  0.00092  1.0000
  S   S65       1.0  0.16827  0.54175  0.71540  1.0000
  C   C166      1.0  0.16425  0.83177  0.92429  1.0000
  C   C167      1.0  0.16814  0.78429  0.91996  1.0000
  C   C168      1.0  0.21120  0.76346  0.91591  1.0000
  C   C169      1.0  0.25072  0.78998  0.91660  1.0000
  C   C170      1.0  0.24679  0.83750  0.92067  1.0000
  C   C171      1.0  0.20371  0.85840  0.92418  1.0000
  H   H161      1.0  0.13779  0.76343  0.92001  1.0000
  H   H162      1.0  0.21380  0.72679  0.91274  1.0000
  H   H163      1.0  0.27726  0.85813  0.92158  1.0000
  H   H164      1.0  0.20122  0.89495  0.92778  1.0000
  C   C172      1.0  0.22867  0.64917  0.70454  1.0000
  H   H165      1.0  0.12468  0.88219  0.80230  1.0000
  C   C173      1.0  0.16675  0.55227  0.76174  1.0000
  C   C174      1.0  0.13022  0.57572  0.77750  1.0000
  C   C175      1.0  0.13152  0.58653  0.81417  1.0000
  C   C176      1.0  0.16949  0.57423  0.83506  1.0000
  H   H166      1.0  0.32558  0.61715  0.72383  1.0000
  S   S66       1.0  0.03965  0.97354  0.93238  1.0000
  H   H167      1.0  0.39409  0.51557  0.85530  1.0000
  H   H168      1.0  0.10377  0.60567  0.82607  1.0000
  H   H169      1.0  0.38954  0.53819  0.73876  1.0000
  H   H170      1.0  0.30234  0.92286  0.83203  1.0000
  H   H171      1.0  0.23472  0.54008  0.83535  1.0000
  H   H172      1.0  0.07206  0.52304  0.95768  1.0000
  S   S67       1.0  0.15045  0.98338  0.94140  1.0000
  C   C177      1.0  0.27230  0.90312  0.84122  1.0000
  C   C178      1.0  0.17257  0.89115  0.75910  1.0000
  H   H173      1.0  0.29396  0.56814  0.73867  1.0000
  H   H174      1.0  0.18359  0.88841  0.84961  1.0000
  C   C179      1.0  0.20380  0.53846  0.78297  1.0000
  C   C180      1.0  0.46149  0.52531  0.74556  1.0000
  C   C181      1.0  0.49952  0.53084  0.76775  1.0000
  H   H175      1.0  0.46212  0.90148  0.00337  1.0000
  H   H176      1.0  0.10118  0.58592  0.76144  1.0000
  Fe  Fe32      1.0  0.11347  0.57701  0.68313  1.0000
  C   C182      1.0  0.45142  0.56970  0.81170  1.0000
  C   C183      1.0  0.41752  0.96001  0.00654  1.0000
  H   H177      1.0  0.25800  0.92195  0.86456  1.0000
  H   H178      1.0  0.17124  0.69375  0.69329  1.0000
  H   H179      1.0  0.15358  0.70643  0.75748  1.0000
  H   H180      1.0  0.09831  0.57394  0.93900  1.0000
  H   H181      1.0  0.22820  0.90100  0.72232  1.0000
  C   C184      1.0  0.18246  0.68524  0.74993  1.0000
  H   H182      1.0  0.00838  0.54605  0.82291  1.0000
  C   C185      1.0  0.20962  0.66471  0.77620  1.0000
  H   H183      1.0  0.28612  0.90694  0.77041  1.0000
  C   C186      1.0  0.19226  0.67788  0.71386  1.0000
  C   C187      1.0  0.24615  0.63674  0.76592  1.0000
  S   S68       1.0  0.35826  0.55915  0.98769  1.0000
  C   C188      1.0  0.45186  0.56962  0.98031  1.0000
  C   C189      1.0  0.14835  0.77021  0.00932  1.0000
  H   H184      1.0  0.12231  0.90461  0.00166  1.0000
  C   C190      1.0  0.49729  0.56241  0.99154  1.0000
  N   N16       1.0  0.23800  0.89905  0.81277  1.0000
  C   C191      1.0  0.19351  0.89124  0.82170  1.0000
  C   C192      1.0  0.25077  0.90132  0.77756  1.0000
  C   C193      1.0  0.16008  0.88747  0.79504  1.0000
  C   C194      1.0  0.21822  0.89775  0.75021  1.0000
  H   H185      1.0  0.38601  0.98905  0.75538  1.0000
  H   H186      1.0  0.20185  0.66952  0.80437  1.0000
  C   C195      1.0  0.41871  0.54232  0.75624  1.0000
  H   H187      1.0  0.26686  0.62026  0.78635  1.0000
  N   N17       1.0  0.04175  0.54880  0.90981  1.0000
  C   C196      1.0  0.40674  0.00279  0.99189  1.0000
  H   H188      1.0  0.12934  0.79862  0.99784  1.0000
  H   H189      1.0  0.46514  0.50848  0.71995  1.0000
  H   H190      1.0  0.28958  0.58576  0.69290  1.0000
  H   H191      1.0  0.10771  0.51900  0.91886  1.0000
  C   C197      1.0  0.45256  0.93404  0.99147  1.0000
  C   C198      1.0  0.47568  0.95058  0.96153  1.0000
  H   H192      1.0  0.28159  0.74751  0.99261  1.0000
  H   H193      1.0  0.04431  0.87586  0.99173  1.0000
  H   H194      1.0  0.21356  0.79662  0.99377  1.0000
  C   C199      1.0  0.00625  0.55087  0.85167  1.0000
  H   H195      1.0  0.50292  0.93064  0.94953  1.0000
  Fe  Fe33      1.0  0.87704  0.14773  0.20606  1.0000
  S   S69       1.0  0.84542  0.08822  0.17758  1.0000
  S   S70       1.0  0.90813  0.14235  0.26138  1.0000
  Fe  Fe34      1.0  0.83399  0.21770  0.15522  1.0000
  S   S71       1.0  0.79962  0.16390  0.12274  1.0000
  S   S72       1.0  0.82165  0.29276  0.14517  1.0000
  Fe  Fe35      1.0  0.78255  0.13214  0.17559  1.0000
  S   S73       1.0  0.71092  0.11232  0.18944  1.0000
  Fe  Fe36      1.0  0.86619  0.12537  0.12708  1.0000
  S   S74       1.0  0.88562  0.08749  0.07608  1.0000
  S   S75       1.0  0.81224  0.18875  0.20768  1.0000
  S   S76       1.0  0.90255  0.18234  0.15590  1.0000
  H   H196      1.0  0.57989  0.36317  0.07011  1.0000
  H   H197      1.0  0.97493  0.09927  0.21452  1.0000
  Fe  Fe37      1.0  0.59809  0.42785  0.14515  1.0000
  S   S77       1.0  0.61301  0.35196  0.14874  1.0000
  C   C200      1.0  0.88531  0.30473  0.22815  1.0000
  C   C201      1.0  0.60849  0.37711  0.05533  1.0000
  C   C202      1.0  0.00330  0.06589  0.31307  1.0000
  H   H198      1.0  0.87635  0.26671  0.03656  1.0000
  H   H199      1.0  0.88389  0.40526  0.22325  1.0000
  H   H200      1.0  0.60786  0.31202  0.27809  1.0000
  C   C203      1.0  0.60260  0.41546  0.03353  1.0000
  C   C204      1.0  0.76368  0.30898  0.14750  1.0000
  C   C205      1.0  0.75172  0.35543  0.14765  1.0000
  C   C206      1.0  0.70566  0.36896  0.14903  1.0000
  C   C207      1.0  0.67121  0.33611  0.14966  1.0000
  C   C208      1.0  0.68320  0.28965  0.14945  1.0000
  C   C209      1.0  0.72927  0.27611  0.14870  1.0000
  H   H201      1.0  0.77809  0.38109  0.14685  1.0000
  H   H202      1.0  0.69694  0.40485  0.14971  1.0000
  H   H203      1.0  0.65677  0.26400  0.14963  1.0000
  H   H204      1.0  0.73805  0.24018  0.14860  1.0000
  C   C210      1.0  0.70370  0.10514  0.23577  1.0000
  C   C211      1.0  0.74144  0.09985  0.25849  1.0000
  C   C212      1.0  0.73510  0.09555  0.29564  1.0000
  H   H205      1.0  0.72822  0.19361  0.27018  1.0000
  C   C213      1.0  0.65340  0.10235  0.28741  1.0000
  C   C214      1.0  0.65974  0.10610  0.25026  1.0000
  H   H206      1.0  0.77547  0.09916  0.24739  1.0000
  C   C215      1.0  0.98270  0.09003  0.24197  1.0000
  H   H207      1.0  0.85242  0.03333  0.34259  1.0000
  H   H208      1.0  0.81783  0.13273  0.03421  1.0000
  H   H209      1.0  0.54118  0.09640  0.24701  1.0000
  H   H210      1.0  0.63068  0.11038  0.23271  1.0000
  S   S78       1.0  0.89911  0.45614  0.29428  1.0000
  H   H211      1.0  0.52015  0.02019  0.25830  1.0000
  H   H212      1.0  0.97601  0.12276  0.09515  1.0000
  H   H213      1.0  0.84212  0.05678  0.27898  1.0000
  C   C216      1.0  0.93963  0.08460  0.05510  1.0000
  H   H214      1.0  0.63306  0.28423  0.21838  1.0000
  S   S79       1.0  0.64313  0.47229  0.11168  1.0000
  C   C217      1.0  0.87719  0.30177  0.30213  1.0000
  S   S80       1.0  0.53286  0.45895  0.12362  1.0000
  H   H215      1.0  0.94546  0.10798  0.32701  1.0000
  H   H216      1.0  0.75451  0.35750  0.02242  1.0000
  C   C218      1.0  0.53606  0.09096  0.21851  1.0000
  N   N18       1.0  0.86720  0.34130  0.24607  1.0000
  H   H217      1.0  0.69320  0.22367  0.21471  1.0000
  C   C219      1.0  0.96624  0.09497  0.30536  1.0000
  H   H218      1.0  0.51901  0.07280  0.11704  1.0000
  H   H219      1.0  0.84053  0.37365  0.19908  1.0000
  C   C220      1.0  0.85392  0.38250  0.22611  1.0000
  H   H220      1.0  0.82663  0.40180  0.24029  1.0000
  C   C221      1.0  0.97851  0.10449  0.07005  1.0000
  N   N19       1.0  0.68853  0.37589  0.04153  1.0000
  C   C222      1.0  0.81730  0.16807  0.02533  1.0000
  H   H221      1.0  0.54486  0.16233  0.20594  1.0000
  C   C223      1.0  0.85107  0.19770  0.03781  1.0000
  C   C224      1.0  0.89916  0.26549  0.24679  1.0000
  Fe  Fe38      1.0  0.86023  0.46588  0.34583  1.0000
  H   H222      1.0  0.89205  0.02410  0.23239  1.0000
  C   C225      1.0  0.70882  0.21743  0.33784  1.0000
  H   H223      1.0  0.87429  0.30134  0.33113  1.0000
  H   H224      1.0  0.90545  0.23354  0.29860  1.0000
  H   H225      1.0  0.88915  0.30576  0.19926  1.0000
  H   H226      1.0  0.75228  0.37767  0.06821  1.0000
  H   H227      1.0  0.76430  0.09164  0.31319  1.0000
  C   C226      1.0  0.65195  0.35769  0.05907  1.0000
  C   C227      1.0  0.53202  0.12201  0.15863  1.0000
  C   C228      1.0  0.95571  0.10692  0.26983  1.0000
  H   H228      1.0  0.53384  0.15078  0.14029  1.0000
  S   S81       1.0  0.59919  0.47252  0.19396  1.0000
  C   C229      1.0  0.85041  0.24337  0.02696  1.0000
  N   N20       1.0  0.68750  0.23485  0.30490  1.0000
  C   C230      1.0  0.70170  0.21942  0.27214  1.0000
  C   C231      1.0  0.65433  0.26780  0.30720  1.0000
  C   C232      1.0  0.68213  0.23655  0.24057  1.0000
  C   C233      1.0  0.63423  0.28595  0.27616  1.0000
  C   C234      1.0  0.64831  0.27023  0.24265  1.0000
  H   H229      1.0  0.65620  0.32838  0.07660  1.0000
  H   H230      1.0  0.95616  0.47092  0.23276  1.0000
  C   C235      1.0  0.94348  0.06102  0.02247  1.0000
  C   C236      1.0  0.73436  0.35703  0.04761  1.0000
  C   C237      1.0  0.86375  0.34051  0.28263  1.0000
  H   H231      1.0  0.91328  0.23641  0.23253  1.0000
  C   C238      1.0  0.89481  0.26395  0.28398  1.0000
  C   C239      1.0  0.69109  0.09718  0.31018  1.0000
  H   H232      1.0  0.85082  0.37007  0.29694  1.0000
  N   N21       1.0  0.52682  0.04829  0.20555  1.0000
  H   H233      1.0  0.73041  0.18676  0.33281  1.0000
  H   H234      1.0  0.61933  0.10304  0.29837  1.0000
  C   C240      1.0  0.86790  0.03160  0.28622  1.0000
  C   C241      1.0  0.52091  0.04153  0.16955  1.0000
  C   C242      1.0  0.87393  0.01865  0.32192  1.0000
  C   C243      1.0  0.52349  0.07826  0.14558  1.0000
  C   C244      1.0  0.53831  0.12849  0.19535  1.0000
  H   H235      1.0  0.64305  0.28007  0.33318  1.0000
  H   H236      1.0  0.56925  0.43149  0.03099  1.0000
  H   H237      1.0  0.87745  0.18522  0.05593  1.0000
  H   H238      1.0  0.73310  0.32110  0.05727  1.0000
  H   H239      1.0  0.51698  0.48773  0.25008  1.0000
  S   S82       1.0  0.58613  0.17921  0.34293  1.0000
  C   C245      1.0  0.89643  0.01307  0.25994  1.0000
  S   S83       1.0  0.79210  0.43178  0.34763  1.0000
  C   C246      1.0  0.68309  0.41352  0.02007  1.0000
  C   C247      1.0  0.50639  0.02648  0.04021  1.0000
  C   C248      1.0  0.93520  0.50147  0.28265  1.0000
  C   C249      1.0  0.64007  0.43390  0.01577  1.0000
  C   C250      1.0  0.95937  0.50014  0.25026  1.0000
  H   H240      1.0  0.50898  0.49161  0.31627  1.0000
  C   C251      1.0  0.52505  0.00913  0.23006  1.0000
  H   H241      1.0  0.51417  0.00761  0.15909  1.0000
  C   C252      1.0  0.50535  0.06775  0.02086  1.0000
  S   S84       1.0  0.88213  0.44065  0.40030  1.0000
  C   C253      1.0  0.70903  0.31466  0.65604  1.0000
  Fe  Fe39      1.0  0.81093  0.41244  0.40372  1.0000
  S   S85       1.0  0.79586  0.34121  0.42353  1.0000
  N   N22       1.0  0.53097  0.26180  0.51652  1.0000
  Fe  Fe40      1.0  0.94921  0.27294  0.65387  1.0000
  Fe  Fe41      1.0  0.95319  0.19939  0.59466  1.0000
  S   S86       1.0  0.91974  0.14720  0.62975  1.0000
  C   C254      1.0  0.98106  0.09179  0.54174  1.0000
  Fe  Fe42      1.0  0.87319  0.20551  0.64593  1.0000
  H   H242      1.0  0.96369  0.09480  0.56708  1.0000
  S   S87       1.0  0.71731  0.40792  0.66650  1.0000
  S   S88       1.0  0.90341  0.25579  0.60769  1.0000
  C   C255      1.0  0.80336  0.29934  0.65967  1.0000
  H   H243      1.0  0.94308  0.47978  0.46902  1.0000
  S   S89       1.0  0.59295  0.38106  0.62998  1.0000
  H   H244      1.0  0.86063  0.28546  0.47492  1.0000
  S   S90       1.0  0.51877  0.09703  0.48390  1.0000
  Fe  Fe43      1.0  0.55091  0.37012  0.67911  1.0000
  Fe  Fe44      1.0  0.57234  0.21109  0.39606  1.0000
  S   S91       1.0  0.60626  0.15523  0.42713  1.0000
  S   S92       1.0  0.58836  0.28543  0.40550  1.0000
  H   H245      1.0  0.00137  0.07939  0.62249  1.0000
  S   S93       1.0  0.54968  0.08181  0.37791  1.0000
  Fe  Fe45      1.0  0.53696  0.12260  0.42829  1.0000
  H   H246      1.0  0.68232  0.20681  0.35734  1.0000
  Fe  Fe46      1.0  0.61522  0.12080  0.37412  1.0000
  C   C256      1.0  0.65262  0.45961  0.45470  1.0000
  H   H247      1.0  0.53757  0.31074  0.47429  1.0000
  C   C257      1.0  0.51696  0.33620  0.56151  1.0000
  H   H248      1.0  0.88427  0.21078  0.50081  1.0000
  H   H249      1.0  0.51026  0.28641  0.60378  1.0000
  S   S94       1.0  0.68389  0.09452  0.35688  1.0000
  S   S95       1.0  0.78050  0.47546  0.42831  1.0000
  H   H250      1.0  0.51133  0.36528  0.57901  1.0000
  C   C258      1.0  0.53171  0.30519  0.50272  1.0000
  C   C259      1.0  0.78550  0.34372  0.66346  1.0000
  C   C260      1.0  0.73832  0.35159  0.66167  1.0000
  S   S96       1.0  0.52805  0.46259  0.56939  1.0000
  C   C261      1.0  0.99484  0.04855  0.52919  1.0000
  H   H251      1.0  0.87439  0.40023  0.55764  1.0000
  C   C262      1.0  0.72697  0.27023  0.65191  1.0000
  H   H252      1.0  0.52166  0.22037  0.56304  1.0000
  C   C263      1.0  0.90926  0.44865  0.63571  1.0000
  C   C264      1.0  0.77421  0.26242  0.65377  1.0000
  Fe  Fe47      1.0  0.76740  0.49734  0.37151  1.0000
  H   H253      1.0  0.67260  0.32035  0.65465  1.0000
  H   H254      1.0  0.63494  0.36968  0.39376  1.0000
  C   C265      1.0  0.73838  0.32550  0.41795  1.0000
  C   C266      1.0  0.70593  0.35743  0.40623  1.0000
  C   C267      1.0  0.65997  0.34482  0.40272  1.0000
  C   C268      1.0  0.64633  0.30000  0.41019  1.0000
  C   C269      1.0  0.67893  0.26784  0.42140  1.0000
  C   C270      1.0  0.72478  0.28068  0.42557  1.0000
  H   H255      1.0  0.71633  0.39188  0.39995  1.0000
  H   H256      1.0  0.70424  0.24190  0.64718  1.0000
  H   H257      1.0  0.66880  0.23326  0.42740  1.0000
  H   H258      1.0  0.74975  0.25580  0.43461  1.0000
  H   H259      1.0  0.89462  0.37911  0.62044  1.0000
  C   C271      1.0  0.98881  0.49961  0.51183  1.0000
  H   H260      1.0  0.63651  0.47212  0.51031  1.0000
  H   H261      1.0  0.82512  0.13809  0.53764  1.0000
  C   C272      1.0  0.88602  0.47207  0.56592  1.0000
  Fe  Fe48      1.0  0.51959  0.14315  0.34985  1.0000
  Fe  Fe49      1.0  0.55510  0.44803  0.62544  1.0000
  N   N23       1.0  0.83100  0.21011  0.53974  1.0000
  C   C273      1.0  0.85499  0.22869  0.51192  1.0000
  C   C274      1.0  0.79392  0.23252  0.55353  1.0000
  C   C275      1.0  0.84207  0.27096  0.49734  1.0000
  C   C276      1.0  0.78049  0.27512  0.53997  1.0000
  C   C277      1.0  0.80462  0.29426  0.51155  1.0000
  C   C278      1.0  0.84326  0.16461  0.55329  1.0000
  S   S97       1.0  0.79634  0.20658  0.64820  1.0000
  H   H262      1.0  0.77443  0.21749  0.57517  1.0000
  C   C279      1.0  0.98934  0.13091  0.52129  1.0000
  H   H263      1.0  0.75135  0.29292  0.55131  1.0000
  H   H264      1.0  0.79411  0.32690  0.50027  1.0000
  H   H265      1.0  0.83408  0.16097  0.58206  1.0000
  C   C280      1.0  0.64191  0.47078  0.41930  1.0000
  H   H266      1.0  0.55612  0.19445  0.50595  1.0000
  H   H267      1.0  0.98850  0.01852  0.54533  1.0000
  H   H268      1.0  0.99209  0.03878  0.67871  1.0000
  H   H269      1.0  0.87696  0.48184  0.53869  1.0000
  C   C281      1.0  0.88454  0.42637  0.57656  1.0000
  H   H270      1.0  0.88060  0.15835  0.55113  1.0000
  S   S98       1.0  0.60677  0.48649  0.65829  1.0000
  C   C282      1.0  0.89599  0.41452  0.61172  1.0000
  N   N24       1.0  0.91124  0.49332  0.62488  1.0000
  Fe  Fe50      1.0  0.64075  0.41797  0.66639  1.0000
  C   C283      1.0  0.62874  0.48052  0.48259  1.0000
  S   S99       1.0  0.95904  0.34427  0.67500  1.0000
  S   S100      1.0  0.97381  0.18606  0.53692  1.0000
  H   H271      1.0  0.83974  0.29376  0.66175  1.0000
  Fe  Fe51      1.0  0.96650  0.17368  0.67294  1.0000
  C   C284      1.0  0.53639  0.22237  0.49269  1.0000
  H   H272      1.0  0.91802  0.43903  0.66300  1.0000
  S   S101      1.0  0.00270  0.22280  0.63666  1.0000
  C   C285      1.0  0.51618  0.29188  0.57533  1.0000
  H   H273      1.0  0.66052  0.45530  0.39732  1.0000
  H   H274      1.0  0.55512  0.23171  0.46790  1.0000
  H   H275      1.0  0.80838  0.37197  0.66801  1.0000
  C   C286      1.0  0.60730  0.50264  0.41220  1.0000
  H   H276      1.0  0.73023  0.24432  0.35023  1.0000
  H   H277      1.0  0.67946  0.43492  0.46043  1.0000
  H   H278      1.0  0.52550  0.37753  0.51426  1.0000
  C   C287      1.0  0.52487  0.34303  0.52504  1.0000
  C   C288      1.0  0.52294  0.25480  0.55224  1.0000
  S   S102      1.0  0.50853  0.43348  0.67209  1.0000
  Fe  Fe52      1.0  0.85031  0.50574  0.42064  1.0000
  C   C289      1.0  0.89930  0.50532  0.59065  1.0000
  C   C290      1.0  0.95146  0.50583  0.48843  1.0000
  C   C291      1.0  0.67649  0.50512  0.75184  1.0000
  S   S103      1.0  0.94391  0.44279  0.87517  1.0000
  H   H279      1.0  0.75570  0.24064  0.97481  1.0000
  Fe  Fe53      1.0  0.83433  0.39019  0.91805  1.0000
  S   S104      1.0  0.90513  0.36612  0.93240  1.0000
  S   S105      1.0  0.76904  0.36491  0.94453  1.0000
  Fe  Fe54      1.0  0.92431  0.44065  0.93351  1.0000
  H   H280      1.0  0.99865  0.27556  0.72071  1.0000
  Fe  Fe55      1.0  0.91879  0.37070  0.87323  1.0000
  S   S106      1.0  0.95770  0.31648  0.84327  1.0000
  C   C292      1.0  0.79306  0.45242  0.75030  1.0000
  S   S107      1.0  0.84656  0.38869  0.85873  1.0000
  H   H281      1.0  0.50952  0.37055  0.74527  1.0000
  H   H282      1.0  0.73558  0.16186  0.96306  1.0000
  C   C293      1.0  0.61926  0.28469  0.84393  1.0000
  S   S108      1.0  0.60164  0.40189  0.71605  1.0000
  Fe  Fe56      1.0  0.59118  0.17163  0.90510  1.0000
  S   S109      1.0  0.54815  0.22308  0.93405  1.0000
  S   S110      1.0  0.66811  0.18117  0.90091  1.0000
  H   H283      1.0  0.92380  0.39099  0.79840  1.0000
  S   S111      1.0  0.55087  0.17343  0.85357  1.0000
  S   S112      1.0  0.55224  0.11075  0.92646  1.0000
  S   S113      1.0  0.52401  0.30053  0.69210  1.0000
  N   N25       1.0  0.78404  0.18344  0.00243  1.0000
  H   H284      1.0  0.76618  0.45868  0.81860  1.0000
  S   S114      1.0  0.98546  0.01767  0.84432  1.0000
  H   H285      1.0  0.94184  0.21927  0.82275  1.0000
  H   H286      1.0  0.94422  0.10478  0.85816  1.0000
  Fe  Fe57      1.0  0.56288  0.46690  0.70545  1.0000
  C   C294      1.0  0.74097  0.47131  0.79962  1.0000
  C   C295      1.0  0.96438  0.09287  0.75428  1.0000
  C   C296      1.0  0.95740  0.06570  0.78490  1.0000
  H   H287      1.0  0.93566  0.10391  0.73809  1.0000
  C   C297      1.0  0.71792  0.48697  0.73977  1.0000
  C   C298      1.0  0.51027  0.29757  0.73776  1.0000
  C   C299      1.0  0.78269  0.22832  0.99218  1.0000
  H   H288      1.0  0.61400  0.25488  0.86190  1.0000
  H   H289      1.0  0.67871  0.23315  0.71518  1.0000
  C   C300      1.0  0.73983  0.31602  0.92899  1.0000
  C   C301      1.0  0.76058  0.28423  0.90620  1.0000
  C   C302      1.0  0.73797  0.24337  0.89740  1.0000
  C   C303      1.0  0.69414  0.23427  0.91071  1.0000
  C   C304      1.0  0.67298  0.26665  0.93273  1.0000
  C   C305      1.0  0.69585  0.30712  0.94202  1.0000
  H   H290      1.0  0.79460  0.29052  0.89620  1.0000
  H   H291      1.0  0.75479  0.21848  0.88049  1.0000
  H   H292      1.0  0.63956  0.25999  0.94357  1.0000
  H   H293      1.0  0.67958  0.33137  0.95979  1.0000
  C   C306      1.0  0.96033  0.32688  0.79683  1.0000
  C   C307      1.0  0.96549  0.12905  0.87224  1.0000
  H   H294      1.0  0.98818  0.03838  0.98011  1.0000
  C   C308      1.0  0.96105  0.33904  0.72199  1.0000
  C   C309      1.0  0.94104  0.37223  0.74407  1.0000
  C   C310      1.0  0.94033  0.36595  0.78149  1.0000
  H   H295      1.0  0.99855  0.26528  0.78640  1.0000
  C   C311      1.0  0.95502  0.18353  0.82266  1.0000
  H   H296      1.0  0.98205  0.18028  0.80196  1.0000
  C   C312      1.0  0.98225  0.30086  0.73749  1.0000
  S   S115      1.0  0.85249  0.46468  0.92363  1.0000
  H   H297      1.0  0.69379  0.49093  0.84125  1.0000
  H   H298      1.0  0.92627  0.16108  0.81485  1.0000
  H   H299      1.0  0.53105  0.07449  0.00087  1.0000
  H   H300      1.0  0.71220  0.42820  0.00637  1.0000
  H   H301      1.0  0.78798  0.43205  0.72546  1.0000
  H   H302      1.0  0.81618  0.48146  0.74463  1.0000
  N   N26       1.0  0.74932  0.46993  0.76357  1.0000
  H   H303      1.0  0.81532  0.29425  0.99500  1.0000
  H   H304      1.0  0.72477  0.48655  0.71122  1.0000
  C   C313      1.0  0.99462  0.05096  0.80578  1.0000
  H   H305      1.0  0.51686  0.08489  0.79343  1.0000
  H   H306      1.0  0.63583  0.46444  0.99948  1.0000
  N   N27       1.0  0.63447  0.26977  0.80841  1.0000
  C   C314      1.0  0.62004  0.29266  0.77838  1.0000
  C   C315      1.0  0.63531  0.27954  0.74441  1.0000
  C   C316      1.0  0.68137  0.22070  0.77213  1.0000
  C   C317      1.0  0.66629  0.24342  0.74135  1.0000
  H   H307      1.0  0.59646  0.32117  0.78051  1.0000
  H   H308      1.0  0.62309  0.29724  0.72059  1.0000
  H   H309      1.0  0.92318  0.05591  0.79234  1.0000
  H   H310      1.0  0.50885  0.22406  0.73884  1.0000
  H   H311      1.0  0.70560  0.19266  0.77005  1.0000
  C   C318      1.0  0.66504  0.23444  0.80566  1.0000
  H   H312      1.0  0.92480  0.40196  0.73230  1.0000
  H   H313      1.0  0.67701  0.21668  0.82948  1.0000
  H   H314      1.0  0.58612  0.30329  0.84249  1.0000
  Fe  Fe58      1.0  0.50662  0.22286  0.88350  1.0000
  C   C319      1.0  0.50610  0.33753  0.75802  1.0000
  Fe  Fe59      1.0  0.50595  0.16284  0.95144  1.0000
  S   S116      1.0  0.91619  0.22555  0.69292  1.0000
  S   S117      1.0  0.97610  0.46606  0.97440  1.0000
  Fe  Fe60      1.0  0.87078  0.46071  0.86518  1.0000
  H   H315      1.0  0.64528  0.30724  0.85621  1.0000
  H   H316      1.0  0.81010  0.42984  0.77034  1.0000
  C   C320      1.0  0.74817  0.15233  0.99029  1.0000
  C   C321      1.0  0.98577  0.05698  0.00501  1.0000
  C   C322      1.0  0.98213  0.29496  0.77476  1.0000
  C   C323      1.0  0.50547  0.25500  0.75444  1.0000
  C   C324      1.0  0.81608  0.25886  0.00388  1.0000
  H   H317      1.0  0.76106  0.11660  0.98857  1.0000
  H   H318      1.0  0.93595  0.49834  0.79608  1.0000
  H   H319      1.0  0.91357  0.04549  0.01074  1.0000
  N   N28       1.0  0.97368  0.17127  0.85793  1.0000
  H   H320      1.0  0.97902  0.08219  0.91581  1.0000
  C   C325      1.0  0.98491  0.11614  0.90506  1.0000
  C   C326      1.0  0.00106  0.20154  0.87558  1.0000
  C   C327      1.0  0.70004  0.48954  0.81264  1.0000
  H   H321      1.0  0.71900  0.15344  0.00921  1.0000
  Fe  Fe61      1.0  0.50693  0.11882  0.87794  1.0000
  H   H322      1.0  0.50632  0.06496  0.72926  1.0000
  H   H323      1.0  0.87060  0.58299  0.10275  1.0000
  H   H324      1.0  0.93191  0.59309  0.20666  1.0000
  C   C328      1.0  0.66294  0.54649  0.24855  1.0000
  C   C329      1.0  0.82419  0.58751  0.14755  1.0000
  C   C330      1.0  0.96160  0.58854  0.05064  1.0000
  H   H325      1.0  0.92139  0.54042  0.33027  1.0000
  C   C331      1.0  0.00025  0.56036  0.05186  1.0000
  C   C332      1.0  0.93970  0.53917  0.30524  1.0000
  H   H326      1.0  0.56862  0.72056  0.30898  1.0000
  C   C333      1.0  0.99308  0.57370  0.26360  1.0000
  C   C334      1.0  0.55300  0.68452  0.22354  1.0000
  C   C335      1.0  0.56115  0.62113  0.26452  1.0000
  C   C336      1.0  0.92623  0.57805  0.02653  1.0000
  C   C337      1.0  0.98852  0.53615  0.24079  1.0000
  S   S118      1.0  0.58176  0.55890  0.13848  1.0000
  Fe  Fe62      1.0  0.64116  0.51857  0.15945  1.0000
  H   H327      1.0  0.82255  0.60957  0.25348  1.0000
  C   C338      1.0  0.93595  0.96927  0.30391  1.0000
  S   S119      1.0  0.70559  0.54669  0.18311  1.0000
  H   H328      1.0  0.79349  0.58601  0.13126  1.0000
  N   N29       1.0  0.93035  0.98285  0.26907  1.0000
  H   H329      1.0  0.54757  0.60514  0.33445  1.0000
  C   C339      1.0  0.56524  0.69691  0.28677  1.0000
  C   C340      1.0  0.70207  0.53209  0.30504  1.0000
  C   C341      1.0  0.96023  0.96367  0.24144  1.0000
  C   C342      1.0  0.55906  0.71447  0.25216  1.0000
  H   H330      1.0  0.96257  0.94493  0.31100  1.0000
  C   C343      1.0  0.50695  0.53893  0.02359  1.0000
  H   H331      1.0  0.63198  0.55424  0.23393  1.0000
  N   N30       1.0  0.56583  0.65072  0.29257  1.0000
  H   H332      1.0  0.93973  0.58535  0.14116  1.0000
  Fe  Fe63      1.0  0.53932  0.50886  0.16907  1.0000
  C   C344      1.0  0.90611  0.58696  0.15320  1.0000
  H   H333      1.0  0.56211  0.58455  0.26906  1.0000
  C   C345      1.0  0.70404  0.54107  0.23001  1.0000
  H   H334      1.0  0.88342  0.61380  0.25711  1.0000
  C   C346      1.0  0.90148  0.59100  0.19032  1.0000
  H   H335      1.0  0.54966  0.61378  0.20767  1.0000
  C   C347      1.0  0.90806  0.98714  0.33090  1.0000
  C   C348      1.0  0.66195  0.54200  0.28603  1.0000
  H   H336      1.0  0.94948  0.92833  0.23480  1.0000
  C   C349      1.0  0.57287  0.63238  0.32876  1.0000
  H   H337      1.0  0.55725  0.98908  0.22827  1.0000
  H   H338      1.0  0.77414  0.51830  0.30086  1.0000
  S   S120      1.0  0.97947  0.68439  0.17362  1.0000
  H   H339      1.0  0.78734  0.59290  0.19690  1.0000
  C   C350      1.0  0.86720  0.58545  0.13167  1.0000
  C   C351      1.0  0.74410  0.53098  0.24903  1.0000
  H   H340      1.0  0.54690  0.69777  0.19675  1.0000
  S   S121      1.0  0.95614  0.63738  0.07831  1.0000
  H   H341      1.0  0.63006  0.54540  0.30022  1.0000
  N   N31       1.0  0.85926  0.59288  0.20571  1.0000
  C   C352      1.0  0.96839  0.57523  0.29562  1.0000
  C   C353      1.0  0.85531  0.59376  0.24488  1.0000
  S   S122      1.0  0.56423  0.53042  0.03715  1.0000
  H   H342      1.0  0.99249  0.97962  0.06253  1.0000
  C   C354      1.0  0.82087  0.59123  0.18484  1.0000
  C   C355      1.0  0.55433  0.63751  0.22966  1.0000
  C   C356      1.0  0.74312  0.52645  0.28646  1.0000
  H   H343      1.0  0.85697  0.55828  0.25558  1.0000
  H   H344      1.0  0.89625  0.59976  0.02533  1.0000
  H   H345      1.0  0.55765  0.75110  0.24774  1.0000
  H   H346      1.0  0.77567  0.52533  0.23482  1.0000
  H   H347      1.0  0.95969  0.98472  0.21661  1.0000
  H   H348      1.0  0.99618  0.96298  0.25108  1.0000
  H   H349      1.0  0.60788  0.61789  0.33123  1.0000
  H   H350      1.0  0.97870  0.91337  0.02232  1.0000
  Fe  Fe64      1.0  0.57823  0.50744  0.09423  1.0000
  H   H351      1.0  0.53286  0.00154  0.03474  1.0000
  H   H352      1.0  0.97119  0.60461  0.31287  1.0000
  C   C357      1.0  0.00361  0.52236  0.02889  1.0000
  H   H353      1.0  0.00476  0.74468  0.24118  1.0000
  H   H354      1.0  0.91659  0.61052  0.51693  1.0000
  H   H355      1.0  0.54624  0.55312  0.59895  1.0000
  C   C358      1.0  0.59462  0.51259  0.47453  1.0000
  S   S123      1.0  0.87796  0.55559  0.46178  1.0000
  H   H356      1.0  0.92698  0.64031  0.44328  1.0000
  S   S124      1.0  0.83405  0.53336  0.36559  1.0000
  H   H357      1.0  0.59929  0.51092  0.38450  1.0000
  H   H358      1.0  0.54670  0.58403  0.45151  1.0000
  H   H359      1.0  0.98235  0.59944  0.55797  1.0000
  C   C359      1.0  0.95313  0.64416  0.42293  1.0000
  H   H360      1.0  0.94588  0.55513  0.63736  1.0000
  C   C360      1.0  0.97385  0.57316  0.53884  1.0000
  H   H361      1.0  0.91327  0.97697  0.35860  1.0000
  C   C361      1.0  0.93666  0.57943  0.51543  1.0000
  H   H362      1.0  0.96328  0.57170  0.41662  1.0000
  C   C362      1.0  0.92525  0.54582  0.49024  1.0000
  C   C363      1.0  0.96620  0.68755  0.41142  1.0000
  C   C364      1.0  0.99966  0.69168  0.38495  1.0000
  H   H363      1.0  0.95041  0.71784  0.42278  1.0000
  C   C365      1.0  0.51355  0.51845  0.55512  1.0000
  C   C366      1.0  0.97362  0.60555  0.40798  1.0000
  H   H364      1.0  0.51386  0.53733  0.43317  1.0000
  C   C367      1.0  0.00010  0.53322  0.53715  1.0000
  C   C368      1.0  0.51840  0.60108  0.56032  1.0000
  H   H365      1.0  0.52589  0.97582  0.49927  1.0000
  H   H366      1.0  0.52990  0.63081  0.57489  1.0000
  H   H367      1.0  0.53748  0.00499  0.43794  1.0000
  C   C369      1.0  0.54706  0.55541  0.43194  1.0000
  C   C370      1.0  0.92394  0.52906  0.65039  1.0000
  H   H368      1.0  0.56843  0.65917  0.34953  1.0000
  H   H369      1.0  0.90010  0.54082  0.58226  1.0000
  S   S125      1.0  0.70061  0.52644  0.35193  1.0000
  H   H370      1.0  0.55027  0.57057  0.40476  1.0000
  C   C371      1.0  0.52761  0.55709  0.57405  1.0000
  H   H371      1.0  0.94348  0.51514  0.67356  1.0000
  H   H372      1.0  0.57655  0.52897  0.49635  1.0000
  H   H373      1.0  0.89292  0.54653  0.66079  1.0000
  N   N32       1.0  0.58439  0.52333  0.43970  1.0000
  C   C372      1.0  0.50533  0.98921  0.44505  1.0000
  H   H374      1.0  0.85988  0.62810  0.73379  1.0000
  C   C373      1.0  0.87674  0.59975  0.74714  1.0000
  H   H375      1.0  0.52366  0.55753  0.81811  1.0000
  S   S126      1.0  0.84417  0.51426  0.82713  1.0000
  H   H376      1.0  0.93515  0.57065  0.85080  1.0000
  C   C374      1.0  0.96527  0.56491  0.86725  1.0000
  C   C375      1.0  0.92116  0.58752  0.73753  1.0000
  C   C376      1.0  0.96314  0.57151  0.90421  1.0000
  H   H377      1.0  0.93144  0.58218  0.91669  1.0000
  H   H378      1.0  0.65139  0.51824  0.73294  1.0000
  C   C377      1.0  0.91958  0.52674  0.78247  1.0000
  C   C378      1.0  0.85402  0.57633  0.77428  1.0000
  C   C379      1.0  0.87530  0.54025  0.79240  1.0000
  S   S127      1.0  0.94681  0.62003  0.70337  1.0000
  H   H379      1.0  0.81986  0.58688  0.78167  1.0000
  H   H380      1.0  0.97695  0.54074  0.74744  1.0000
  H   H381      1.0  0.90224  0.53244  0.98503  1.0000
  H   H382      1.0  0.00048  0.56973  0.95373  1.0000
  C   C380      1.0  0.94268  0.55057  0.75495  1.0000
  H   H383      1.0  0.52503  0.57538  0.97547  1.0000
  C   C381      1.0  0.96832  0.51193  0.00472  1.0000
  C   C382      1.0  0.92949  0.53989  0.00369  1.0000
  H   H384      1.0  0.63560  0.52062  0.79813  1.0000
  S   S128      1.0  0.55388  0.51041  0.75512  1.0000
  C   C383      1.0  0.00215  0.56395  0.92510  1.0000
  C   C384      1.0  0.66758  0.50639  0.78851  1.0000
