data_image0
_chemical_formula_structural       H2CFeSFeS2FeSFeS3HC6HCNH2C3H3C3H2C2HNH2FeHC2HCHSH7C2HCFeH3NHC4SHFeS2FeS2FeSFeS3C3HSC2H2C3H2C3HCHC2HC8H4CNH3CHCNHCH2CHC2H7CHSHC3HSC3SH3CH3C2HFeS2FeS2Fe2S3HCHC2H2C6H4C2H2SNHCHC2HCSCHC2HFeHCHCH2SHCNHC4HCH5C2NCHC2FeS2FeS2FeSFeS3H2NCH2FeCH3C6HC2H3CH5CH2C3H2C3H2C2NC2H3SHCHCH2NC2H5C3S2HFeSH3CHSHSCHSCH2SC6H4C3H2C3H3CNCFeHCSHCHCHCHSC2NC3HCHC2HFeH3CH3CH2CFeH3NFeCHC2S2C2SH2CH2FeH2SHNH2CFeHSC2S2HSCH3NH2C2H3C6H2C4SC3HFeNCSHFeHCH2SHSHCH3CH3CHCN2C2H2CHCFeH4S2CHS2C2FeS2CSH2FeCH2C6H4C2HCSCS2CFeH3C3NH3C5HSH2CH3C2HCFeH2C2NHC2H2FeHC3HCHS2H3SCHCHSC7HCH4CHC3HC2SC2H2C2SH5C2HFeCFeHCH3CHC2HNSHCFeSCSCNHSC2NHFeS2FeS2HSCHC3SH2CHC3H3FeHC7H5CSHSHCNHFeC2FeHCHSFeH2CS2C3SCHSH2SHFeSFeSHSC3FeNCNCH2CHFe3C4H2C2H2C3H2CHCHC4HFeCFeHCHCH2SHSHCHCHSC2H2C2SH3SFeHSFeSHCS2HCHCHSC8H4FeCH3C3HCSC3HCNCSH2CSNC6H5SH3FeH2CHSHSCSC2H2NC3H4CHCHCFeS2FeHFeSFeHS2HCHCHCHCHCHC2HSC2S2H2SCHCH2C3H2CHCSC2SFeHCFeHC3NHCNHC2HCFeCH2CFeH2SCH2C2
_chemical_formula_sum              "H384 C384 Fe64 S128 N32"
_cell_length_a       27.3589
_cell_length_b       27.3229
_cell_length_c       26.8483
_cell_angle_alpha    89.1944
_cell_angle_beta     89.8266
_cell_angle_gamma    87.2506

_space_group_name_H-M_alt    "P 1"
_space_group_IT_number       1

loop_
  _space_group_symop_operation_xyz
  'x, y, z'

loop_
  _atom_site_type_symbol
  _atom_site_label
  _atom_site_symmetry_multiplicity
  _atom_site_fract_x
  _atom_site_fract_y
  _atom_site_fract_z
  _atom_site_occupancy
  H   H1        1.0  0.02871  0.17990  0.17859  1.0000
  H   H2        1.0  0.03177  0.29474  0.16914  1.0000
  C   C1        1.0  0.16032  0.42478  0.46410  1.0000
  Fe  Fe1       1.0  0.28690  0.24193  0.29058  1.0000
  S   S1        1.0  0.21971  0.21346  0.32830  1.0000
  Fe  Fe2       1.0  0.23700  0.33980  0.26372  1.0000
  S   S2        1.0  0.16642  0.31986  0.29825  1.0000
  S   S3        1.0  0.24388  0.41004  0.21968  1.0000
  Fe  Fe3       1.0  0.21230  0.28846  0.36098  1.0000
  S   S4        1.0  0.17937  0.30614  0.43585  1.0000
  Fe  Fe4       1.0  0.17864  0.24650  0.26273  1.0000
  S   S5        1.0  0.10819  0.21819  0.23251  1.0000
  S   S6        1.0  0.28281  0.31464  0.32936  1.0000
  S   S7        1.0  0.24606  0.26896  0.22216  1.0000
  H   H3        1.0  0.15115  0.46628  0.16018  1.0000
  C   C2        1.0  0.10715  0.17262  0.18663  1.0000
  C   C3        1.0  0.06206  0.16092  0.16613  1.0000
  C   C4        1.0  0.05972  0.12449  0.12979  1.0000
  C   C5        1.0  0.10254  0.09923  0.11413  1.0000
  C   C6        1.0  0.14764  0.11097  0.13456  1.0000
  C   C7        1.0  0.15002  0.14773  0.17055  1.0000
  H   H4        1.0  0.08839  0.16197  0.03102  1.0000
  C   C8        1.0  0.07474  0.24251  0.37282  1.0000
  N   N1        1.0  0.09624  0.19761  0.39593  1.0000
  H   H5        1.0  0.18491  0.15645  0.18614  1.0000
  H   H6        1.0  0.18527  0.41771  0.43201  1.0000
  C   C9        1.0  0.20043  0.27531  0.49010  1.0000
  C   C10       1.0  0.24289  0.24478  0.49001  1.0000
  C   C11       1.0  0.09762  0.15484  0.36993  1.0000
  H   H7        1.0  0.26297  0.23878  0.45572  1.0000
  H   H8        1.0  0.08652  0.27574  0.39202  1.0000
  H   H9        1.0  0.12681  0.40447  0.45712  1.0000
  C   C12       1.0  0.23474  0.46795  0.24723  1.0000
  C   C13       1.0  0.22754  0.47324  0.29850  1.0000
  C   C14       1.0  0.04459  0.41729  0.18127  1.0000
  H   H10       1.0  0.22518  0.44111  0.32225  1.0000
  H   H11       1.0  0.02252  0.45087  0.18673  1.0000
  C   C15       1.0  0.04919  0.32955  0.17111  1.0000
  C   C16       1.0  0.13095  0.15508  0.46741  1.0000
  H   H12       1.0  0.03421  0.24200  0.37463  1.0000
  N   N2        1.0  0.09452  0.41812  0.17828  1.0000
  H   H13       1.0  0.11641  0.07693  0.37179  1.0000
  H   H14       1.0  0.35215  0.43671  0.24574  1.0000
  Fe  Fe5       1.0  0.04003  0.01485  0.47146  1.0000
  H   H15       1.0  0.18093  0.09165  0.12245  1.0000
  C   C17       1.0  0.10001  0.33087  0.16776  1.0000
  C   C18       1.0  0.13270  0.11130  0.44115  1.0000
  H   H16       1.0  0.09410  0.49644  0.17676  1.0000
  C   C19       1.0  0.11214  0.19803  0.44418  1.0000
  H   H17       1.0  0.08430  0.15450  0.33186  1.0000
  S   S8        1.0  0.10153  0.05328  0.06865  1.0000
  H   H18       1.0  0.25482  0.39954  0.48130  1.0000
  H   H19       1.0  0.15046  0.46459  0.46524  1.0000
  H   H20       1.0  0.10962  0.23162  0.46524  1.0000
  H   H21       1.0  0.12217  0.29724  0.16292  1.0000
  H   H22       1.0  0.16177  0.37631  0.16958  1.0000
  H   H23       1.0  0.34790  0.46594  0.33262  1.0000
  H   H24       1.0  0.24318  0.50555  0.17729  1.0000
  C   C20       1.0  0.11584  0.11103  0.39215  1.0000
  C   C21       1.0  0.12221  0.37569  0.17163  1.0000
  H   H25       1.0  0.08626  0.24558  0.33328  1.0000
  C   C22       1.0  0.11890  0.46406  0.18540  1.0000
  Fe  Fe6       1.0  0.03402  0.03754  0.02396  1.0000
  H   H26       1.0  0.14348  0.15585  0.50569  1.0000
  H   H27       1.0  0.13163  0.46625  0.22448  1.0000
  H   H28       1.0  0.02480  0.11563  0.11435  1.0000
  N   N3        1.0  0.18272  0.40826  0.51134  1.0000
  H   H29       1.0  0.14661  0.07750  0.45883  1.0000
  C   C23       1.0  0.23188  0.39678  0.51405  1.0000
  C   C24       1.0  0.35021  0.49234  0.30234  1.0000
  C   C25       1.0  0.35260  0.47556  0.25337  1.0000
  C   C26       1.0  0.02115  0.37308  0.17749  1.0000
  S   S9        1.0  0.04050  0.06962  0.53353  1.0000
  H   H30       1.0  0.31245  0.13773  0.69514  1.0000
  Fe  Fe7       1.0  0.25027  0.32228  0.77540  1.0000
  S   S10       1.0  0.29442  0.25260  0.75978  1.0000
  S   S11       1.0  0.28927  0.39216  0.78840  1.0000
  Fe  Fe8       1.0  0.15435  0.27013  0.78212  1.0000
  S   S12       1.0  0.19038  0.19656  0.76573  1.0000
  S   S13       1.0  0.07777  0.28139  0.81312  1.0000
  Fe  Fe9       1.0  0.24912  0.21735  0.81853  1.0000
  S   S14       1.0  0.27082  0.16519  0.88192  1.0000
  Fe  Fe10      1.0  0.23261  0.23757  0.70789  1.0000
  S   S15       1.0  0.25639  0.20335  0.63505  1.0000
  S   S16       1.0  0.21037  0.28828  0.83894  1.0000
  S   S17       1.0  0.19129  0.30997  0.71944  1.0000
  C   C27       1.0  0.22423  0.37799  0.60173  1.0000
  C   C28       1.0  0.05789  0.20274  0.91464  1.0000
  C   C29       1.0  0.02954  0.23054  0.54466  1.0000
  H   H31       1.0  0.07389  0.42211  0.90020  1.0000
  S   S18       1.0  0.32338  0.48205  0.98588  1.0000
  C   C30       1.0  0.23420  0.23100  0.57952  1.0000
  C   C31       1.0  0.19119  0.26067  0.57924  1.0000
  H   H32       1.0  0.30865  0.09837  0.95663  1.0000
  H   H33       1.0  0.17073  0.26657  0.61335  1.0000
  C   C32       1.0  0.25330  0.38121  0.55918  1.0000
  C   C33       1.0  0.34102  0.10895  0.69832  1.0000
  C   C34       1.0  0.19900  0.49529  0.72172  1.0000
  H   H34       1.0  0.18606  0.09271  0.90439  1.0000
  H   H35       1.0  0.13244  0.07314  0.87167  1.0000
  C   C35       1.0  0.17415  0.39000  0.59868  1.0000
  C   C36       1.0  0.08247  0.46665  0.76373  1.0000
  C   C37       1.0  0.09021  0.17194  0.88770  1.0000
  H   H36       1.0  0.22369  0.46874  0.95922  1.0000
  C   C38       1.0  0.32986  0.13727  0.89020  1.0000
  H   H37       1.0  0.33145  0.25105  0.89847  1.0000
  C   C39       1.0  0.26834  0.49952  0.01578  1.0000
  C   C40       1.0  0.08881  0.16528  0.99076  1.0000
  H   H38       1.0  0.24065  0.36630  0.63691  1.0000
  C   C41       1.0  0.28076  0.50275  0.55667  1.0000
  C   C42       1.0  0.15309  0.10529  0.88277  1.0000
  C   C43       1.0  0.02773  0.26510  0.72627  1.0000
  C   C44       1.0  0.07728  0.43454  0.86185  1.0000
  C   C45       1.0  0.10137  0.47715  0.85052  1.0000
  C   C46       1.0  0.26094  0.44848  0.76901  1.0000
  C   C47       1.0  0.22098  0.45003  0.73667  1.0000
  C   C48       1.0  0.05593  0.40884  0.82353  1.0000
  H   H39       1.0  0.20718  0.41642  0.72293  1.0000
  H   H40       1.0  0.08976  0.17426  0.84730  1.0000
  H   H41       1.0  0.30998  0.49156  0.81100  1.0000
  H   H42       1.0  0.29236  0.37260  0.56139  1.0000
  C   C49       1.0  0.33815  0.10508  0.93085  1.0000
  N   N4        1.0  0.05852  0.42512  0.77523  1.0000
  H   H43       1.0  0.03988  0.11535  0.74371  1.0000
  H   H44       1.0  0.03652  0.19290  0.55669  1.0000
  H   H45       1.0  0.16843  0.49626  0.69621  1.0000
  C   C50       1.0  0.10389  0.49349  0.80118  1.0000
  H   H46       1.0  0.06305  0.25965  0.70842  1.0000
  C   C51       1.0  0.15398  0.40530  0.55290  1.0000
  N   N5        1.0  0.12115  0.13874  0.91181  1.0000
  H   H47       1.0  0.03647  0.37631  0.83284  1.0000
  C   C52       1.0  0.12032  0.13467  0.96266  1.0000
  H   H48       1.0  0.03241  0.22307  0.98782  1.0000
  H   H49       1.0  0.29276  0.19918  0.53474  1.0000
  C   C53       1.0  0.17415  0.28236  0.53451  1.0000
  H   H50       1.0  0.11734  0.49787  0.88001  1.0000
  C   C54       1.0  0.25963  0.22245  0.53470  1.0000
  C   C55       1.0  0.22372  0.48897  0.99358  1.0000
  H   H51       1.0  0.30988  0.33807  0.87847  1.0000
  H   H52       1.0  0.08418  0.47995  0.72561  1.0000
  H   H53       1.0  0.03335  0.22877  0.89517  1.0000
  H   H54       1.0  0.16661  0.12402  0.84880  1.0000
  H   H55       1.0  0.15088  0.38686  0.63124  1.0000
  H   H56       1.0  0.14048  0.30480  0.53445  1.0000
  H   H57       1.0  0.05961  0.26099  0.61097  1.0000
  C   C56       1.0  0.27900  0.49255  0.78601  1.0000
  H   H58       1.0  0.11505  0.41407  0.55052  1.0000
  S   S19       1.0  0.33546  0.47366  0.57840  1.0000
  H   H59       1.0  0.31890  0.12178  0.60125  1.0000
  C   C57       1.0  0.34587  0.32804  0.89334  1.0000
  C   C58       1.0  0.03696  0.39690  0.73550  1.0000
  C   C59       1.0  0.05740  0.19948  0.96651  1.0000
  H   H60       1.0  0.24192  0.48339  0.62336  1.0000
  S   S20       1.0  0.06808  0.49767  0.61296  1.0000
  C   C60       1.0  0.23923  0.50090  0.58700  1.0000
  C   C61       1.0  0.02490  0.27524  0.77705  1.0000
  C   C62       1.0  0.04220  0.26910  0.57548  1.0000
  S   S21       1.0  0.04053  0.36511  0.60391  1.0000
  H   H61       1.0  0.14389  0.10748  0.98184  1.0000
  H   H62       1.0  0.14479  0.49574  0.99898  1.0000
  H   H63       1.0  0.06317  0.36689  0.72377  1.0000
  C   C63       1.0  0.03091  0.31800  0.56143  1.0000
  H   H64       1.0  0.32703  0.42343  0.89257  1.0000
  H   H65       1.0  0.32734  0.09669  0.77670  1.0000
  H   H66       1.0  0.02731  0.42028  0.70245  1.0000
  C   C64       1.0  0.17914  0.50447  0.01576  1.0000
  C   C65       1.0  0.34945  0.08603  0.74464  1.0000
  H   H67       1.0  0.11429  0.92833  0.18430  1.0000
  Fe  Fe11      1.0  0.24703  0.72945  0.16259  1.0000
  S   S22       1.0  0.30505  0.68728  0.20715  1.0000
  S   S23       1.0  0.21400  0.71011  0.08887  1.0000
  Fe  Fe12      1.0  0.21358  0.79433  0.25006  1.0000
  S   S24       1.0  0.26822  0.75745  0.30237  1.0000
  S   S25       1.0  0.15049  0.85065  0.25900  1.0000
  Fe  Fe13      1.0  0.32099  0.76111  0.23798  1.0000
  Fe  Fe14      1.0  0.24853  0.68628  0.26803  1.0000
  S   S26       1.0  0.23323  0.62013  0.31645  1.0000
  S   S27       1.0  0.26762  0.80350  0.18791  1.0000
  S   S28       1.0  0.18980  0.72288  0.22166  1.0000
  H   H68       1.0  0.08938  0.94754  0.05095  1.0000
  C   C66       1.0  0.08265  0.73170  0.10817  1.0000
  H   H69       1.0  0.30739  0.62633  0.03994  1.0000
  C   C67       1.0  0.11603  0.65647  0.14871  1.0000
  C   C68       1.0  0.27708  0.52566  0.50980  1.0000
  H   H70       1.0  0.10598  0.61499  0.26807  1.0000
  H   H71       1.0  0.04546  0.74985  0.10585  1.0000
  C   C69       1.0  0.14033  0.88423  0.31424  1.0000
  C   C70       1.0  0.17495  0.88351  0.35249  1.0000
  C   C71       1.0  0.16620  0.91197  0.39522  1.0000
  C   C72       1.0  0.12258  0.94082  0.40032  1.0000
  C   C73       1.0  0.08774  0.94113  0.36232  1.0000
  C   C74       1.0  0.09678  0.91318  0.31931  1.0000
  H   H72       1.0  0.20867  0.86149  0.34890  1.0000
  H   H73       1.0  0.19342  0.91168  0.42438  1.0000
  H   H74       1.0  0.05407  0.96327  0.36578  1.0000
  H   H75       1.0  0.06985  0.91399  0.28985  1.0000
  C   C75       1.0  0.22992  0.56219  0.28886  1.0000
  C   C76       1.0  0.23502  0.55682  0.23743  1.0000
  H   H76       1.0  0.04272  0.74531  0.19791  1.0000
  H   H77       1.0  0.23887  0.58875  0.21369  1.0000
  S   S29       1.0  0.12493  0.54966  0.09028  1.0000
  N   N6        1.0  0.08688  0.69841  0.15141  1.0000
  H   H78       1.0  0.13535  0.64730  0.11449  1.0000
  C   C77       1.0  0.18534  0.84432  0.08354  1.0000
  H   H79       1.0  0.22822  0.56205  0.45629  1.0000
  C   C78       1.0  0.26837  0.52600  0.05989  1.0000
  C   C79       1.0  0.06447  0.71120  0.19530  1.0000
  H   H80       1.0  0.30337  0.75742  0.05853  1.0000
  C   C80       1.0  0.17932  0.53101  0.05986  1.0000
  S   S30       1.0  0.11356  0.97681  0.45412  1.0000
  C   C81       1.0  0.11606  0.91835  0.06048  1.0000
  H   H81       1.0  0.05347  0.69185  0.27281  1.0000
  C   C82       1.0  0.23765  0.72725  0.03054  1.0000
  C   C83       1.0  0.12253  0.62542  0.19029  1.0000
  H   H82       1.0  0.30910  0.52743  0.48622  1.0000
  Fe  Fe15      1.0  0.05076  0.54221  0.05663  1.0000
  H   H83       1.0  0.07669  0.96088  0.13895  1.0000
  C   C84       1.0  0.23133  0.54518  0.49296  1.0000
  H   H84       1.0  0.18031  0.87194  0.15801  1.0000
  C   C85       1.0  0.07042  0.68113  0.23779  1.0000
  H   H85       1.0  0.22398  0.56418  0.11469  1.0000
  H   H86       1.0  0.14601  0.59242  0.18773  1.0000
  S   S31       1.0  0.13162  0.56289  0.50011  1.0000
  H   H87       1.0  0.08915  0.71158  0.07284  1.0000
  C   C86       1.0  0.16681  0.87617  0.12017  1.0000
  N   N7        1.0  0.13220  0.91228  0.10847  1.0000
  H   H88       1.0  0.13864  0.97812  0.14812  1.0000
  C   C87       1.0  0.28247  0.74940  0.02572  1.0000
  C   C88       1.0  0.16854  0.84976  0.03470  1.0000
  C   C89       1.0  0.11462  0.94648  0.14691  1.0000
  C   C90       1.0  0.22389  0.54241  0.08136  1.0000
  H   H89       1.0  0.11045  0.75987  0.11078  1.0000
  C   C91       1.0  0.09976  0.63798  0.23516  1.0000
  H   H90       1.0  0.21277  0.81575  0.09279  1.0000
  H   H91       1.0  0.30257  0.53462  0.07694  1.0000
  H   H92       1.0  0.22052  0.52439  0.35907  1.0000
  H   H93       1.0  0.30792  0.56171  0.37504  1.0000
  H   H94       1.0  0.11939  0.75592  0.51887  1.0000
  C   C92       1.0  0.22502  0.52037  0.31924  1.0000
  C   C93       1.0  0.23731  0.50982  0.21681  1.0000
  N   N8        1.0  0.35051  0.54137  0.31189  1.0000
  C   C94       1.0  0.35178  0.57478  0.27353  1.0000
  H   H95       1.0  0.35063  0.61366  0.28114  1.0000
  C   C95       1.0  0.34693  0.55823  0.36345  1.0000
  C   C96       1.0  0.18939  0.54170  0.52292  1.0000
  Fe  Fe16      1.0  0.21074  0.66934  0.74078  1.0000
  S   S32       1.0  0.18098  0.71481  0.80418  1.0000
  S   S33       1.0  0.18476  0.59450  0.72249  1.0000
  Fe  Fe17      1.0  0.26601  0.75355  0.69448  1.0000
  S   S34       1.0  0.24088  0.80600  0.75368  1.0000
  S   S35       1.0  0.30840  0.77116  0.62439  1.0000
  Fe  Fe18      1.0  0.25694  0.74295  0.80691  1.0000
  S   S36       1.0  0.30134  0.75683  0.87581  1.0000
  Fe  Fe19      1.0  0.16723  0.77379  0.74617  1.0000
  S   S37       1.0  0.09945  0.82420  0.74062  1.0000
  S   S38       1.0  0.28803  0.69227  0.74779  1.0000
  S   S39       1.0  0.19089  0.72646  0.68247  1.0000
  H   H96       1.0  0.27742  0.61535  0.58005  1.0000
  H   H97       1.0  0.16889  0.90671  0.54720  1.0000
  N   N9        1.0  0.09800  0.67136  0.60858  1.0000
  C   C97       1.0  0.06573  0.69798  0.63773  1.0000
  H   H98       1.0  0.07538  0.72323  0.75332  1.0000
  H   H99       1.0  0.24813  0.61550  0.64034  1.0000
  Fe  Fe20      1.0  0.06443  0.53342  0.53753  1.0000
  C   C98       1.0  0.09098  0.95415  0.63484  1.0000
  H   H100      1.0  0.06259  0.80586  0.57290  1.0000
  H   H101      1.0  0.09765  0.59583  0.59431  1.0000
  H   H102      1.0  0.02409  0.61072  0.79992  1.0000
  C   C99       1.0  0.11230  0.62066  0.62200  1.0000
  C   C100      1.0  0.21090  0.71710  0.98777  1.0000
  C   C101      1.0  0.27488  0.74834  0.93510  1.0000
  C   C102      1.0  0.30109  0.75981  0.97799  1.0000
  C   C103      1.0  0.22936  0.72772  0.94023  1.0000
  C   C104      1.0  0.32731  0.63619  0.89801  1.0000
  H   H103      1.0  0.20893  0.71866  0.90760  1.0000
  C   C105      1.0  0.21608  0.53921  0.73979  1.0000
  C   C106      1.0  0.25642  0.53791  0.77168  1.0000
  H   H104      1.0  0.33637  0.77587  0.97431  1.0000
  H   H105      1.0  0.26984  0.57167  0.78566  1.0000
  H   H106      1.0  0.05012  0.68153  0.67083  1.0000
  C   C107      1.0  0.15360  0.91484  0.58374  1.0000
  H   H107      1.0  0.21069  0.87423  0.62437  1.0000
  H   H108      1.0  0.05552  0.93381  0.72841  1.0000
  H   H109      1.0  0.16261  0.51862  0.59442  1.0000
  H   H110      1.0  0.24456  0.59719  0.98242  1.0000
  H   H111      1.0  0.12074  0.89197  0.98500  1.0000
  C   C108      1.0  0.04186  0.74585  0.75496  1.0000
  H   H112      1.0  0.12172  0.52711  0.79198  1.0000
  H   H113      1.0  0.09138  0.95728  0.55456  1.0000
  C   C109      1.0  0.11017  0.94342  0.58773  1.0000
  C   C110      1.0  0.28527  0.61494  0.91636  1.0000
  C   C111      1.0  0.09259  0.94858  0.72564  1.0000
  H   H114      1.0  0.11452  0.93197  0.75690  1.0000
  H   H115      1.0  0.05733  0.97646  0.63755  1.0000
  C   C112      1.0  0.28001  0.62828  0.61896  1.0000
  C   C113      1.0  0.11662  0.69139  0.56602  1.0000
  C   C114      1.0  0.13384  0.88715  0.02297  1.0000
  H   H116      1.0  0.05471  0.76840  0.96846  1.0000
  H   H117      1.0  0.09849  0.61003  0.65946  1.0000
  C   C115      1.0  0.04337  0.79670  0.75055  1.0000
  C   C116      1.0  0.32829  0.56357  0.66303  1.0000
  N   N10       1.0  0.11418  0.93672  0.67695  1.0000
  C   C117      1.0  0.15670  0.90837  0.67350  1.0000
  C   C118      1.0  0.17706  0.89694  0.62689  1.0000
  H   H118      1.0  0.17615  0.70001  0.99132  1.0000
  H   H119      1.0  0.25807  0.60203  0.89103  1.0000
  H   H120      1.0  0.29596  0.54220  0.66543  1.0000
  S   S40       1.0  0.05540  0.99757  0.95448  1.0000
  H   H121      1.0  0.17473  0.89378  0.70685  1.0000
  C   C119      1.0  0.27787  0.61183  0.96767  1.0000
  H   H122      1.0  0.27757  0.66902  0.61885  1.0000
  C   C120      1.0  0.19389  0.52039  0.57033  1.0000
  H   H123      1.0  0.15276  0.61532  0.62239  1.0000
  H   H124      1.0  0.08946  0.98891  0.73064  1.0000
  N   N11       1.0  0.32605  0.60914  0.64116  1.0000
  C   C121      1.0  0.05261  0.74677  0.62537  1.0000
  C   C122      1.0  0.31315  0.62831  1.00000  1.0000
  H   H125      1.0  0.33200  0.64016  0.85809  1.0000
  H   H126      1.0  0.34545  0.83155  0.70311  1.0000
  H   H127      1.0  0.18266  0.82526  0.00595  1.0000
  H   H128      1.0  0.02752  0.76803  0.64892  1.0000
  H   H129      1.0  0.14111  0.66951  0.54226  1.0000
  C   C123      1.0  0.34916  0.81954  0.62410  1.0000
  C   C124      1.0  0.07232  0.76797  0.58268  1.0000
  C   C125      1.0  0.10428  0.74007  0.55252  1.0000
  S   S41       1.0  0.02208  0.86887  0.96314  1.0000
  S   S42       1.0  0.52309  0.06715  0.15874  1.0000
  H   H130      1.0  0.53178  0.36769  0.18624  1.0000
  Fe  Fe21      1.0  0.63261  0.25984  0.27912  1.0000
  S   S43       1.0  0.55784  0.29915  0.27435  1.0000
  H   H131      1.0  0.52131  0.06595  0.34142  1.0000
  H   H132      1.0  0.64676  0.06766  0.31698  1.0000
  H   H133      1.0  0.47598  0.47277  0.37110  1.0000
  C   C126      1.0  0.52240  0.03790  0.21773  1.0000
  H   H134      1.0  0.65815  0.10660  0.41652  1.0000
  S   S44       1.0  0.46997  0.46003  0.19037  1.0000
  H   H135      1.0  0.53278  0.10431  0.25785  1.0000
  S   S45       1.0  0.55661  0.06319  0.45763  1.0000
  C   C127      1.0  0.42224  0.24365  0.15505  1.0000
  H   H136      1.0  0.59149  0.49063  0.39032  1.0000
  S   S46       1.0  0.43151  0.46043  0.46540  1.0000
  C   C128      1.0  0.47350  0.46790  0.29127  1.0000
  H   H137      1.0  0.45229  0.09946  0.39891  1.0000
  H   H138      1.0  0.47428  0.42826  0.29166  1.0000
  S   S47       1.0  0.43747  0.43788  0.06079  1.0000
  C   C129      1.0  0.50258  0.26869  0.27602  1.0000
  C   C130      1.0  0.45840  0.29682  0.27838  1.0000
  C   C131      1.0  0.41344  0.27413  0.28002  1.0000
  C   C132      1.0  0.41233  0.22307  0.27948  1.0000
  C   C133      1.0  0.45646  0.19489  0.27593  1.0000
  C   C134      1.0  0.50160  0.21761  0.27441  1.0000
  H   H139      1.0  0.45893  0.33639  0.27888  1.0000
  H   H140      1.0  0.37968  0.29622  0.28163  1.0000
  H   H141      1.0  0.45578  0.15538  0.27518  1.0000
  H   H142      1.0  0.53552  0.19571  0.27213  1.0000
  C   C135      1.0  0.51985  0.04403  0.30835  1.0000
  C   C136      1.0  0.52614  0.06571  0.26102  1.0000
  C   C137      1.0  0.44622  0.32753  0.15267  1.0000
  H   H143      1.0  0.48199  0.18910  0.15467  1.0000
  H   H144      1.0  0.56932  0.33134  0.14435  1.0000
  C   C138      1.0  0.51836  0.30374  0.49771  1.0000
  C   C139      1.0  0.66601  0.22614  0.52062  1.0000
  C   C140      1.0  0.58795  0.39787  0.36123  1.0000
  H   H145      1.0  0.59045  0.40089  0.26205  1.0000
  H   H146      1.0  0.39410  0.21706  0.15812  1.0000
  H   H147      1.0  0.37123  0.30631  0.15709  1.0000
  C   C141      1.0  0.53206  0.34831  0.15011  1.0000
  N   N12       1.0  0.59260  0.44138  0.32930  1.0000
  C   C142      1.0  0.39934  0.15863  0.41286  1.0000
  Fe  Fe22      1.0  0.49872  0.08325  0.51483  1.0000
  H   H148      1.0  0.40248  0.30236  0.44606  1.0000
  C   C143      1.0  0.47201  0.49363  0.24570  1.0000
  S   S48       1.0  0.53960  0.36059  0.47799  1.0000
  H   H149      1.0  0.59304  0.47443  0.20728  1.0000
  C   C144      1.0  0.39162  0.20950  0.41568  1.0000
  H   H150      1.0  0.45411  0.31303  0.40694  1.0000
  C   C145      1.0  0.39715  0.06118  0.24629  1.0000
  H   H151      1.0  0.52479  0.37561  0.11955  1.0000
  C   C146      1.0  0.47153  0.22799  0.15318  1.0000
  H   H152      1.0  0.66603  0.11406  0.50848  1.0000
  S   S49       1.0  0.66092  0.20442  0.33652  1.0000
  C   C147      1.0  0.44572  0.13887  0.40067  1.0000
  C   C148      1.0  0.59337  0.48674  0.35021  1.0000
  N   N13       1.0  0.42905  0.23983  0.40654  1.0000
  C   C149      1.0  0.47447  0.22082  0.39379  1.0000
  C   C150      1.0  0.35473  0.50930  0.21407  1.0000
  C   C151      1.0  0.64975  0.03599  0.17050  1.0000
  H   H153      1.0  0.39495  0.30603  0.37914  1.0000
  C   C152      1.0  0.41971  0.29299  0.40969  1.0000
  H   H154      1.0  0.50411  0.24482  0.38601  1.0000
  C   C153      1.0  0.48297  0.21128  0.52189  1.0000
  C   C154      1.0  0.54495  0.26076  0.48450  1.0000
  H   H155      1.0  0.42006  0.08328  0.22106  1.0000
  Fe  Fe23      1.0  0.52478  0.01772  0.09167  1.0000
  H   H156      1.0  0.40423  0.02890  0.15305  1.0000
  H   H157      1.0  0.60676  0.36506  0.34458  1.0000
  H   H158      1.0  0.57867  0.26325  0.46370  1.0000
  C   C155      1.0  0.50739  0.26284  0.15135  1.0000
  H   H159      1.0  0.51984  0.15525  0.38158  1.0000
  H   H160      1.0  0.66287  0.07233  0.18074  1.0000
  H   H161      1.0  0.54870  0.39031  0.36641  1.0000
  C   C156      1.0  0.48362  0.17008  0.39112  1.0000
  H   H162      1.0  0.54836  0.18156  0.48662  1.0000
  H   H163      1.0  0.35645  0.49662  0.17596  1.0000
  C   C157      1.0  0.47403  0.49310  0.33640  1.0000
  Fe  Fe24      1.0  0.49953  0.42984  0.50319  1.0000
  H   H164      1.0  0.43613  0.36642  0.15338  1.0000
  H   H165      1.0  0.60459  0.40267  0.39848  1.0000
  H   H166      1.0  0.54563  0.25037  0.15163  1.0000
  N   N14       1.0  0.49444  0.31188  0.15081  1.0000
  Fe  Fe25      1.0  0.46269  0.49429  0.11330  1.0000
  C   C158      1.0  0.40940  0.29372  0.15471  1.0000
  H   H167      1.0  0.41320  0.06353  0.28412  1.0000
  C   C159      1.0  0.59267  0.43672  0.27861  1.0000
  C   C160      1.0  0.52776  0.21456  0.49726  1.0000
  S   S50       1.0  0.67058  0.22235  0.21485  1.0000
  S   S51       1.0  0.45008  0.02221  0.49638  1.0000
  C   C161      1.0  0.59430  0.47816  0.24744  1.0000
  C   C162      1.0  0.66828  0.03474  0.30786  1.0000
  S   S52       1.0  0.54137  0.49835  0.49604  1.0000
  H   H168      1.0  0.36966  0.13473  0.42047  1.0000
  H   H169      1.0  0.66623  0.23471  0.44054  1.0000
  C   C163      1.0  0.68653  0.23915  0.47444  1.0000
  H   H170      1.0  0.35934  0.07793  0.24684  1.0000
  H   H171      1.0  0.62423  0.04132  0.13864  1.0000
  Fe  Fe26      1.0  0.59035  0.01430  0.51808  1.0000
  H   H172      1.0  0.67672  0.03109  0.03627  1.0000
  H   H173      1.0  0.62947  0.02190  0.20324  1.0000
  S   S53       1.0  0.35645  0.19369  0.28389  1.0000
  H   H174      1.0  0.35552  0.22458  0.42531  1.0000
  N   N15       1.0  0.39674  0.01014  0.23004  1.0000
  H   H175      1.0  0.63030  0.21102  0.52215  1.0000
  H   H176      1.0  0.47429  0.29198  0.94493  1.0000
  C   C164      1.0  0.60096  0.02005  0.87383  1.0000
  Fe  Fe27      1.0  0.50062  0.45686  0.01234  1.0000
  H   H177      1.0  0.42677  0.04871  0.62960  1.0000
  S   S54       1.0  0.68304  0.22570  0.76734  1.0000
  C   C165      1.0  0.60315  0.31543  0.66476  1.0000
  C   C166      1.0  0.40433  0.26546  0.92310  1.0000
  S   S55       1.0  0.45700  0.15434  0.53250  1.0000
  S   S56       1.0  0.53637  0.04041  0.57618  1.0000
  H   H178      1.0  0.41414  0.22723  0.93150  1.0000
  S   S57       1.0  0.47273  0.44759  0.57980  1.0000
  C   C167      1.0  0.42468  0.35046  0.91886  1.0000
  H   H179      1.0  0.59663  0.38807  0.56115  1.0000
  H   H180      1.0  0.60319  0.27717  0.67612  1.0000
  H   H181      1.0  0.67320  0.08583  0.88084  1.0000
  N   N16       1.0  0.64874  0.01356  0.88826  1.0000
  H   H182      1.0  0.44356  0.12743  0.83804  1.0000
  H   H183      1.0  0.36243  0.17100  0.82602  1.0000
  C   C168      1.0  0.41438  0.03587  0.70757  1.0000
  C   C169      1.0  0.67369  0.05517  0.90852  1.0000
  H   H184      1.0  0.65450  0.44187  0.72962  1.0000
  H   H185      1.0  0.39371  0.03164  0.78515  1.0000
  H   H186      1.0  0.42196  0.25198  0.55492  1.0000
  C   C170      1.0  0.64733  0.37094  0.85717  1.0000
  C   C171      1.0  0.62891  0.41744  0.87180  1.0000
  C   C172      1.0  0.59487  0.42241  0.91102  1.0000
  C   C173      1.0  0.57925  0.38080  0.93610  1.0000
  C   C174      1.0  0.59758  0.33423  0.92140  1.0000
  C   C175      1.0  0.63139  0.32924  0.88193  1.0000
  H   H187      1.0  0.58110  0.45842  0.92212  1.0000
  H   H188      1.0  0.58555  0.30186  0.94060  1.0000
  C   C176      1.0  0.43798  0.30155  0.93050  1.0000
  C   C177      1.0  0.42224  0.08854  0.90449  1.0000
  C   C178      1.0  0.59949  0.37769  0.60020  1.0000
  C   C179      1.0  0.60827  0.35195  0.70012  1.0000
  S   S58       1.0  0.47977  0.05686  0.91083  1.0000
  C   C180      1.0  0.35870  0.12018  0.60963  1.0000
  C   C181      1.0  0.60406  0.41337  0.63659  1.0000
  C   C182      1.0  0.41418  0.12124  0.86412  1.0000
  H   H189      1.0  0.38715  0.44005  0.90899  1.0000
  Fe  Fe28      1.0  0.50018  0.01318  0.98102  1.0000
  N   N17       1.0  0.60796  0.40026  0.68587  1.0000
  C   C183      1.0  0.38419  0.08093  0.93811  1.0000
  S   S59       1.0  0.56566  0.03841  0.02227  1.0000
  H   H190      1.0  0.65530  0.06768  0.94330  1.0000
  Fe  Fe29      1.0  0.40806  0.48500  0.54152  1.0000
  H   H191      1.0  0.37503  0.41995  0.84637  1.0000
  C   C184      1.0  0.59890  0.32843  0.61447  1.0000
  H   H192      1.0  0.64123  0.44988  0.85293  1.0000
  H   H193      1.0  0.61274  0.34140  0.73903  1.0000
  S   S60       1.0  0.66704  0.21178  0.62176  1.0000
  H   H194      1.0  0.58167  0.05543  0.87778  1.0000
  S   S61       1.0  0.53705  0.38516  0.98598  1.0000
  H   H195      1.0  0.59787  0.42749  0.75949  1.0000
  C   C185      1.0  0.61477  0.43782  0.72335  1.0000
  H   H196      1.0  0.64506  0.29326  0.87072  1.0000
  H   H197      1.0  0.60455  0.45160  0.62515  1.0000
  H   H198      1.0  0.45118  0.37823  0.92425  1.0000
  C   C186      1.0  0.38655  0.04940  0.74928  1.0000
  H   H199      1.0  0.38991  0.05573  0.96921  1.0000
  H   H200      1.0  0.59753  0.47380  0.71153  1.0000
  H   H201      1.0  0.59568  0.30028  0.58657  1.0000
  C   C187      1.0  0.40483  0.05945  0.66176  1.0000
  H   H202      1.0  0.37784  0.10105  0.57836  1.0000
  C   C188      1.0  0.36664  0.41414  0.88644  1.0000
  N   N18       1.0  0.37902  0.36315  0.90084  1.0000
  N   N19       1.0  0.36827  0.09526  0.65756  1.0000
  C   C189      1.0  0.45660  0.25435  0.53568  1.0000
  C   C190      1.0  0.36826  0.14590  0.85719  1.0000
  H   H203      1.0  0.45379  0.33358  0.53451  1.0000
  H   H204      1.0  0.37138  0.15822  0.61074  1.0000
  C   C191      1.0  0.47451  0.30055  0.52411  1.0000
  H   H205      1.0  0.37419  0.50622  0.69714  1.0000
  C   C192      1.0  0.35792  0.27874  0.90448  1.0000
  Fe  Fe30      1.0  0.39441  0.49857  0.02283  1.0000
  H   H206      1.0  0.61834  0.98588  0.34317  1.0000
  H   H207      1.0  0.59557  0.55717  0.24482  1.0000
  H   H208      1.0  0.47019  0.60958  0.29065  1.0000
  H   H209      1.0  0.57177  0.72241  0.36566  1.0000
  S   S62       1.0  0.45692  0.99885  0.05069  1.0000
  S   S63       1.0  0.55712  0.94090  0.09415  1.0000
  C   C193      1.0  0.40006  0.99976  0.18037  1.0000
  H   H210      1.0  0.56700  0.68661  0.13406  1.0000
  S   S64       1.0  0.60050  0.67755  0.23864  1.0000
  S   S65       1.0  0.39448  0.79233  0.25319  1.0000
  C   C194      1.0  0.47158  0.57004  0.29079  1.0000
  C   C195      1.0  0.47282  0.54429  0.33634  1.0000
  Fe  Fe31      1.0  0.47144  0.53032  0.46289  1.0000
  S   S66       1.0  0.41290  0.55449  0.07973  1.0000
  S   S67       1.0  0.49166  0.96779  0.36929  1.0000
  C   C196      1.0  0.59405  0.69434  0.05914  1.0000
  S   S68       1.0  0.47254  0.57676  0.39262  1.0000
  H   H211      1.0  0.39605  0.87565  0.18679  1.0000
  H   H212      1.0  0.47061  0.68678  0.40074  1.0000
  Fe  Fe32      1.0  0.66567  0.72438  0.24858  1.0000
  C   C197      1.0  0.54709  0.75463  0.36750  1.0000
  H   H213      1.0  0.42706  0.78733  0.36584  1.0000
  H   H214      1.0  0.46008  0.86985  0.37009  1.0000
  C   C198      1.0  0.54333  0.71038  0.23752  1.0000
  C   C199      1.0  0.50059  0.68615  0.22692  1.0000
  C   C200      1.0  0.45438  0.71106  0.22967  1.0000
  C   C201      1.0  0.45104  0.76070  0.24203  1.0000
  C   C202      1.0  0.49401  0.78548  0.24969  1.0000
  C   C203      1.0  0.53988  0.76034  0.24808  1.0000
  H   H215      1.0  0.50324  0.64787  0.21722  1.0000
  H   H216      1.0  0.42149  0.69174  0.22309  1.0000
  H   H217      1.0  0.49176  0.82405  0.25858  1.0000
  H   H218      1.0  0.57238  0.77958  0.25627  1.0000
  C   C204      1.0  0.46272  0.79691  0.05406  1.0000
  C   C205      1.0  0.39116  0.92442  0.24952  1.0000
  H   H219      1.0  0.44851  0.67718  0.08858  1.0000
  C   C206      1.0  0.46637  0.79081  0.36763  1.0000
  S   S69       1.0  0.54838  0.94808  0.50088  1.0000
  C   C207      1.0  0.47757  0.70145  0.36272  1.0000
  S   S70       1.0  0.66512  0.79935  0.21338  1.0000
  S   S71       1.0  0.65779  0.88747  0.32593  1.0000
  C   C208      1.0  0.50874  0.96617  0.26926  1.0000
  Fe  Fe33      1.0  0.51070  0.99847  0.44406  1.0000
  H   H220      1.0  0.51211  0.96589  0.18918  1.0000
  H   H221      1.0  0.50137  0.92766  0.27215  1.0000
  H   H222      1.0  0.35562  0.58571  0.19370  1.0000
  C   C209      1.0  0.48479  0.83762  0.36977  1.0000
  C   C210      1.0  0.56667  0.80095  0.36960  1.0000
  C   C211      1.0  0.53530  0.84264  0.37033  1.0000
  N   N20       1.0  0.49751  0.75016  0.36559  1.0000
  H   H223      1.0  0.60589  0.80481  0.36964  1.0000
  H   H224      1.0  0.36322  0.59446  0.36748  1.0000
  H   H225      1.0  0.59462  0.65539  0.05169  1.0000
  C   C212      1.0  0.51510  0.98777  0.22210  1.0000
  C   C213      1.0  0.39150  0.97329  0.26445  1.0000
  C   C214      1.0  0.57617  0.76222  0.11369  1.0000
  C   C215      1.0  0.47145  0.54480  0.24544  1.0000
  C   C216      1.0  0.45832  0.70811  0.06569  1.0000
  H   H226      1.0  0.44286  0.70278  0.34119  1.0000
  S   S72       1.0  0.45171  0.85686  0.07717  1.0000
  H   H227      1.0  0.47020  0.56485  0.21040  1.0000
  H   H228      1.0  0.55029  0.87876  0.37079  1.0000
  C   C217      1.0  0.50967  0.99444  0.31238  1.0000
  H   H229      1.0  0.36736  0.53245  0.38911  1.0000
  H   H230      1.0  0.50329  0.67538  0.34320  1.0000
  H   H231      1.0  0.59446  0.56494  0.33677  1.0000
  C   C218      1.0  0.57838  0.71191  0.10528  1.0000
  C   C219      1.0  0.39954  0.95128  0.16421  1.0000
  H   H232      1.0  0.38816  0.89513  0.27690  1.0000
  C   C220      1.0  0.59008  0.79430  0.07579  1.0000
  Fe  Fe34      1.0  0.49212  0.92234  0.04854  1.0000
  H   H233      1.0  0.56294  0.77638  0.14897  1.0000
  H   H234      1.0  0.43095  0.76212  0.11827  1.0000
  C   C221      1.0  0.59506  0.52893  0.32016  1.0000
  C   C222      1.0  0.44860  0.75629  0.08253  1.0000
  N   N21       1.0  0.60470  0.77681  0.03039  1.0000
  H   H235      1.0  0.58813  0.83334  0.08251  1.0000
  C   C223      1.0  0.65204  0.98841  0.32225  1.0000
  C   C224      1.0  0.39552  0.91344  0.19906  1.0000
  H   H236      1.0  0.38912  0.98133  0.30387  1.0000
  H   H237      1.0  0.40270  0.94270  0.12498  1.0000
  Fe  Fe35      1.0  0.47732  0.56701  0.02929  1.0000
  H   H238      1.0  0.64451  0.94036  0.15885  1.0000
  C   C225      1.0  0.59552  0.52453  0.26846  1.0000
  C   C226      1.0  0.68069  0.95316  0.15127  1.0000
  C   C227      1.0  0.67856  0.94536  0.30845  1.0000
  H   H239      1.0  0.68393  0.99990  0.43808  1.0000
  C   C228      1.0  0.35429  0.55926  0.22406  1.0000
  H   H240      1.0  0.68757  0.85908  0.43926  1.0000
  S   S73       1.0  0.52868  0.51050  0.06703  1.0000
  S   S74       1.0  0.52970  0.93498  0.97527  1.0000
  H   H241      1.0  0.66872  0.89385  0.86055  1.0000
  H   H242      1.0  0.36557  0.67145  0.61916  1.0000
  H   H243      1.0  0.53795  0.98651  0.84355  1.0000
  S   S75       1.0  0.45904  0.94159  0.62295  1.0000
  C   C229      1.0  0.67273  0.96870  0.88414  1.0000
  H   H244      1.0  0.44513  0.63643  0.65080  1.0000
  C   C230      1.0  0.60057  0.93550  0.84909  1.0000
  H   H245      1.0  0.59218  0.84258  0.98821  1.0000
  S   S76       1.0  0.54496  0.54248  0.64135  1.0000
  C   C231      1.0  0.57718  0.86690  0.65625  1.0000
  C   C232      1.0  0.58567  0.59063  0.64548  1.0000
  C   C233      1.0  0.60293  0.60355  0.69256  1.0000
  C   C234      1.0  0.63573  0.64138  0.69741  1.0000
  C   C235      1.0  0.65183  0.66626  0.65504  1.0000
  C   C236      1.0  0.63466  0.65325  0.60797  1.0000
  C   C237      1.0  0.60156  0.61570  0.60316  1.0000
  H   H246      1.0  0.59072  0.58436  0.72551  1.0000
  C   C238      1.0  0.64921  0.92913  0.86420  1.0000
  H   H247      1.0  0.41980  0.88343  0.54280  1.0000
  H   H248      1.0  0.58864  0.60597  0.56674  1.0000
  H   H249      1.0  0.40446  0.89773  0.70128  1.0000
  H   H250      1.0  0.38201  0.66235  0.00561  1.0000
  C   C239      1.0  0.36727  0.63541  0.63687  1.0000
  H   H251      1.0  0.54016  0.85586  0.66339  1.0000
  C   C240      1.0  0.39486  0.88033  0.66695  1.0000
  C   C241      1.0  0.41613  0.89521  0.62185  1.0000
  C   C242      1.0  0.41226  0.61598  0.65481  1.0000
  H   H252      1.0  0.39734  0.69243  0.87198  1.0000
  C   C243      1.0  0.41485  0.56938  0.67689  1.0000
  C   C244      1.0  0.66258  0.84701  0.63978  1.0000
  S   S77       1.0  0.49882  0.64089  0.99822  1.0000
  C   C245      1.0  0.58671  0.91654  0.65299  1.0000
  C   C246      1.0  0.40359  0.87232  0.57772  1.0000
  H   H253      1.0  0.58187  0.90503  0.83376  1.0000
  H   H254      1.0  0.64707  0.67224  0.57501  1.0000
  C   C247      1.0  0.61543  0.83178  0.65003  1.0000
  C   C248      1.0  0.57609  0.98116  0.85420  1.0000
  S   S78       1.0  0.66837  0.93089  0.00255  1.0000
  H   H255      1.0  0.44969  0.55349  0.68998  1.0000
  H   H256      1.0  0.61754  0.71358  0.98543  1.0000
  H   H257      1.0  0.49571  0.81996  0.98538  1.0000
  H   H258      1.0  0.51253  0.73532  0.95535  1.0000
  H   H259      1.0  0.64130  0.96912  0.64044  1.0000
  C   C249      1.0  0.49458  0.74100  0.99091  1.0000
  C   C250      1.0  0.40387  0.67777  0.91033  1.0000
  H   H260      1.0  0.64861  0.65113  0.73385  1.0000
  Fe  Fe36      1.0  0.49146  0.97770  0.55447  1.0000
  C   C251      1.0  0.48185  0.70031  0.01994  1.0000
  Fe  Fe37      1.0  0.50851  0.51943  0.56999  1.0000
  H   H261      1.0  0.62287  0.79382  0.95457  1.0000
  C   C252      1.0  0.60661  0.72754  0.02166  1.0000
  H   H262      1.0  0.44304  0.00709  0.71042  1.0000
  H   H263      1.0  0.55739  0.94421  0.65776  1.0000
  H   H264      1.0  0.60878  0.79295  0.65292  1.0000
  C   C253      1.0  0.36133  0.84285  0.66808  1.0000
  H   H265      1.0  0.43609  0.65145  0.91040  1.0000
  C   C254      1.0  0.63428  0.93043  0.64296  1.0000
  C   C255      1.0  0.61945  0.81137  0.99160  1.0000
  H   H266      1.0  0.65546  0.82574  0.00124  1.0000
  N   N22       1.0  0.67145  0.89582  0.63631  1.0000
  S   S79       1.0  0.68383  0.79260  0.78408  1.0000
  H   H267      1.0  0.41209  0.70976  0.93348  1.0000
  C   C256      1.0  0.48538  0.78902  0.00796  1.0000
  Fe  Fe38      1.0  0.59208  0.95975  0.02133  1.0000
  S   S80       1.0  0.44178  0.55805  0.53636  1.0000
  C   C257      1.0  0.37261  0.54299  0.68118  1.0000
  S   S81       1.0  0.45550  0.51425  0.97031  1.0000
  C   C258      1.0  0.37038  0.83444  0.57894  1.0000
  N   N23       1.0  0.36090  0.65389  0.92998  1.0000
  H   H268      1.0  0.36113  0.81657  0.54476  1.0000
  S   S82       1.0  0.66833  0.00635  0.54601  1.0000
  C   C259      1.0  0.35502  0.64888  0.98037  1.0000
  C   C260      1.0  0.79250  0.19824  0.08117  1.0000
  N   N24       1.0  0.77629  0.21755  0.03239  1.0000
  H   H269      1.0  0.82447  0.17412  0.38190  1.0000
  Fe  Fe39      1.0  0.72353  0.25429  0.34338  1.0000
  S   S83       1.0  0.73190  0.09388  0.25649  1.0000
  S   S84       1.0  0.76237  0.27041  0.41528  1.0000
  Fe  Fe40      1.0  0.73252  0.27117  0.23006  1.0000
  S   S85       1.0  0.76778  0.30109  0.15992  1.0000
  S   S86       1.0  0.76909  0.21785  0.28367  1.0000
  H   H270      1.0  0.73088  0.11523  0.36271  1.0000
  S   S87       1.0  0.91954  0.47051  0.15943  1.0000
  C   C261      1.0  0.75912  0.26295  0.51694  1.0000
  H   H271      1.0  0.74354  0.05579  0.15293  1.0000
  C   C262      1.0  0.73433  0.11926  0.40262  1.0000
  C   C263      1.0  0.87962  0.30348  0.47930  1.0000
  C   C264      1.0  0.74826  0.26039  0.02977  1.0000
  S   S88       1.0  0.99221  0.06270  0.42133  1.0000
  H   H272      1.0  0.76184  0.20022  0.10849  1.0000
  H   H273      1.0  0.85533  0.11985  0.40905  1.0000
  C   C265      1.0  0.82118  0.13457  0.39078  1.0000
  H   H274      1.0  0.82222  0.22050  0.09560  1.0000
  C   C266      1.0  0.00724  0.24099  0.49875  1.0000
  C   C267      1.0  0.69749  0.11844  0.48434  1.0000
  C   C268      1.0  0.99951  0.28991  0.48302  1.0000
  H   H275      1.0  0.73736  0.27949  0.06348  1.0000
  H   H276      1.0  0.79483  0.27755  0.51596  1.0000
  H   H277      1.0  0.87786  0.26954  0.45898  1.0000
  Fe  Fe41      1.0  0.92869  0.02771  0.45860  1.0000
  H   H278      1.0  0.81799  0.14134  0.48963  1.0000
  C   C269      1.0  0.86959  0.34790  0.45399  1.0000
  C   C270      1.0  0.80979  0.34834  0.16054  1.0000
  C   C271      1.0  0.82477  0.36893  0.20503  1.0000
  C   C272      1.0  0.85840  0.40637  0.20401  1.0000
  C   C273      1.0  0.87717  0.42362  0.15861  1.0000
  C   C274      1.0  0.86225  0.40304  0.11411  1.0000
  C   C275      1.0  0.82872  0.36548  0.11513  1.0000
  H   H279      1.0  0.81051  0.35596  0.24019  1.0000
  H   H280      1.0  0.86983  0.42206  0.23861  1.0000
  H   H281      1.0  0.87654  0.41596  0.07893  1.0000
  H   H282      1.0  0.81736  0.34975  0.08054  1.0000
  H   H283      1.0  0.86323  0.42661  0.46078  1.0000
  C   C276      1.0  0.73354  0.25703  0.47244  1.0000
  S   S89       1.0  0.69246  0.31232  0.29060  1.0000
  H   H284      1.0  0.85997  0.34813  0.41480  1.0000
  S   S90       1.0  0.98651  0.19438  0.46072  1.0000
  H   H285      1.0  0.81785  0.11410  0.35548  1.0000
  C   C277      1.0  0.71161  0.03792  0.28042  1.0000
  N   N25       1.0  0.77867  0.12815  0.42314  1.0000
  H   H286      1.0  0.98149  0.37275  0.17982  1.0000
  Fe  Fe42      1.0  0.98774  0.11482  0.48537  1.0000
  C   C278      1.0  0.74272  0.12802  0.50490  1.0000
  C   C279      1.0  0.78309  0.13331  0.47351  1.0000
  Fe  Fe43      1.0  0.70466  0.17146  0.27296  1.0000
  H   H287      1.0  0.00236  0.36590  0.50304  1.0000
  C   C280      1.0  0.87100  0.39176  0.47984  1.0000
  H   H288      1.0  0.98316  0.29818  0.44704  1.0000
  S   S91       1.0  0.02003  0.47506  0.50390  1.0000
  Fe  Fe44      1.0  0.95184  0.50466  0.08993  1.0000
  H   H289      1.0  0.80629  0.15930  0.07925  1.0000
  H   H290      1.0  0.74868  0.08275  0.04272  1.0000
  C   C281      1.0  0.69305  0.11440  0.43284  1.0000
  S   S92       1.0  0.01327  0.47246  0.04325  1.0000
  S   S93       1.0  0.92080  0.08301  0.51913  1.0000
  C   C282      1.0  0.01056  0.32837  0.51458  1.0000
  C   C283      1.0  0.75321  0.04606  0.02825  1.0000
  C   C284      1.0  0.73595  0.01754  0.14817  1.0000
  S   S94       1.0  0.85099  0.06329  0.02401  1.0000
  C   C285      1.0  0.71242  0.01687  0.02464  1.0000
  H   H291      1.0  0.89099  0.18636  0.79881  1.0000
  S   S95       1.0  0.79329  0.25781  0.80185  1.0000
  H   H292      1.0  0.00267  0.38044  0.74838  1.0000
  H   H293      1.0  0.78855  0.19439  0.90939  1.0000
  S   S96       1.0  0.78144  0.18413  0.70659  1.0000
  H   H294      1.0  0.92184  0.13267  0.82655  1.0000
  Fe  Fe45      1.0  0.75594  0.18807  0.78575  1.0000
  S   S97       1.0  0.76989  0.12302  0.83752  1.0000
  Fe  Fe46      1.0  0.81322  0.25669  0.72079  1.0000
  S   S98       1.0  0.88582  0.26859  0.68373  1.0000
  H   H295      1.0  0.83145  0.02639  0.73242  1.0000
  S   S99       1.0  0.74572  0.30030  0.69679  1.0000
  C   C286      1.0  0.69224  0.23102  0.56485  1.0000
  C   C287      1.0  0.00539  0.06449  0.69573  1.0000
  C   C288      1.0  0.73337  0.28037  0.98363  1.0000
  Fe  Fe47      1.0  0.92569  0.03303  0.99887  1.0000
  N   N26       1.0  0.89034  0.30276  0.52911  1.0000
  C   C289      1.0  0.77787  0.02252  0.83275  1.0000
  N   N27       1.0  0.89843  0.12541  0.75124  1.0000
  C   C290      1.0  0.74781  0.25651  0.94002  1.0000
  H   H296      1.0  0.92789  0.17051  0.69429  1.0000
  H   H297      1.0  0.71281  0.09758  0.75230  1.0000
  C   C291      1.0  0.91697  0.15479  0.79167  1.0000
  H   H298      1.0  0.01523  0.08332  0.66169  1.0000
  Fe  Fe48      1.0  0.72220  0.29539  0.77696  1.0000
  Fe  Fe49      1.0  0.99882  0.04472  0.91496  1.0000
  Fe  Fe50      1.0  0.97379  0.03263  0.56138  1.0000
  C   C292      1.0  0.87143  0.08574  0.76202  1.0000
  C   C293      1.0  0.80004  0.02739  0.01475  1.0000
  C   C294      1.0  0.85211  0.05833  0.72377  1.0000
  C   C295      1.0  0.71737  0.01864  0.74955  1.0000
  H   H299      1.0  0.88246  0.42465  0.55086  1.0000
  H   H300      1.0  0.95347  0.16856  0.78200  1.0000
  C   C296      1.0  0.77680  0.21311  0.94303  1.0000
  C   C297      1.0  0.97886  0.28262  0.79972  1.0000
  H   H301      1.0  0.80109  0.02396  0.86525  1.0000
  H   H302      1.0  0.90628  0.22521  0.53027  1.0000
  C   C298      1.0  0.93867  0.27091  0.72069  1.0000
  C   C299      1.0  0.93579  0.28033  0.77164  1.0000
  C   C300      1.0  0.98461  0.26311  0.69824  1.0000
  H   H303      1.0  0.90051  0.28687  0.78920  1.0000
  H   H304      1.0  0.98669  0.25560  0.65895  1.0000
  C   C301      1.0  0.75793  0.06619  0.81124  1.0000
  H   H305      1.0  0.89969  0.34479  0.59448  1.0000
  C   C302      1.0  0.72822  0.06412  0.76921  1.0000
  H   H306      1.0  0.74611  0.13175  0.54491  1.0000
  C   C303      1.0  0.89789  0.25598  0.55600  1.0000
  C   C304      1.0  0.89145  0.34554  0.55487  1.0000
  C   C305      1.0  0.73879  0.24979  0.56295  1.0000
  C   C306      1.0  0.88737  0.11283  0.66368  1.0000
  H   H307      1.0  0.75939  0.25369  0.59683  1.0000
  Fe  Fe51      1.0  0.71236  0.22782  0.68888  1.0000
  C   C307      1.0  0.95757  0.48893  0.80501  1.0000
  Fe  Fe52      1.0  0.01900  0.44296  0.58126  1.0000
  H   H308      1.0  0.84624  0.05052  0.64432  1.0000
  C   C308      1.0  0.01929  0.08253  0.74216  1.0000
  H   H309      1.0  0.86502  0.07490  0.80040  1.0000
  C   C309      1.0  0.79085  0.19403  0.98976  1.0000
  H   H310      1.0  0.92930  0.25759  0.58201  1.0000
  H   H311      1.0  0.97643  0.29091  0.83896  1.0000
  S   S100      1.0  0.96391  0.47873  0.90646  1.0000
  H   H312      1.0  0.95385  0.49559  0.72480  1.0000
  S   S101      1.0  0.95037  0.48485  0.60511  1.0000
  H   H313      1.0  0.73678  0.27184  0.90399  1.0000
  C   C310      1.0  0.86011  0.07210  0.67432  1.0000
  H   H314      1.0  0.89444  0.12346  0.62542  1.0000
  C   C311      1.0  0.00577  0.05890  0.78656  1.0000
  H   H315      1.0  0.93945  0.45457  0.80636  1.0000
  S   S102      1.0  0.98169  0.08925  0.98303  1.0000
  C   C312      1.0  0.90632  0.13924  0.70284  1.0000
  C   C313      1.0  0.97764  0.02291  0.69373  1.0000
  H   H316      1.0  0.81357  0.16033  0.99159  1.0000
  H   H317      1.0  0.86461  0.24812  0.57793  1.0000
  C   C314      1.0  0.88193  0.39067  0.53057  1.0000
  C   C315      1.0  0.97914  0.01665  0.78435  1.0000
  S   S103      1.0  0.69007  0.36682  0.80778  1.0000
  H   H318      1.0  0.71271  0.04555  0.91733  1.0000
  H   H319      1.0  0.69347  0.01738  0.71758  1.0000
  H   H320      1.0  0.71105  0.31433  0.98167  1.0000
  S   S104      1.0  0.02090  0.08406  0.84418  1.0000
  Fe  Fe53      1.0  0.76663  0.73256  0.29556  1.0000
  H   H321      1.0  0.81908  0.67163  0.06324  1.0000
  S   S105      1.0  0.83756  0.70832  0.33480  1.0000
  Fe  Fe54      1.0  0.74334  0.77976  0.19430  1.0000
  S   S106      1.0  0.78090  0.80423  0.12406  1.0000
  H   H322      1.0  0.84522  0.55762  0.13681  1.0000
  C   C316      1.0  0.72443  0.84646  0.42904  1.0000
  S   S107      1.0  0.77200  0.80936  0.26536  1.0000
  S   S108      1.0  0.74207  0.70232  0.22269  1.0000
  H   H323      1.0  0.84589  0.87749  0.32595  1.0000
  C   C317      1.0  0.75440  0.87767  0.40248  1.0000
  H   H324      1.0  0.89672  0.78497  0.05886  1.0000
  C   C318      1.0  0.87175  0.59056  0.20293  1.0000
  H   H325      1.0  0.80279  0.74617  0.43444  1.0000
  S   S109      1.0  0.97719  0.98439  0.04577  1.0000
  C   C319      1.0  0.83181  0.89511  0.36051  1.0000
  C   C320      1.0  0.93174  0.78136  0.03998  1.0000
  C   C321      1.0  0.84865  0.65866  0.37706  1.0000
  C   C322      1.0  0.89465  0.65336  0.40021  1.0000
  C   C323      1.0  0.90558  0.61432  0.43376  1.0000
  C   C324      1.0  0.87062  0.57992  0.44430  1.0000
  C   C325      1.0  0.82452  0.58525  0.42119  1.0000
  C   C326      1.0  0.81346  0.62455  0.38782  1.0000
  H   H326      1.0  0.92214  0.67952  0.39208  1.0000
  H   H327      1.0  0.94122  0.61057  0.45111  1.0000
  H   H328      1.0  0.79728  0.55876  0.42907  1.0000
  H   H329      1.0  0.77796  0.62812  0.37014  1.0000
  Fe  Fe55      1.0  0.95846  0.60686  0.04099  1.0000
  C   C327      1.0  0.72205  0.94882  0.28164  1.0000
  H   H330      1.0  0.85429  0.80290  0.38778  1.0000
  H   H331      1.0  0.74294  0.91601  0.27111  1.0000
  H   H332      1.0  0.71884  0.77404  0.46090  1.0000
  C   C328      1.0  0.76047  0.78266  0.06673  1.0000
  C   C329      1.0  0.72124  0.00338  0.50843  1.0000
  C   C330      1.0  0.73881  0.99488  0.26838  1.0000
  H   H333      1.0  0.86313  0.90473  0.38417  1.0000
  C   C331      1.0  0.73526  0.73952  0.06419  1.0000
  S   S110      1.0  0.91262  0.54257  0.02590  1.0000
  C   C332      1.0  0.76432  0.93572  0.12607  1.0000
  C   C333      1.0  0.81006  0.00580  0.50352  1.0000
  C   C334      1.0  0.78899  0.78333  0.42624  1.0000
  H   H334      1.0  0.83885  0.71378  0.13641  1.0000
  C   C335      1.0  0.74189  0.79893  0.44091  1.0000
  N   N28       1.0  0.80047  0.86207  0.38806  1.0000
  C   C336      1.0  0.81798  0.81561  0.39974  1.0000
  S   S111      1.0  0.97700  0.97475  0.50278  1.0000
  H   H335      1.0  0.73993  0.91404  0.39251  1.0000
  H   H336      1.0  0.89384  0.63394  0.26481  1.0000
  C   C337      1.0  0.71745  0.91973  0.13527  1.0000
  S   S112      1.0  0.99246  0.57126  0.10839  1.0000
  N   N29       1.0  0.83955  0.63583  0.13192  1.0000
  C   C338      1.0  0.84790  0.67899  0.15497  1.0000
  C   C339      1.0  0.85148  0.59195  0.15510  1.0000
  C   C340      1.0  0.86781  0.67893  0.20293  1.0000
  C   C341      1.0  0.77388  0.98484  0.13304  1.0000
  C   C342      1.0  0.87940  0.63439  0.22716  1.0000
  C   C343      1.0  0.81452  0.63643  0.08368  1.0000
  H   H337      1.0  0.84501  0.00705  0.52202  1.0000
  H   H338      1.0  0.83012  0.60706  0.05944  1.0000
  H   H339      1.0  0.81187  0.93003  0.34951  1.0000
  H   H340      1.0  0.72748  0.71919  0.09792  1.0000
  H   H341      1.0  0.88104  0.55559  0.22110  1.0000
  S   S113      1.0  0.88335  0.52968  0.48555  1.0000
  H   H342      1.0  0.79297  0.91014  0.11300  1.0000
  H   H343      1.0  0.87323  0.71323  0.22159  1.0000
  H   H344      1.0  0.77487  0.63144  0.08929  1.0000
  Fe  Fe56      1.0  0.69358  0.82190  0.28740  1.0000
  H   H345      1.0  0.76034  0.00267  0.38780  1.0000
  H   H346      1.0  0.70947  0.88178  0.12938  1.0000
  C   C344      1.0  0.80789  0.00502  0.45158  1.0000
  H   H347      1.0  0.79033  0.84191  0.02480  1.0000
  S   S114      1.0  0.69000  0.74772  0.32427  1.0000
  H   H348      1.0  0.93537  0.85919  0.02555  1.0000
  S   S115      1.0  0.92269  0.68240  0.05043  1.0000
  C   C345      1.0  0.95392  0.73463  0.03240  1.0000
  S   S116      1.0  0.86166  0.00778  0.41562  1.0000
  C   C346      1.0  0.76231  0.00256  0.42807  1.0000
  C   C347      1.0  0.71900  0.00120  0.45645  1.0000
  H   H349      1.0  0.77274  0.99713  0.24784  1.0000
  H   H350      1.0  0.81009  0.99782  0.12544  1.0000
  N   N30       1.0  0.69006  0.00144  0.15702  1.0000
  C   C348      1.0  0.98425  0.69052  0.88059  1.0000
  C   C349      1.0  0.72045  0.91098  0.62264  1.0000
  C   C350      1.0  0.71823  0.96911  0.00680  1.0000
  H   H351      1.0  0.76889  0.00683  0.57196  1.0000
  H   H352      1.0  0.90043  0.67770  0.92733  1.0000
  H   H353      1.0  0.76931  0.91444  0.97727  1.0000
  H   H354      1.0  0.84153  0.96530  0.98546  1.0000
  C   C351      1.0  0.84009  0.57963  0.76578  1.0000
  H   H355      1.0  0.76937  0.54898  0.77454  1.0000
  C   C352      1.0  0.79167  0.57282  0.75231  1.0000
  H   H356      1.0  0.98904  0.78783  0.86633  1.0000
  C   C353      1.0  0.76476  0.95106  0.99185  1.0000
  Fe  Fe57      1.0  0.82341  0.76027  0.77906  1.0000
  S   S117      1.0  0.79130  0.81305  0.83550  1.0000
  S   S118      1.0  0.89886  0.72313  0.77672  1.0000
  Fe  Fe58      1.0  0.72405  0.74264  0.73066  1.0000
  H   H357      1.0  0.83937  0.74087  0.95459  1.0000
  Fe  Fe59      1.0  0.74518  0.84317  0.77159  1.0000
  S   S119      1.0  0.71916  0.91918  0.74650  1.0000
  Fe  Fe60      1.0  0.73286  0.75845  0.84362  1.0000
  H   H358      1.0  0.72669  0.94832  0.63656  1.0000
  S   S120      1.0  0.78284  0.79519  0.71454  1.0000
  S   S121      1.0  0.76752  0.70376  0.79101  1.0000
  H   H359      1.0  0.91752  0.66420  0.67706  1.0000
  C   C354      1.0  0.77192  0.59741  0.71052  1.0000
  H   H360      1.0  0.96875  0.99807  0.81830  1.0000
  C   C355      1.0  0.99682  0.72404  0.76059  1.0000
  H   H361      1.0  0.87662  0.65751  0.62570  1.0000
  C   C356      1.0  0.99903  0.73022  0.00800  1.0000
  H   H362      1.0  0.92855  0.85215  0.89249  1.0000
  C   C357      1.0  0.92155  0.81391  0.89949  1.0000
  H   H363      1.0  0.86482  0.70559  0.67098  1.0000
  C   C358      1.0  0.76784  0.97689  0.81232  1.0000
  H   H364      1.0  0.78533  0.64772  0.65043  1.0000
  C   C359      1.0  0.73673  0.97494  0.77121  1.0000
  C   C360      1.0  0.96511  0.99876  0.73805  1.0000
  H   H365      1.0  0.78314  0.94332  0.82905  1.0000
  S   S122      1.0  0.99894  0.58703  0.69981  1.0000
  C   C361      1.0  0.75416  0.79250  0.97654  1.0000
  C   C362      1.0  0.72946  0.74899  0.97386  1.0000
  S   S123      1.0  0.99888  0.58287  0.55586  1.0000
  S   S124      1.0  0.69405  0.71309  0.65881  1.0000
  H   H366      1.0  0.76001  0.81403  0.94319  1.0000
  H   H367      1.0  0.90525  0.61713  0.74852  1.0000
  S   S125      1.0  0.70534  0.72899  0.91723  1.0000
  C   C363      1.0  0.97273  0.50997  0.84946  1.0000
  H   H368      1.0  0.85587  0.56116  0.79845  1.0000
  C   C364      1.0  0.80115  0.62824  0.68250  1.0000
  H   H369      1.0  0.94382  0.96641  0.73665  1.0000
  H   H370      1.0  0.72452  0.91151  0.58150  1.0000
  C   C365      1.0  0.95318  0.75280  0.76381  1.0000
  C   C366      1.0  0.99748  0.81873  0.99460  1.0000
  C   C367      1.0  0.95445  0.80376  0.75933  1.0000
  H   H371      1.0  0.70298  0.68781  0.01577  1.0000
  H   H372      1.0  0.92091  0.82626  0.76184  1.0000
  C   C368      1.0  0.99623  0.55426  0.84743  1.0000
  H   H373      1.0  0.01823  0.70595  0.86558  1.0000
  C   C369      1.0  0.99956  0.82567  0.75234  1.0000
  S   S126      1.0  0.93931  0.99190  0.92748  1.0000
  C   C370      1.0  0.95586  0.77724  0.88500  1.0000
  C   C371      1.0  0.87157  0.75159  0.93441  1.0000
  S   S127      1.0  0.95681  0.00028  0.63697  1.0000
  Fe  Fe61      1.0  0.99519  0.94767  0.97320  1.0000
  H   H374      1.0  0.85321  0.82907  0.93761  1.0000
  C   C372      1.0  0.86811  0.61097  0.73706  1.0000
  Fe  Fe62      1.0  0.99997  0.54276  0.62954  1.0000
  H   H375      1.0  0.73409  0.59315  0.70007  1.0000
  C   C373      1.0  0.98967  0.55613  0.75685  1.0000
  C   C374      1.0  0.87836  0.66701  0.66573  1.0000
  C   C375      1.0  0.96600  0.51192  0.75879  1.0000
  N   N31       1.0  0.94814  0.72899  0.89521  1.0000
  H   H376      1.0  0.71019  0.96307  0.89668  1.0000
  C   C376      1.0  0.90640  0.71591  0.91901  1.0000
  N   N32       1.0  0.84874  0.63424  0.69565  1.0000
  H   H377      1.0  0.00046  0.86510  0.74885  1.0000
  C   C377      1.0  0.87941  0.80093  0.92484  1.0000
  C   C378      1.0  0.80563  0.97996  0.99606  1.0000
  H   H378      1.0  0.99583  0.68460  0.76297  1.0000
  C   C379      1.0  0.76689  0.00510  0.53179  1.0000
  Fe  Fe63      1.0  0.95439  0.52149  0.52924  1.0000
  C   C380      1.0  0.00478  0.57715  0.80125  1.0000
  H   H379      1.0  0.96832  0.66775  0.85139  1.0000
  H   H380      1.0  0.74916  0.88606  0.63978  1.0000
  C   C381      1.0  0.72111  0.72205  0.01770  1.0000
  Fe  Fe64      1.0  0.97719  0.51574  0.97980  1.0000
  H   H381      1.0  0.01653  0.69442  0.00236  1.0000
  H   H382      1.0  0.99447  0.66688  0.91322  1.0000
  S   S128      1.0  0.02000  0.58334  0.98985  1.0000
  C   C382      1.0  0.02068  0.77218  0.98905  1.0000
  H   H383      1.0  0.69204  0.81951  0.63470  1.0000
  H   H384      1.0  0.00875  0.57033  0.88132  1.0000
  C   C383      1.0  0.95357  0.82345  0.02125  1.0000
  C   C384      1.0  0.77061  0.80864  0.02280  1.0000
