data_image0
_chemical_formula_structural       H2SFeC2FeCSFeS2CH2CFeSHCSHC6H4SH3CH2SFeCNC4SH4CNCHCHCHCFeSHC2H3C2SFeHSC3HFeS2FeSFeCHCHFeSH3SHC3H3NC8H3C2H2CSC2SC2NH5SC2SCSCNHCH4C2HC2H4FeSHFeCSFeSH2SH4CHC7H4C3H4C2HCH2SHCHCSCSHCHNC4HCHSFeNCHC3HCFeSCFeHCHCH2CH3CSC2H2CNSCHCHCH2CHC5SC2H2FeH3CHNC2H2CHC2HFeC2H3SCHSH2CH2CHC4SCH2CHFeS2FeSCHFeCSCHSH3C2SHC6H4NC2HCHCHC2H2SHFeHSCFeSHCHSCNCHCH2FeHC2H3CHCH2CNC3HCHCSC2HCH3CFeSFeSCHSCHC2HC3H3C2FeH2CH3CNCH2SCH2SC2HCH3C2HSCHFeSFeSCSHNCHC7H4C3HFeCH2SHC2SH2CSCH3CH2CSHSHCSFeCSFeHCFeS2FeSHSFeSC2SHC6H4C2H2CNHCHC3H2CSNCHFeH3SHC2HCSCHCH2CHCHCHSHSHFeSNHC2FeS2CHFeCH4SC2NHCH4SH2C7H3CSHSCSCHS2HC2SC3SCH2FeCHCFeCH3C2NH2C2H2FeC2H3NHCHFeHSCSHCFeSC2H2CNHC6H5CHSC2SHC4H2CH3SCNCNCHC2H4FeCSHC2H4CHNFeHS2HFeCH2
_chemical_formula_sum              "H288 S96 Fe48 C288 N24"
_cell_length_a       35.1002
_cell_length_b       35.312
_cell_length_c       31.8121
_cell_angle_alpha    88.8674
_cell_angle_beta     90.353
_cell_angle_gamma    119.385

_space_group_name_H-M_alt    "P 1"
_space_group_IT_number       1

loop_
  _space_group_symop_operation_xyz
  'x, y, z'

loop_
  _atom_site_type_symbol
  _atom_site_label
  _atom_site_symmetry_multiplicity
  _atom_site_fract_x
  _atom_site_fract_y
  _atom_site_fract_z
  _atom_site_occupancy
  H   H1        1.0  0.26639  0.34558  0.11761  1.0000
  H   H2        1.0  0.43423  0.13297  0.24538  1.0000
  S   S1        1.0  0.07924  0.38093  0.25029  1.0000
  Fe  Fe1       1.0  0.38671  0.37760  0.06589  1.0000
  C   C1        1.0  0.44155  0.26615  0.20769  1.0000
  C   C2        1.0  0.50526  0.04911  0.29691  1.0000
  Fe  Fe2       1.0  0.29679  0.30301  0.04444  1.0000
  C   C3        1.0  0.43317  0.21136  0.25908  1.0000
  S   S2        1.0  0.22404  0.27713  0.05261  1.0000
  Fe  Fe3       1.0  0.36917  0.28343  0.06999  1.0000
  S   S3        1.0  0.39038  0.23685  0.09809  1.0000
  S   S4        1.0  0.33854  0.31802  0.10243  1.0000
  C   C4        1.0  0.47511  0.22154  0.19736  1.0000
  H   H3        1.0  0.09420  0.38138  0.16222  1.0000
  H   H4        1.0  0.47547  0.16777  0.28210  1.0000
  C   C5        1.0  0.42451  0.24441  0.24591  1.0000
  Fe  Fe4       1.0  0.33983  0.08234  0.29825  1.0000
  S   S5        1.0  0.31752  0.12662  0.26733  1.0000
  H   H5        1.0  0.19502  0.43769  0.04397  1.0000
  C   C6        1.0  0.47542  0.47904  0.08488  1.0000
  S   S6        1.0  0.48374  0.08487  0.30094  1.0000
  H   H6        1.0  0.19586  0.32800  0.14234  1.0000
  C   C7        1.0  0.36464  0.20219  0.14201  1.0000
  C   C8        1.0  0.33694  0.20876  0.16859  1.0000
  C   C9        1.0  0.32149  0.18414  0.20615  1.0000
  C   C10       1.0  0.33362  0.15285  0.21750  1.0000
  C   C11       1.0  0.35997  0.14509  0.19016  1.0000
  C   C12       1.0  0.37541  0.16972  0.15257  1.0000
  H   H7        1.0  0.32841  0.23362  0.16079  1.0000
  H   H8        1.0  0.30088  0.19012  0.22704  1.0000
  H   H9        1.0  0.36896  0.12065  0.19827  1.0000
  H   H10       1.0  0.39661  0.16430  0.13198  1.0000
  S   S7        1.0  0.35672  0.03424  0.27053  1.0000
  H   H11       1.0  0.12742  0.38731  0.08304  1.0000
  H   H12       1.0  0.12802  0.33249  0.13302  1.0000
  H   H13       1.0  0.29086  0.38322  0.07503  1.0000
  C   C13       1.0  0.15347  0.28745  0.03508  1.0000
  H   H14       1.0  0.09273  0.47056  0.25651  1.0000
  H   H15       1.0  0.09800  0.29674  0.02387  1.0000
  S   S8        1.0  0.39804  0.11152  0.34078  1.0000
  Fe  Fe5       1.0  0.41236  0.06023  0.31680  1.0000
  C   C14       1.0  0.15730  0.38591  0.08836  1.0000
  N   N1        1.0  0.23317  0.38047  0.09942  1.0000
  C   C15       1.0  0.19608  0.35270  0.12135  1.0000
  C   C16       1.0  0.23335  0.41140  0.07270  1.0000
  C   C17       1.0  0.15761  0.35500  0.11616  1.0000
  C   C18       1.0  0.19538  0.41438  0.06652  1.0000
  S   S9        1.0  0.41815  0.44620  0.09019  1.0000
  H   H16       1.0  0.04600  0.33945  0.10329  1.0000
  H   H17       1.0  0.40288  0.25154  0.26420  1.0000
  H   H18       1.0  0.43330  0.29032  0.19600  1.0000
  H   H19       1.0  0.13591  0.26019  0.05659  1.0000
  C   C19       1.0  0.04339  0.35254  0.20909  1.0000
  N   N2        1.0  0.45839  0.20048  0.23498  1.0000
  C   C20       1.0  0.46706  0.25475  0.18323  1.0000
  H   H20       1.0  0.29551  0.40327  0.12773  1.0000
  C   C21       1.0  0.46510  0.16428  0.24865  1.0000
  H   H21       1.0  0.47850  0.27002  0.15249  1.0000
  C   C22       1.0  0.50167  0.46120  0.07372  1.0000
  H   H22       1.0  0.48719  0.42664  0.06945  1.0000
  C   C23       1.0  0.27344  0.37814  0.10543  1.0000
  Fe  Fe6       1.0  0.05647  0.36165  0.31742  1.0000
  S   S10       1.0  0.42101  0.34465  0.03826  1.0000
  H   H23       1.0  0.41802  0.19323  0.28784  1.0000
  C   C24       1.0  0.19782  0.30242  0.02667  1.0000
  C   C25       1.0  0.05999  0.35879  0.16803  1.0000
  H   H24       1.0  0.49087  0.16252  0.23006  1.0000
  H   H25       1.0  0.49366  0.21188  0.17739  1.0000
  H   H26       1.0  0.26268  0.43321  0.05515  1.0000
  C   C26       1.0  0.13189  0.30803  0.01646  1.0000
  C   C27       1.0  0.06892  0.48032  0.26511  1.0000
  S   S11       1.0  0.32401  0.26412  0.01425  1.0000
  Fe  Fe7       1.0  0.09228  0.36449  0.40602  1.0000
  H   H27       1.0  0.40940  0.19743  0.65100  1.0000
  S   S12       1.0  0.15638  0.39333  0.44201  1.0000
  C   C28       1.0  0.31211  0.19119  0.67403  1.0000
  C   C29       1.0  0.31416  0.22080  0.54724  1.0000
  C   C30       1.0  0.33910  0.05136  0.53659  1.0000
  H   H28       1.0  0.52183  0.42526  0.55340  1.0000
  Fe  Fe8       1.0  0.28265  0.32608  0.60799  1.0000
  S   S13       1.0  0.35127  0.34681  0.58662  1.0000
  S   S14       1.0  0.22301  0.29399  0.56560  1.0000
  Fe  Fe9       1.0  0.35244  0.30454  0.63992  1.0000
  S   S15       1.0  0.38144  0.26008  0.63329  1.0000
  Fe  Fe10      1.0  0.37199  0.39855  0.63553  1.0000
  C   C31       1.0  0.52952  0.03012  0.64968  1.0000
  H   H29       1.0  0.20893  0.13861  0.60565  1.0000
  C   C32       1.0  0.10601  0.39312  0.53316  1.0000
  H   H30       1.0  0.23247  0.42344  0.49372  1.0000
  Fe  Fe11      1.0  0.35566  0.06138  0.38865  1.0000
  S   S16       1.0  0.35086  0.08043  0.45503  1.0000
  H   H31       1.0  0.32963  0.07569  0.54228  1.0000
  H   H32       1.0  0.34327  0.15971  0.52339  1.0000
  H   H33       1.0  0.09152  0.36494  0.51181  1.0000
  S   S17       1.0  0.06865  0.31437  0.35550  1.0000
  H   H34       1.0  0.47504  0.43231  0.64590  1.0000
  C   C33       1.0  0.28047  0.23065  0.55274  1.0000
  C   C34       1.0  0.35227  0.04728  0.49621  1.0000
  C   C35       1.0  0.23823  0.16169  0.58881  1.0000
  H   H35       1.0  0.17473  0.46324  0.49904  1.0000
  H   H36       1.0  0.08696  0.38430  0.56292  1.0000
  H   H37       1.0  0.37778  0.20203  0.55955  1.0000
  N   N3        1.0  0.10627  0.43074  0.51247  1.0000
  C   C36       1.0  0.14439  0.46430  0.49670  1.0000
  C   C37       1.0  0.06774  0.43124  0.50773  1.0000
  C   C38       1.0  0.17418  0.36491  0.47612  1.0000
  C   C39       1.0  0.14992  0.31987  0.48226  1.0000
  C   C40       1.0  0.16527  0.29868  0.50990  1.0000
  C   C41       1.0  0.20468  0.32231  0.53193  1.0000
  C   C42       1.0  0.22861  0.36744  0.52619  1.0000
  C   C43       1.0  0.21345  0.38858  0.49831  1.0000
  H   H38       1.0  0.11965  0.30129  0.46538  1.0000
  H   H39       1.0  0.14658  0.26375  0.51412  1.0000
  H   H40       1.0  0.25901  0.38597  0.54290  1.0000
  C   C44       1.0  0.34541  0.17242  0.55554  1.0000
  C   C45       1.0  0.47602  0.49312  0.63508  1.0000
  H   H41       1.0  0.06766  0.48446  0.37570  1.0000
  H   H42       1.0  0.13965  0.39967  0.54090  1.0000
  C   C46       1.0  0.10563  0.50098  0.47196  1.0000
  S   S18       1.0  0.08552  0.41387  0.36554  1.0000
  C   C47       1.0  0.14462  0.49979  0.47607  1.0000
  C   C48       1.0  0.24239  0.20095  0.57380  1.0000
  S   S19       1.0  0.41999  0.46980  0.62236  1.0000
  C   C49       1.0  0.27241  0.15270  0.58246  1.0000
  C   C50       1.0  0.06693  0.46655  0.48793  1.0000
  N   N4        1.0  0.30998  0.18236  0.56235  1.0000
  H   H43       1.0  0.34408  0.14795  0.57890  1.0000
  H   H44       1.0  0.34404  0.24446  0.53160  1.0000
  H   H45       1.0  0.32558  0.02578  0.60022  1.0000
  H   H46       1.0  0.26918  0.12236  0.59473  1.0000
  H   H47       1.0  0.28389  0.26132  0.54115  1.0000
  S   S20       1.0  0.28281  0.28026  0.65794  1.0000
  C   C51       1.0  0.50248  0.08203  0.65546  1.0000
  C   C52       1.0  0.49524  0.46727  0.64366  1.0000
  S   S21       1.0  0.29580  0.03582  0.34841  1.0000
  C   C53       1.0  0.04948  0.50088  0.38278  1.0000
  S   S22       1.0  0.30283  0.38066  0.65329  1.0000
  C   C54       1.0  0.52247  0.45562  0.54570  1.0000
  N   N5        1.0  0.49490  0.03779  0.64954  1.0000
  H   H48       1.0  0.21636  0.20868  0.57870  1.0000
  C   C55       1.0  0.35479  0.20862  0.65873  1.0000
  H   H49       1.0  0.29496  0.20931  0.67086  1.0000
  H   H50       1.0  0.45224  0.42661  0.54217  1.0000
  H   H51       1.0  0.47341  0.08151  0.66984  1.0000
  H   H52       1.0  0.50985  0.09982  0.62484  1.0000
  C   C56       1.0  0.48346  0.45632  0.53923  1.0000
  C   C57       1.0  0.48458  0.49581  0.53121  1.0000
  H   H53       1.0  0.45423  0.49676  0.52808  1.0000
  C   C58       1.0  0.37632  0.18418  0.66273  1.0000
  C   C59       1.0  0.33690  0.02319  0.56941  1.0000
  H   H54       1.0  0.52017  0.01908  0.38192  1.0000
  H   H55       1.0  0.03629  0.46682  0.48425  1.0000
  H   H56       1.0  0.52984  0.09995  0.67772  1.0000
  H   H57       1.0  0.03727  0.40404  0.51892  1.0000
  Fe  Fe12      1.0  0.05594  0.34209  0.97558  1.0000
  S   S23       1.0  0.12876  0.37080  0.96602  1.0000
  H   H58       1.0  0.41210  0.31148  0.75900  1.0000
  Fe  Fe13      1.0  0.30919  0.33660  0.70140  1.0000
  C   C60       1.0  0.05722  0.22938  0.92464  1.0000
  S   S24       1.0  0.27913  0.32233  0.76658  1.0000
  Fe  Fe14      1.0  0.37333  0.32807  0.98535  1.0000
  S   S25       1.0  0.40279  0.34253  0.92030  1.0000
  H   H59       1.0  0.31184  0.14014  0.80223  1.0000
  H   H60       1.0  0.04467  0.27354  0.88774  1.0000
  S   S26       1.0  0.28560  0.07435  0.72359  1.0000
  H   H61       1.0  0.24915  0.15438  0.80033  1.0000
  H   H62       1.0  0.15839  0.24280  0.94455  1.0000
  H   H63       1.0  0.08000  0.19228  0.96103  1.0000
  H   H64       1.0  0.49427  0.42371  0.93800  1.0000
  C   C61       1.0  0.40797  0.27869  0.75330  1.0000
  H   H65       1.0  0.42780  0.42094  0.96712  1.0000
  C   C62       1.0  0.45857  0.45117  0.96724  1.0000
  C   C63       1.0  0.36801  0.33847  0.87856  1.0000
  C   C64       1.0  0.32268  0.31845  0.88412  1.0000
  C   C65       1.0  0.29564  0.31436  0.84971  1.0000
  C   C66       1.0  0.31386  0.33067  0.80984  1.0000
  C   C67       1.0  0.35927  0.35172  0.80472  1.0000
  C   C68       1.0  0.38621  0.35514  0.83885  1.0000
  H   H66       1.0  0.30847  0.30551  0.91474  1.0000
  H   H67       1.0  0.26055  0.29810  0.85390  1.0000
  H   H68       1.0  0.37374  0.36552  0.77455  1.0000
  H   H69       1.0  0.42129  0.37113  0.83456  1.0000
  C   C69       1.0  0.15455  0.34368  0.98920  1.0000
  C   C70       1.0  0.19879  0.35837  0.98034  1.0000
  C   C71       1.0  0.14452  0.28582  0.90630  1.0000
  H   H70       1.0  0.21647  0.38590  0.95916  1.0000
  H   H71       1.0  0.17882  0.30790  0.89956  1.0000
  H   H72       1.0  0.10185  0.34599  0.86937  1.0000
  H   H73       1.0  0.33405  0.28240  0.75080  1.0000
  C   C72       1.0  0.06980  0.26686  0.89988  1.0000
  C   C73       1.0  0.49613  0.45281  0.95097  1.0000
  H   H74       1.0  0.41282  0.27597  0.71926  1.0000
  C   C74       1.0  0.32964  0.25177  0.76330  1.0000
  H   H75       1.0  0.38536  0.19821  0.78041  1.0000
  H   H76       1.0  0.12822  0.32754  0.83236  1.0000
  S   S27       1.0  0.37954  0.35815  0.68683  1.0000
  H   H77       1.0  0.15776  0.36123  0.87643  1.0000
  C   C75       1.0  0.28149  0.17972  0.79091  1.0000
  H   H78       1.0  0.04585  0.46218  0.92793  1.0000
  C   C76       1.0  0.31678  0.17188  0.79243  1.0000
  S   S28       1.0  0.34233  0.36526  0.01071  1.0000
  C   C77       1.0  0.46086  0.48845  0.98389  1.0000
  S   S29       1.0  0.46412  0.05564  0.76019  1.0000
  H   H79       1.0  0.26076  0.22649  0.77420  1.0000
  C   C78       1.0  0.35826  0.20480  0.77983  1.0000
  H   H80       1.0  0.25439  0.34920  0.99188  1.0000
  N   N6        1.0  0.36438  0.24447  0.76642  1.0000
  C   C79       1.0  0.28786  0.21988  0.77609  1.0000
  C   C80       1.0  0.08919  0.22068  0.94096  1.0000
  C   C81       1.0  0.49732  0.03130  0.75527  1.0000
  C   C82       1.0  0.13315  0.24889  0.93156  1.0000
  H   H81       1.0  0.43393  0.27635  0.77140  1.0000
  C   C83       1.0  0.12580  0.33420  0.86591  1.0000
  H   H82       1.0  0.25788  0.13631  0.70449  1.0000
  S   S30       1.0  0.37373  0.04319  0.68511  1.0000
  Fe  Fe15      1.0  0.31424  0.02916  0.72249  1.0000
  N   N7        1.0  0.11307  0.29492  0.89171  1.0000
  C   C84       1.0  0.29100  0.14958  0.69289  1.0000
  H   H83       1.0  0.43198  0.48705  0.99768  1.0000
  C   C85       1.0  0.35540  0.14272  0.68217  1.0000
  C   C86       1.0  0.22036  0.33769  0.99891  1.0000
  C   C87       1.0  0.31263  0.12531  0.69737  1.0000
  H   H84       1.0  0.37262  0.12458  0.68586  1.0000
  C   C88       1.0  0.03524  0.48353  0.94102  1.0000
  Fe  Fe16      1.0  0.05915  0.70948  0.04130  1.0000
  S   S31       1.0  0.08192  0.71803  0.10857  1.0000
  C   C89       1.0  0.13573  0.85567  0.26595  1.0000
  Fe  Fe17      1.0  0.31716  0.98999  0.32453  1.0000
  H   H85       1.0  0.21057  0.82701  0.33040  1.0000
  C   C90       1.0  0.04244  0.70618  0.14788  1.0000
  H   H86       1.0  0.06487  0.81781  0.31363  1.0000
  C   C91       1.0  0.17268  0.86457  0.24210  1.0000
  H   H87       1.0  0.47520  0.94161  0.29433  1.0000
  H   H88       1.0  0.07707  0.68928  0.19400  1.0000
  C   C92       1.0  0.05680  0.81529  0.27955  1.0000
  H   H89       1.0  0.47484  0.53811  0.09957  1.0000
  H   H90       1.0  0.12144  0.79306  0.16377  1.0000
  H   H91       1.0  0.19606  0.84785  0.18685  1.0000
  C   C93       1.0  0.08967  0.80302  0.21705  1.0000
  S   S32       1.0  0.27180  0.91745  0.31895  1.0000
  C   C94       1.0  0.22033  0.89066  0.34429  1.0000
  C   C95       1.0  0.49644  0.97648  0.29428  1.0000
  H   H92       1.0  0.20504  0.88888  0.25223  1.0000
  H   H93       1.0  0.13985  0.87368  0.29437  1.0000
  C   C96       1.0  0.49491  0.52407  0.09079  1.0000
  N   N8        1.0  0.09503  0.82438  0.25388  1.0000
  S   S33       1.0  0.04986  0.71730  0.33220  1.0000
  C   C97       1.0  0.16765  0.84164  0.20538  1.0000
  H   H94       1.0  0.44305  0.99032  0.29970  1.0000
  C   C98       1.0  0.12586  0.81088  0.19250  1.0000
  H   H95       1.0  0.11160  0.54841  0.25134  1.0000
  C   C99       1.0  0.04928  0.69407  0.18823  1.0000
  H   H96       1.0  0.05732  0.77961  0.20653  1.0000
  H   H97       1.0  0.05663  0.56963  0.27117  1.0000
  C   C100      1.0  0.47814  0.00399  0.29738  1.0000
  H   H98       1.0  0.04521  0.83859  0.27122  1.0000
  C   C101      1.0  0.04813  0.53562  0.27322  1.0000
  C   C102      1.0  0.07943  0.52388  0.26214  1.0000
  C   C103      1.0  0.19679  0.84507  0.34494  1.0000
  C   C104      1.0  0.13731  0.84556  0.38312  1.0000
  C   C105      1.0  0.26821  0.89393  0.51073  1.0000
  S   S34       1.0  0.08507  0.81833  0.40668  1.0000
  C   C106      1.0  0.15533  0.82257  0.36406  1.0000
  C   C107      1.0  0.28927  0.90578  0.43754  1.0000
  H   H99       1.0  0.26437  0.00460  0.44083  1.0000
  H   H100      1.0  0.10522  0.52820  0.45590  1.0000
  Fe  Fe18      1.0  0.04111  0.74818  0.38927  1.0000
  H   H101      1.0  0.21926  0.94877  0.36173  1.0000
  H   H102      1.0  0.25206  0.99828  0.49554  1.0000
  H   H103      1.0  0.17476  0.52583  0.46287  1.0000
  C   C108      1.0  0.34805  0.99097  0.56190  1.0000
  H   H104      1.0  0.24339  0.93404  0.53460  1.0000
  N   N9        1.0  0.26073  0.94776  0.46968  1.0000
  C   C109      1.0  0.06777  0.54553  0.37381  1.0000
  C   C110      1.0  0.20204  0.91367  0.36293  1.0000
  H   H105      1.0  0.47476  0.92096  0.63534  1.0000
  H   H106      1.0  0.14692  0.90912  0.39706  1.0000
  C   C111      1.0  0.27731  0.93813  0.43526  1.0000
  H   H107      1.0  0.37515  0.01274  0.45819  1.0000
  C   C112      1.0  0.25585  0.92597  0.50706  1.0000
  C   C113      1.0  0.28477  0.88364  0.47561  1.0000
  H   H108      1.0  0.26568  0.87784  0.54086  1.0000
  Fe  Fe19      1.0  0.33546  0.97362  0.66639  1.0000
  C   C114      1.0  0.24603  0.98001  0.46594  1.0000
  C   C115      1.0  0.36236  0.98764  0.52185  1.0000
  H   H109      1.0  0.13755  0.78742  0.36437  1.0000
  H   H110      1.0  0.09993  0.56319  0.35962  1.0000
  H   H111      1.0  0.30183  0.89810  0.40976  1.0000
  S   S35       1.0  0.34193  0.95303  0.60143  1.0000
  C   C116      1.0  0.16093  0.89116  0.38277  1.0000
  H   H112      1.0  0.48792  0.55867  0.62585  1.0000
  S   S36       1.0  0.06672  0.62209  0.36621  1.0000
  H   H113      1.0  0.37122  0.96286  0.51601  1.0000
  H   H114      1.0  0.28150  0.95553  0.40572  1.0000
  C   C117      1.0  0.45346  0.00470  0.64239  1.0000
  H   H115      1.0  0.29434  0.85878  0.47797  1.0000
  H   H116      1.0  0.21065  0.96361  0.45832  1.0000
  C   C118      1.0  0.52484  0.53426  0.53006  1.0000
  H   H117      1.0  0.42610  0.01083  0.64133  1.0000
  C   C119      1.0  0.50265  0.53851  0.63226  1.0000
  C   C120      1.0  0.52286  0.98809  0.64414  1.0000
  C   C121      1.0  0.48051  0.95390  0.63829  1.0000
  C   C122      1.0  0.04421  0.56719  0.38194  1.0000
  S   S37       1.0  0.37447  0.01223  0.36841  1.0000
  C   C123      1.0  0.44556  0.96224  0.63705  1.0000
  H   H118      1.0  0.52532  0.56496  0.52520  1.0000
  H   H119      1.0  0.41237  0.93601  0.63251  1.0000
  C   C124      1.0  0.36442  0.01572  0.48903  1.0000
  H   H120      1.0  0.53062  0.95868  0.37172  1.0000
  Fe  Fe20      1.0  0.07503  0.75360  0.95454  1.0000
  S   S38       1.0  0.27367  0.96081  0.69901  1.0000
  S   S39       1.0  0.10671  0.81958  0.92126  1.0000
  Fe  Fe21      1.0  0.05682  0.65967  0.96414  1.0000
  S   S40       1.0  0.07629  0.61278  0.93712  1.0000
  C   C125      1.0  0.04682  0.55688  0.95088  1.0000
  H   H121      1.0  0.09192  0.54225  0.91898  1.0000
  Fe  Fe22      1.0  0.29996  0.94139  0.75513  1.0000
  C   C126      1.0  0.22781  0.80984  0.94613  1.0000
  S   S41       1.0  0.26308  0.87729  0.79163  1.0000
  C   C127      1.0  0.06120  0.52889  0.93585  1.0000
  H   H122      1.0  0.31051  0.93603  0.85968  1.0000
  S   S42       1.0  0.35896  0.94882  0.72013  1.0000
  H   H123      1.0  0.27542  0.95084  0.88622  1.0000
  H   H124      1.0  0.44391  0.96581  0.75183  1.0000
  H   H125      1.0  0.50258  0.55576  0.99764  1.0000
  C   C128      1.0  0.26141  0.81989  0.91729  1.0000
  C   C129      1.0  0.47896  0.98643  0.75075  1.0000
  S   S43       1.0  0.10858  0.72301  0.99033  1.0000
  H   H126      1.0  0.49159  0.93326  0.74163  1.0000
  C   C130      1.0  0.14636  0.83355  0.88117  1.0000
  C   C131      1.0  0.15966  0.80423  0.86823  1.0000
  C   C132      1.0  0.19420  0.81767  0.83920  1.0000
  C   C133      1.0  0.21560  0.86037  0.82270  1.0000
  C   C134      1.0  0.20114  0.88920  0.83433  1.0000
  C   C135      1.0  0.16671  0.87583  0.86359  1.0000
  H   H127      1.0  0.14415  0.77156  0.88143  1.0000
  H   H128      1.0  0.20513  0.79514  0.83025  1.0000
  H   H129      1.0  0.21723  0.92210  0.82166  1.0000
  H   H130      1.0  0.15641  0.89864  0.87328  1.0000
  N   N10       1.0  0.27293  0.89266  0.90977  1.0000
  C   C136      1.0  0.50096  0.52708  0.98405  1.0000
  C   C137      1.0  0.24041  0.88324  0.93844  1.0000
  H   H131      1.0  0.32466  0.95784  0.91195  1.0000
  C   C138      1.0  0.21723  0.84169  0.95688  1.0000
  H   H132      1.0  0.23121  0.90745  0.94621  1.0000
  C   C139      1.0  0.29718  0.93656  0.89119  1.0000
  H   H133      1.0  0.19017  0.83381  0.97818  1.0000
  C   C140      1.0  0.50607  0.96802  0.74523  1.0000
  C   C141      1.0  0.28386  0.86176  0.89938  1.0000
  H   H134      1.0  0.30901  0.86895  0.87598  1.0000
  H   H135      1.0  0.26925  0.79511  0.90797  1.0000
  S   S44       1.0  0.33608  0.00881  0.78142  1.0000
  H   H136      1.0  0.20931  0.77718  0.95940  1.0000
  Fe  Fe23      1.0  0.39287  0.01750  0.74172  1.0000
  H   H137      1.0  0.60420  0.05258  0.28918  1.0000
  S   S45       1.0  0.95464  0.27354  0.10143  1.0000
  C   C142      1.0  0.98153  0.21985  0.21237  1.0000
  Fe  Fe24      1.0  0.73052  0.05489  0.30578  1.0000
  S   S46       1.0  0.77461  0.12710  0.29562  1.0000
  H   H138      1.0  0.56704  0.47387  0.06029  1.0000
  C   C143      1.0  0.97149  0.30115  0.18285  1.0000
  H   H139      1.0  0.98580  0.31901  0.24790  1.0000
  S   S47       1.0  0.98760  0.33612  0.33981  1.0000
  C   C144      1.0  0.03270  0.33545  0.13462  1.0000
  N   N11       1.0  0.00770  0.50485  0.28742  1.0000
  C   C145      1.0  0.96448  0.19004  0.28291  1.0000
  H   H140      1.0  0.84304  0.11360  0.24066  1.0000
  C   C146      1.0  0.92076  0.16451  0.27105  1.0000
  H   H141      1.0  0.89727  0.14295  0.29422  1.0000
  H   H142      1.0  0.00491  0.24178  0.18917  1.0000
  Fe  Fe25      1.0  0.97882  0.29914  0.03559  1.0000
  H   H143      1.0  0.97440  0.18865  0.31507  1.0000
  C   C147      1.0  0.99498  0.21801  0.25335  1.0000
  C   C148      1.0  0.82282  0.15325  0.32547  1.0000
  H   H144      1.0  0.92688  0.19809  0.17045  1.0000
  H   H145      1.0  0.85621  0.13279  0.18727  1.0000
  H   H146      1.0  0.01913  0.41524  0.28133  1.0000
  C   C149      1.0  0.93730  0.19478  0.20190  1.0000
  H   H147      1.0  0.84587  0.16416  0.22539  1.0000
  C   C150      1.0  0.56910  0.03888  0.29136  1.0000
  H   H148      1.0  0.96515  0.43761  0.30181  1.0000
  H   H149      1.0  0.84359  0.21538  0.29494  1.0000
  C   C151      1.0  0.86100  0.14332  0.22047  1.0000
  N   N12       1.0  0.90760  0.16740  0.23113  1.0000
  C   C152      1.0  0.55074  0.06641  0.29361  1.0000
  C   C153      1.0  0.85184  0.19753  0.31788  1.0000
  C   C154      1.0  0.98844  0.30626  0.14201  1.0000
  H   H150      1.0  0.57192  0.10130  0.29309  1.0000
  C   C155      1.0  0.99899  0.32383  0.21644  1.0000
  H   H151      1.0  0.93714  0.27906  0.18865  1.0000
  C   C156      1.0  0.99709  0.46204  0.29033  1.0000
  S   S48       1.0  0.02675  0.36902  0.02077  1.0000
  C   C157      1.0  0.54699  0.48806  0.06864  1.0000
  C   C158      1.0  0.02750  0.44916  0.27917  1.0000
  H   H152      1.0  0.95329  0.49706  0.32367  1.0000
  C   C159      1.0  0.89179  0.21879  0.33937  1.0000
  H   H153      1.0  0.91396  0.25270  0.33278  1.0000
  H   H154      1.0  0.02886  0.23863  0.26231  1.0000
  H   H155      1.0  0.95448  0.51395  0.26930  1.0000
  C   C160      1.0  0.97477  0.51747  0.29741  1.0000
  Fe  Fe26      1.0  0.00134  0.29246  0.38185  1.0000
  S   S49       1.0  0.95401  0.22100  0.39443  1.0000
  Fe  Fe27      1.0  0.72189  0.05604  0.64692  1.0000
  S   S50       1.0  0.72999  0.08100  0.57960  1.0000
  C   C161      1.0  0.56218  0.49472  0.54451  1.0000
  H   H156      1.0  0.57552  0.06320  0.38014  1.0000
  S   S51       1.0  0.98389  0.42165  0.41222  1.0000
  C   C162      1.0  0.98472  0.49966  0.41000  1.0000
  H   H157      1.0  0.74222  0.09548  0.49043  1.0000
  C   C163      1.0  0.88712  0.16999  0.48781  1.0000
  C   C164      1.0  0.54099  0.48656  0.64691  1.0000
  H   H158      1.0  0.95252  0.48199  0.42413  1.0000
  C   C165      1.0  0.86668  0.14147  0.52166  1.0000
  C   C166      1.0  0.72446  0.04575  0.53863  1.0000
  C   C167      1.0  0.84964  0.20924  0.50601  1.0000
  H   H159      1.0  0.84267  0.23544  0.49917  1.0000
  H   H160      1.0  0.82247  0.12548  0.57371  1.0000
  H   H161      1.0  0.79728  0.17266  0.59845  1.0000
  C   C168      1.0  0.80047  0.18801  0.56681  1.0000
  C   C169      1.0  0.87836  0.20392  0.47969  1.0000
  Fe  Fe28      1.0  0.01759  0.38469  0.39114  1.0000
  H   H162      1.0  0.73178  0.04628  0.43149  1.0000
  H   H163      1.0  0.76748  0.17259  0.55229  1.0000
  C   C170      1.0  0.72601  0.03379  0.46351  1.0000
  H   H164      1.0  0.88241  0.13342  0.39857  1.0000
  H   H165      1.0  0.89364  0.22584  0.45300  1.0000
  H   H166      1.0  0.87257  0.11445  0.52775  1.0000
  C   C171      1.0  0.83836  0.14792  0.54754  1.0000
  N   N13       1.0  0.83071  0.18190  0.53989  1.0000
  C   C172      1.0  0.00781  0.47775  0.40072  1.0000
  H   H167      1.0  0.56238  0.05623  0.65564  1.0000
  H   H168      1.0  0.81203  0.22306  0.57156  1.0000
  S   S52       1.0  0.02592  0.33905  0.43560  1.0000
  C   C173      1.0  0.73204  0.06164  0.49696  1.0000
  H   H169      1.0  0.90956  0.16572  0.46770  1.0000
  H   H170      1.0  0.60831  0.05313  0.46182  1.0000
  S   S53       1.0  0.67563  0.02623  0.35315  1.0000
  C   C174      1.0  0.90310  0.19589  0.36853  1.0000
  C   C175      1.0  0.87381  0.15166  0.37650  1.0000
  H   H171      1.0  0.81149  0.09628  0.36132  1.0000
  C   C176      1.0  0.83368  0.13042  0.35519  1.0000
  H   H172      1.0  0.55581  0.46622  0.65175  1.0000
  H   H173      1.0  0.59219  0.49413  0.55149  1.0000
  H   H174      1.0  0.54270  0.05190  0.42724  1.0000
  C   C177      1.0  0.55057  0.03700  0.40063  1.0000
  C   C178      1.0  0.59717  0.02179  0.44757  1.0000
  H   H175      1.0  0.70642  0.10956  0.89563  1.0000
  S   S54       1.0  0.69304  0.08018  0.69539  1.0000
  C   C179      1.0  0.84550  0.17649  0.96105  1.0000
  H   H176      1.0  0.60531  0.05980  0.74705  1.0000
  Fe  Fe29      1.0  0.96772  0.27278  0.94267  1.0000
  S   S55       1.0  0.94222  0.21345  0.90110  1.0000
  Fe  Fe30      1.0  0.74758  0.08596  0.73765  1.0000
  S   S56       1.0  0.77988  0.14755  0.77655  1.0000
  C   C180      1.0  0.98081  0.49398  0.97723  1.0000
  S   S57       1.0  0.01461  0.34101  0.92073  1.0000
  H   H177      1.0  0.79064  0.09254  0.89509  1.0000
  N   N14       1.0  0.77498  0.14278  0.90612  1.0000
  C   C181      1.0  0.78564  0.18010  0.92717  1.0000
  H   H178      1.0  0.83019  0.22775  0.97076  1.0000
  C   C182      1.0  0.96793  0.49182  0.86562  1.0000
  C   C183      1.0  0.89916  0.19735  0.86416  1.0000
  C   C184      1.0  0.87746  0.22120  0.85754  1.0000
  C   C185      1.0  0.84167  0.20592  0.82982  1.0000
  C   C186      1.0  0.82710  0.16664  0.80855  1.0000
  C   C187      1.0  0.84906  0.14298  0.81483  1.0000
  C   C188      1.0  0.88499  0.15837  0.84243  1.0000
  H   H179      1.0  0.88800  0.25122  0.87403  1.0000
  H   H180      1.0  0.82495  0.22449  0.82506  1.0000
  H   H181      1.0  0.83823  0.11275  0.79862  1.0000
  H   H182      1.0  0.90159  0.13969  0.84732  1.0000
  C   C189      1.0  0.83405  0.13816  0.93989  1.0000
  C   C190      1.0  0.99435  0.46593  0.96066  1.0000
  C   C191      1.0  0.73750  0.12511  0.87750  1.0000
  H   H183      1.0  0.55743  0.09230  0.75857  1.0000
  Fe  Fe31      1.0  0.98124  0.36185  0.96791  1.0000
  C   C192      1.0  0.57017  0.03926  0.74824  1.0000
  H   H184      1.0  0.85386  0.12247  0.94341  1.0000
  H   H185      1.0  0.76715  0.19696  0.92203  1.0000
  S   S58       1.0  0.93074  0.29313  0.98563  1.0000
  H   H186      1.0  0.94925  0.48052  0.99252  1.0000
  C   C193      1.0  0.92822  0.47396  0.88724  1.0000
  C   C194      1.0  0.82111  0.19760  0.95484  1.0000
  S   S59       1.0  0.95659  0.40983  0.95835  1.0000
  H   H187      1.0  0.87398  0.19039  0.98135  1.0000
  H   H188      1.0  0.02284  0.20764  0.93147  1.0000
  C   C195      1.0  0.54302  0.05759  0.75466  1.0000
  S   S60       1.0  0.01157  0.27263  0.99455  1.0000
  C   C196      1.0  0.79844  0.12161  0.91239  1.0000
  H   H189      1.0  0.73858  0.15137  0.85674  1.0000
  H   H190      1.0  0.88489  0.48743  0.92315  1.0000
  H   H191      1.0  0.73788  0.10073  0.85611  1.0000
  C   C197      1.0  0.91484  0.50157  0.90483  1.0000
  H   H192      1.0  0.56491  0.49300  0.93918  1.0000
  H   H193      1.0  0.90924  0.43902  0.89239  1.0000
  C   C198      1.0  0.53578  0.49196  0.95179  1.0000
  S   S61       1.0  0.77935  0.06726  0.68700  1.0000
  H   H194      1.0  0.97972  0.47077  0.85388  1.0000
  S   S62       1.0  0.70816  0.01783  0.76409  1.0000
  H   H195      1.0  0.71478  0.59954  0.11193  1.0000
  C   C199      1.0  0.02062  0.68850  0.22133  1.0000
  S   S63       1.0  0.95286  0.69516  0.25688  1.0000
  Fe  Fe32      1.0  0.74565  0.71614  0.05682  1.0000
  C   C200      1.0  0.00646  0.71229  0.14060  1.0000
  S   S64       1.0  0.81630  0.73548  0.07021  1.0000
  Fe  Fe33      1.0  0.65378  0.63842  0.05976  1.0000
  H   H196      1.0  0.55502  0.58574  0.08974  1.0000
  C   C201      1.0  0.81608  0.67486  0.18617  1.0000
  Fe  Fe34      1.0  0.66998  0.72758  0.08849  1.0000
  S   S65       1.0  0.64238  0.75394  0.13773  1.0000
  S   S66       1.0  0.69685  0.68400  0.10910  1.0000
  Fe  Fe35      1.0  0.63581  0.98244  0.30109  1.0000
  S   S67       1.0  0.65391  0.93071  0.31614  1.0000
  H   H197      1.0  0.66703  0.95750  0.17269  1.0000
  S   S68       1.0  0.56360  0.95793  0.29013  1.0000
  Fe  Fe36      1.0  0.70968  0.96670  0.27089  1.0000
  S   S69       1.0  0.73502  0.94168  0.21852  1.0000
  C   C202      1.0  0.90708  0.70503  0.03007  1.0000
  C   C203      1.0  0.56916  0.84111  0.16857  1.0000
  S   S70       1.0  0.72237  0.76371  0.03963  1.0000
  H   H198      1.0  0.00132  0.72219  0.10964  1.0000
  C   C204      1.0  0.67124  0.80477  0.16279  1.0000
  C   C205      1.0  0.65200  0.81298  0.19761  1.0000
  C   C206      1.0  0.67176  0.85432  0.21599  1.0000
  C   C207      1.0  0.71085  0.88798  0.19942  1.0000
  C   C208      1.0  0.73035  0.87957  0.16497  1.0000
  C   C209      1.0  0.71075  0.83819  0.14678  1.0000
  H   H199      1.0  0.62140  0.78732  0.21016  1.0000
  H   H200      1.0  0.65643  0.86032  0.24249  1.0000
  H   H201      1.0  0.76061  0.90540  0.15197  1.0000
  H   H202      1.0  0.72578  0.83240  0.11987  1.0000
  C   C210      1.0  0.63708  0.89607  0.14095  1.0000
  C   C211      1.0  0.60055  0.82484  0.10749  1.0000
  H   H203      1.0  0.82350  0.61671  0.08776  1.0000
  H   H204      1.0  0.90252  0.74649  0.07640  1.0000
  C   C212      1.0  0.88546  0.72313  0.05208  1.0000
  N   N15       1.0  0.60265  0.85455  0.14014  1.0000
  H   H205      1.0  0.74775  0.64023  0.07312  1.0000
  C   C213      1.0  0.82080  0.63216  0.11586  1.0000
  H   H206      1.0  0.58501  0.79077  0.11984  1.0000
  C   C214      1.0  0.63887  0.92514  0.17119  1.0000
  C   C215      1.0  0.98566  0.69633  0.21459  1.0000
  C   C216      1.0  0.97843  0.70786  0.17402  1.0000
  H   H207      1.0  0.81413  0.69211  0.21320  1.0000
  H   H208      1.0  0.95217  0.71495  0.16862  1.0000
  C   C217      1.0  0.85626  0.65064  0.14350  1.0000
  S   S71       1.0  0.62272  0.67883  0.04258  1.0000
  N   N16       1.0  0.78351  0.63408  0.12387  1.0000
  C   C218      1.0  0.74655  0.61468  0.09472  1.0000
  H   H209      1.0  0.60610  0.93374  0.22426  1.0000
  Fe  Fe37      1.0  0.97826  0.69170  0.32172  1.0000
  H   H210      1.0  0.75236  0.65896  0.16336  1.0000
  H   H211      1.0  0.88070  0.68600  0.20102  1.0000
  H   H212      1.0  0.58166  0.82653  0.08014  1.0000
  S   S72       1.0  0.75592  0.00912  0.32088  1.0000
  H   H213      1.0  0.54191  0.80819  0.16794  1.0000
  C   C219      1.0  0.78120  0.65591  0.15796  1.0000
  C   C220      1.0  0.84203  0.71144  0.04256  1.0000
  H   H214      1.0  0.63381  0.83277  0.09676  1.0000
  C   C221      1.0  0.85361  0.67175  0.17908  1.0000
  S   S73       1.0  0.62334  0.56550  0.06651  1.0000
  C   C222      1.0  0.56990  0.86940  0.19922  1.0000
  H   H215      1.0  0.88573  0.64891  0.13719  1.0000
  C   C223      1.0  0.60501  0.91164  0.20043  1.0000
  H   H216      1.0  0.66417  0.90653  0.11911  1.0000
  H   H217      1.0  0.94064  0.71456  0.03743  1.0000
  C   C224      1.0  0.54195  0.99379  0.29147  1.0000
  H   H218      1.0  0.74707  0.58891  0.07569  1.0000
  C   C225      1.0  0.56643  0.53304  0.07418  1.0000
  H   H219      1.0  0.54364  0.85873  0.22210  1.0000
  C   C226      1.0  0.54027  0.55110  0.08511  1.0000
  H   H220      1.0  0.99036  0.55180  0.30780  1.0000
  S   S74       1.0  0.68851  0.01536  0.25235  1.0000
  H   H221      1.0  0.02955  0.78165  0.27476  1.0000
  S   S75       1.0  0.00984  0.64399  0.01759  1.0000
  H   H222      1.0  0.02599  0.67868  0.25213  1.0000
  Fe  Fe38      1.0  0.95554  0.66809  0.41479  1.0000
  S   S76       1.0  0.90336  0.63694  0.46596  1.0000
  N   N17       1.0  0.74017  0.84998  0.56376  1.0000
  H   H223      1.0  0.95741  0.67871  0.60631  1.0000
  C   C227      1.0  0.71164  0.00204  0.54671  1.0000
  C   C228      1.0  0.99541  0.79539  0.50934  1.0000
  Fe  Fe39      1.0  0.76204  0.69799  0.61664  1.0000
  S   S77       1.0  0.69317  0.67711  0.59617  1.0000
  S   S78       1.0  0.81777  0.72907  0.56869  1.0000
  C   C229      1.0  0.69768  0.88738  0.67046  1.0000
  H   H224      1.0  0.92410  0.74668  0.59017  1.0000
  Fe  Fe40      1.0  0.69293  0.71975  0.64767  1.0000
  C   C230      1.0  0.67659  0.84586  0.65285  1.0000
  H   H225      1.0  0.71445  0.87525  0.51743  1.0000
  H   H226      1.0  0.77721  0.90489  0.60245  1.0000
  H   H227      1.0  0.83656  0.60476  0.52943  1.0000
  H   H228      1.0  0.68460  0.90903  0.66538  1.0000
  S   S79       1.0  0.70092  0.95317  0.43042  1.0000
  C   C231      1.0  0.70542  0.97418  0.51328  1.0000
  C   C232      1.0  0.00275  0.54427  0.40042  1.0000
  N   N18       1.0  0.95550  0.71809  0.55607  1.0000
  H   H229      1.0  0.69457  0.94021  0.51966  1.0000
  C   C233      1.0  0.93504  0.67746  0.58092  1.0000
  H   H230      1.0  0.01047  0.82515  0.49043  1.0000
  H   H231      1.0  0.98441  0.56077  0.40692  1.0000
  H   H232      1.0  0.64750  0.83602  0.63412  1.0000
  H   H233      1.0  0.92708  0.64922  0.56057  1.0000
  S   S80       1.0  0.95688  0.62982  0.35917  1.0000
  H   H234      1.0  0.56862  0.59274  0.63304  1.0000
  H   H235      1.0  0.95898  0.81547  0.54877  1.0000
  C   C234      1.0  0.70871  0.86391  0.55084  1.0000
  C   C235      1.0  0.87513  0.66105  0.48986  1.0000
  C   C236      1.0  0.88485  0.70367  0.48015  1.0000
  C   C237      1.0  0.86545  0.72338  0.50342  1.0000
  C   C238      1.0  0.83626  0.70078  0.53661  1.0000
  C   C239      1.0  0.82521  0.65761  0.54523  1.0000
  C   C240      1.0  0.84451  0.63786  0.52187  1.0000
  H   H236      1.0  0.90812  0.72181  0.45544  1.0000
  H   H237      1.0  0.87394  0.75669  0.49630  1.0000
  H   H238      1.0  0.80269  0.63978  0.57059  1.0000
  C   C241      1.0  0.73583  0.81205  0.54865  1.0000
  S   S81       1.0  0.74188  0.64340  0.66416  1.0000
  H   H239      1.0  0.76210  0.76798  0.54808  1.0000
  S   S82       1.0  0.02584  0.69102  0.43200  1.0000
  C   C242      1.0  0.77407  0.87513  0.58989  1.0000
  S   S83       1.0  0.62497  0.55365  0.63852  1.0000
  C   C243      1.0  0.54835  0.55786  0.63630  1.0000
  H   H240      1.0  0.60321  0.59718  0.55905  1.0000
  S   S84       1.0  0.97071  0.72758  0.37594  1.0000
  S   S85       1.0  0.76275  0.74393  0.66508  1.0000
  H   H241      1.0  0.71131  0.89081  0.57044  1.0000
  C   C244      1.0  0.94722  0.75103  0.56550  1.0000
  C   C245      1.0  0.96678  0.79004  0.54209  1.0000
  S   S86       1.0  0.68056  0.98623  0.66615  1.0000
  C   C246      1.0  0.76580  0.79830  0.55974  1.0000
  C   C247      1.0  0.61418  0.99544  0.46199  1.0000
  C   C248      1.0  0.80030  0.82358  0.58648  1.0000
  S   S87       1.0  0.66606  0.76564  0.63603  1.0000
  C   C249      1.0  0.98396  0.72331  0.52439  1.0000
  H   H242      1.0  0.83062  0.88160  0.62340  1.0000
  H   H243      1.0  0.67476  0.83644  0.55459  1.0000
  Fe  Fe41      1.0  0.67256  0.62543  0.64700  1.0000
  C   C250      1.0  0.69286  0.81707  0.65946  1.0000
  H   H244      1.0  0.90358  0.67146  0.59502  1.0000
  C   C251      1.0  0.80445  0.86216  0.60187  1.0000
  Fe  Fe42      1.0  0.69817  0.97742  0.36469  1.0000
  C   C252      1.0  0.60141  0.95584  0.44275  1.0000
  H   H245      1.0  0.99015  0.69701  0.51670  1.0000
  H   H246      1.0  0.70598  0.98951  0.57864  1.0000
  H   H247      1.0  0.70867  0.79185  0.52840  1.0000
  C   C253      1.0  0.56775  0.53179  0.64239  1.0000
  C   C254      1.0  0.71221  0.98983  0.47159  1.0000
  N   N19       1.0  0.56293  0.53337  0.53687  1.0000
  H   H248      1.0  0.82338  0.81282  0.59564  1.0000
  H   H249      1.0  0.61516  0.93557  0.45294  1.0000
  C   C255      1.0  0.00428  0.76198  0.50056  1.0000
  C   C256      1.0  0.55416  0.96936  0.39706  1.0000
  H   H250      1.0  0.02636  0.76588  0.47504  1.0000
  H   H251      1.0  0.55020  0.98183  0.64630  1.0000
  Fe  Fe43      1.0  0.02825  0.65765  0.37345  1.0000
  C   C257      1.0  0.57146  0.94280  0.40984  1.0000
  C   C258      1.0  0.60450  0.57436  0.53626  1.0000
  H   H252      1.0  0.56215  0.91262  0.39385  1.0000
  H   H253      1.0  0.61130  0.58935  0.50426  1.0000
  H   H254      1.0  0.63770  0.00597  0.48743  1.0000
  N   N20       1.0  0.56713  0.00834  0.41582  1.0000
  H   H255      1.0  0.63239  0.56960  0.54600  1.0000
  C   C259      1.0  0.73504  0.90032  0.69509  1.0000
  H   H256      1.0  0.61873  0.74839  0.72001  1.0000
  Fe  Fe44      1.0  0.73590  0.68750  0.71077  1.0000
  H   H257      1.0  0.74315  0.86121  0.82825  1.0000
  S   S88       1.0  0.76333  0.69635  0.77689  1.0000
  C   C260      1.0  0.99291  0.80174  0.94450  1.0000
  S   S89       1.0  0.66097  0.72135  0.92851  1.0000
  H   H258      1.0  0.66622  0.74562  0.73496  1.0000
  C   C261      1.0  0.82008  0.68084  0.01148  1.0000
  Fe  Fe45      1.0  0.98440  0.68122  0.97986  1.0000
  S   S90       1.0  0.76133  0.95136  0.71936  1.0000
  C   C262      1.0  0.69798  0.87807  0.79852  1.0000
  C   C263      1.0  0.98686  0.77551  0.91011  1.0000
  H   H259      1.0  0.61478  0.81141  0.73527  1.0000
  H   H260      1.0  0.85944  0.68405  0.89729  1.0000
  C   C264      1.0  0.64252  0.82191  0.75618  1.0000
  N   N21       1.0  0.65975  0.79530  0.76510  1.0000
  H   H261      1.0  0.77988  0.88103  0.72113  1.0000
  C   C265      1.0  0.73360  0.70149  0.81903  1.0000
  C   C266      1.0  0.75029  0.70656  0.86000  1.0000
  C   C267      1.0  0.72802  0.71197  0.89399  1.0000
  C   C268      1.0  0.68890  0.71258  0.88714  1.0000
  C   C269      1.0  0.67201  0.70715  0.84627  1.0000
  C   C270      1.0  0.69414  0.70141  0.81238  1.0000
  H   H262      1.0  0.78057  0.70637  0.86537  1.0000
  H   H263      1.0  0.74147  0.71639  0.92532  1.0000
  H   H264      1.0  0.64153  0.70708  0.84096  1.0000
  H   H265      1.0  0.68068  0.69686  0.78119  1.0000
  H   H266      1.0  0.58393  0.58699  0.93772  1.0000
  C   C271      1.0  0.73009  0.82989  0.68423  1.0000
  H   H267      1.0  0.62081  0.72676  0.77145  1.0000
  S   S91       1.0  0.58389  0.97019  0.73193  1.0000
  C   C272      1.0  0.66145  0.86373  0.77261  1.0000
  C   C273      1.0  0.69495  0.80876  0.79128  1.0000
  S   S92       1.0  0.91248  0.65490  0.96739  1.0000
  H   H268      1.0  0.71392  0.91101  0.81013  1.0000
  C   C274      1.0  0.92711  0.57420  0.92166  1.0000
  C   C275      1.0  0.71468  0.85035  0.80826  1.0000
  C   C276      1.0  0.94449  0.74788  0.89580  1.0000
  C   C277      1.0  0.75120  0.87142  0.70182  1.0000
  H   H269      1.0  0.70850  0.78762  0.79856  1.0000
  H   H270      1.0  0.82432  0.63891  0.96566  1.0000
  C   C278      1.0  0.64023  0.75183  0.74717  1.0000
  H   H271      1.0  0.99587  0.56047  0.98475  1.0000
  H   H272      1.0  0.64884  0.88545  0.76420  1.0000
  H   H273      1.0  0.83925  0.71732  0.91887  1.0000
  S   S93       1.0  0.66554  0.66600  0.69655  1.0000
  C   C279      1.0  0.57945  0.56932  0.96817  1.0000
  N   N22       1.0  0.90913  0.74663  0.91505  1.0000
  C   C280      1.0  0.91472  0.77225  0.94886  1.0000
  N   N23       1.0  0.53786  0.52833  0.96856  1.0000
  C   C281      1.0  0.95664  0.79997  0.96424  1.0000
  H   H274      1.0  0.58078  0.59062  0.99407  1.0000
  C   C282      1.0  0.84152  0.66240  0.98982  1.0000
  C   C283      1.0  0.88532  0.67510  0.99841  1.0000
  H   H275      1.0  0.96086  0.81958  0.99154  1.0000
  H   H276      1.0  0.01492  0.77641  0.89489  1.0000
  H   H277      1.0  0.94095  0.58119  0.95389  1.0000
  H   H278      1.0  0.02572  0.82295  0.95604  1.0000
  Fe  Fe46      1.0  0.67738  0.71157  0.99534  1.0000
  C   C284      1.0  0.97921  0.56353  0.87955  1.0000
  S   S94       1.0  0.02724  0.69151  0.92380  1.0000
  H   H279      1.0  0.93997  0.72715  0.86939  1.0000
  C   C285      1.0  0.55166  0.99439  0.74326  1.0000
  C   C286      1.0  0.86527  0.71793  0.89861  1.0000
  H   H280      1.0  0.86189  0.72894  0.86651  1.0000
  H   H281      1.0  0.74262  0.80788  0.69015  1.0000
  H   H282      1.0  0.60744  0.56333  0.97337  1.0000
  H   H283      1.0  0.88669  0.77080  0.96467  1.0000
  C   C287      1.0  0.00714  0.53931  0.97276  1.0000
  H   H284      1.0  0.93898  0.60558  0.90421  1.0000
  N   N24       1.0  0.94013  0.54575  0.90057  1.0000
  Fe  Fe47      1.0  0.73544  0.99839  0.70989  1.0000
  H   H285      1.0  0.78676  0.67160  0.00371  1.0000
  S   S95       1.0  0.02982  0.74562  0.00808  1.0000
  S   S96       1.0  0.70463  0.66725  0.00894  1.0000
  H   H286      1.0  0.00057  0.59850  0.87826  1.0000
  Fe  Fe48      1.0  0.65624  0.01094  0.71822  1.0000
  C   C288      1.0  0.99358  0.53688  0.86157  1.0000
  H   H287      1.0  0.89098  0.55913  0.92406  1.0000
  H   H288      1.0  0.02559  0.55120  0.84682  1.0000
