data_image0
_chemical_formula_structural       C2H2SH3SCHFeS2FeSHFe2SHSFeSFeS2FeSCSHC6H6SC3H2C5NH4CHCH3C2SCHC2HC4H6SCHC2SNH2NHCH2NH2C6FeC6HC2S2H9CHCFeCSHCNHFeSFeH2FeSHSNFeS2H3FeS3FeS2C6H7C3HSH2C3H3C2H4CSHFeHSFeSFeS2FeSFeSHC3H5C8H3C3HNC5H3C2HC2NHSHCHC5FeCH2SH2CHFeHCHNH3SC3HSCH3C3H2CHCHCH2SC2HC2NFeCFeSCFeSHSC2FeS2FeS2FeHFeS4FeS2FeS2FeSFeS4HC2FeHC6H4C6H4C6H4C3HCH2C4NCHC2H4C3NC2H2C2SH2CSC3NCSH7CH2CH5C4H6C2HCHSH2CH4CHFeHSFeS2FeHFeHS2FeCSFeS2C3HCHC6H4C4SH4SCNC2HC2H2SC2H2CHC2HNCNHCSH4C5HCFeH2CHCH2SH3CFeH2CHC2SHC2H7NHC5HCHCH3NHC5HSCHCFeS2HS3CH2C2H4C3H2SHC2HCH6C3NCHC2H3CH2CH2C6FeH2CHSCFeC2FeS2FeHCSCNCHCH4CFeHNH2C5H2C2HC3HNH2C2H4CHC2H3SHCH3C4H4C2HCS2CNCHC3SHCS2H2C2NC2SHS2FeSFeS3FeS2FeS2FeSFeCS2C4H2NC2HC3H2CH2C7H9C4HC2HFeC2H4CH2C5HNFeC2HCNC6H8C3S2CH3CH2CH2C2SCSH2SC5HCHCH2FeHCFeS2FeS2FeCFeSFeH2C4HCSHCHC2HCHC2H2C3H3CNH2NC2HCH2SHCSC2HCHCFeH2C2SH2CHCHCFeSHCFeHFeS2HCNC2SHC3SC2H3CSCHSC2H5CNC4HCFeC2H4C2SHNC2H2SC2H3CH3CHC3H2SHC2HC2FeH3CSHC2FeS2FeSCFe2SCSHFeS2FeSFeHS2CH4SHCSCHCH3C6H4CH2CSCHCHC4HC2H3CHC2H2NSCHCHFeHNC3HCH5C2H3CH2C2HNCHC2S2CH5CHFe2SFeS2FeHCS2HFeH2S4C6H4CHC3H2C3H3SFe2S2FeSFeS3CH3C2HNHC3HC3H2C2HSH3CSCH2CH2CNC3H2C2H2NSH4CSNCNFeCNC6HCHCFeC2H2NHC2H2CHCH3CHC2H5C2H2CSH2C2H2CHFeSFeS2FeHCSCFe2HS3FeS2FeSHFeSFeS3CSHC5H2CH3C6H4C6H4CH3CHC2H4C5HCH4CH4NC5H2NH3SH5CNCHC4HCHSHCH3CNHC3HC4H3C3SCH5SNCHNCH
_chemical_formula_sum              "C576 H576 S192 Fe96 N48"
_cell_length_a       45.3225
_cell_length_b       45.3231
_cell_length_c       49.3264
_cell_angle_alpha    89.9573
_cell_angle_beta     89.7728
_cell_angle_gamma    119.919

_space_group_name_H-M_alt    "P 1"
_space_group_IT_number       1

loop_
  _space_group_symop_operation_xyz
  'x, y, z'

loop_
  _atom_site_type_symbol
  _atom_site_label
  _atom_site_symmetry_multiplicity
  _atom_site_fract_x
  _atom_site_fract_y
  _atom_site_fract_z
  _atom_site_occupancy
  C   C1        1.0  0.01412  0.38325  0.09003  1.0000
  C   C2        1.0  0.47018  0.47900  0.07024  1.0000
  H   H1        1.0  0.46503  0.46627  0.09034  1.0000
  H   H2        1.0  0.02886  0.47083  0.26272  1.0000
  S   S1        1.0  0.34638  0.03449  0.29396  1.0000
  H   H3        1.0  0.46248  0.19795  0.29276  1.0000
  H   H4        1.0  0.47508  0.46705  0.21731  1.0000
  H   H5        1.0  0.01562  0.47680  0.16777  1.0000
  S   S2        1.0  0.35385  0.04251  0.16597  1.0000
  C   C3        1.0  0.48424  0.03169  0.14511  1.0000
  H   H6        1.0  0.42125  0.01063  0.18321  1.0000
  Fe  Fe1       1.0  0.41669  0.35369  0.27839  1.0000
  S   S3        1.0  0.36996  0.35807  0.26972  1.0000
  S   S4        1.0  0.41210  0.30139  0.27299  1.0000
  Fe  Fe2       1.0  0.46041  0.43021  0.28893  1.0000
  S   S5        1.0  0.41651  0.43833  0.28194  1.0000
  H   H7        1.0  0.01358  0.31566  0.01607  1.0000
  Fe  Fe3       1.0  0.38632  0.39158  0.30666  1.0000
  Fe  Fe4       1.0  0.40527  0.40498  0.24546  1.0000
  S   S6        1.0  0.40045  0.43337  0.20904  1.0000
  H   H8        1.0  0.49265  0.04980  0.07997  1.0000
  S   S7        1.0  0.45093  0.39859  0.25150  1.0000
  Fe  Fe5       1.0  0.38006  0.47219  0.02016  1.0000
  S   S8        1.0  0.38475  0.42574  0.02422  1.0000
  Fe  Fe6       1.0  0.30202  0.43161  0.01997  1.0000
  S   S9        1.0  0.30163  0.38172  0.02346  1.0000
  S   S10       1.0  0.25309  0.43420  0.02600  1.0000
  Fe  Fe7       1.0  0.34267  0.40784  0.05473  1.0000
  S   S11       1.0  0.34229  0.37726  0.09144  1.0000
  C   C4        1.0  0.05684  0.34178  0.07524  1.0000
  S   S12       1.0  0.34081  0.45631  0.05338  1.0000
  H   H9        1.0  0.39964  0.19091  0.29878  1.0000
  C   C5        1.0  0.38548  0.41746  0.17614  1.0000
  C   C6        1.0  0.38529  0.43974  0.15633  1.0000
  C   C7        1.0  0.37306  0.42810  0.13002  1.0000
  C   C8        1.0  0.36076  0.39397  0.12335  1.0000
  C   C9        1.0  0.36122  0.37178  0.14307  1.0000
  C   C10       1.0  0.37350  0.38343  0.16936  1.0000
  H   H10       1.0  0.39446  0.46611  0.16145  1.0000
  H   H11       1.0  0.37263  0.44535  0.11506  1.0000
  H   H12       1.0  0.35186  0.34535  0.13803  1.0000
  H   H13       1.0  0.37361  0.36606  0.18438  1.0000
  H   H14       1.0  0.24448  0.37974  0.06303  1.0000
  H   H15       1.0  0.46214  0.03472  0.14546  1.0000
  S   S13       1.0  0.42873  0.12464  0.31025  1.0000
  C   C11       1.0  0.41331  0.27249  0.29677  1.0000
  C   C12       1.0  0.40368  0.23925  0.28830  1.0000
  C   C13       1.0  0.42685  0.00972  0.20446  1.0000
  H   H16       1.0  0.29735  0.44671  0.12928  1.0000
  H   H17       1.0  0.39411  0.23135  0.26796  1.0000
  C   C14       1.0  0.25753  0.35779  0.09663  1.0000
  C   C15       1.0  0.35399  0.03846  0.25873  1.0000
  C   C16       1.0  0.36404  0.06920  0.24526  1.0000
  C   C17       1.0  0.36501  0.07038  0.21675  1.0000
  C   C18       1.0  0.35671  0.04108  0.20157  1.0000
  N   N1        1.0  0.27251  0.36331  0.12156  1.0000
  H   H18       1.0  0.11883  0.38569  0.02861  1.0000
  H   H19       1.0  0.36934  0.09163  0.25675  1.0000
  H   H20       1.0  0.37131  0.09388  0.20639  1.0000
  H   H21       1.0  0.11022  0.37846  0.07839  1.0000
  C   C19       1.0  0.03495  0.38305  0.30917  1.0000
  H   H22       1.0  0.43333  0.07842  0.25807  1.0000
  C   C20       1.0  0.38672  0.02206  0.01101  1.0000
  H   H23       1.0  0.38007  0.46812  0.31528  1.0000
  H   H24       1.0  0.15118  0.43793  0.99684  1.0000
  H   H25       1.0  0.04792  0.36879  0.30571  1.0000
  C   C21       1.0  0.42968  0.03495  0.22235  1.0000
  C   C22       1.0  0.48769  0.21760  0.30054  1.0000
  S   S14       1.0  0.00722  0.41149  0.19083  1.0000
  C   C23       1.0  0.48357  0.25981  0.27229  1.0000
  H   H26       1.0  0.19160  0.43744  0.03073  1.0000
  C   C24       1.0  0.48723  0.29201  0.26808  1.0000
  C   C25       1.0  0.27005  0.41610  0.09487  1.0000
  H   H27       1.0  0.44999  0.47651  0.00366  1.0000
  C   C26       1.0  0.19590  0.43578  0.00934  1.0000
  C   C27       1.0  0.27320  0.33508  0.13552  1.0000
  C   C28       1.0  0.03440  0.40221  0.04392  1.0000
  C   C29       1.0  0.04022  0.40436  0.07199  1.0000
  H   H28       1.0  0.44550  0.47283  0.06080  1.0000
  H   H29       1.0  0.06535  0.42166  0.07972  1.0000
  H   H30       1.0  0.05502  0.41777  0.03027  1.0000
  H   H31       1.0  0.26945  0.43676  0.08417  1.0000
  H   H32       1.0  0.47273  0.24099  0.25631  1.0000
  H   H33       1.0  0.28450  0.32367  0.12196  1.0000
  S   S15       1.0  0.40221  0.01593  0.11634  1.0000
  C   C30       1.0  0.28653  0.39476  0.13336  1.0000
  H   H34       1.0  0.05256  0.33930  0.09703  1.0000
  C   C31       1.0  0.02039  0.47875  0.24436  1.0000
  C   C32       1.0  0.01532  0.38571  0.28831  1.0000
  S   S16       1.0  0.01234  0.36554  0.25682  1.0000
  N   N2        1.0  0.49216  0.25167  0.29661  1.0000
  H   H35       1.0  0.24701  0.31530  0.14137  1.0000
  H   H36       1.0  0.28918  0.34372  0.15405  1.0000
  N   N3        1.0  0.43606  0.03343  0.24928  1.0000
  H   H37       1.0  0.34126  0.01985  0.02658  1.0000
  C   C33       1.0  0.50020  0.31606  0.28879  1.0000
  H   H38       1.0  0.42621  0.05541  0.21457  1.0000
  H   H39       1.0  0.29922  0.39945  0.15279  1.0000
  N   N4        1.0  0.06670  0.35128  0.01951  1.0000
  H   H40       1.0  0.44540  0.00631  0.28025  1.0000
  H   H41       1.0  0.24736  0.33316  0.08694  1.0000
  C   C34       1.0  0.03513  0.32878  0.02960  1.0000
  C   C35       1.0  0.25596  0.38402  0.08298  1.0000
  C   C36       1.0  0.28564  0.42165  0.12014  1.0000
  C   C37       1.0  0.40684  0.21626  0.30571  1.0000
  C   C38       1.0  0.35864  0.02694  0.00956  1.0000
  C   C39       1.0  0.08911  0.36407  0.06475  1.0000
  Fe  Fe8       1.0  0.38245  0.07561  0.32268  1.0000
  C   C40       1.0  0.44031  0.00750  0.25895  1.0000
  C   C41       1.0  0.43840  0.05947  0.26816  1.0000
  C   C42       1.0  0.22469  0.43387  0.00101  1.0000
  C   C43       1.0  0.34842  0.01077  0.21513  1.0000
  C   C44       1.0  0.02970  0.32379  0.05758  1.0000
  C   C45       1.0  0.09369  0.36832  0.03664  1.0000
  H   H42       1.0  0.36365  0.29128  0.32226  1.0000
  C   C46       1.0  0.01358  0.49864  0.17381  1.0000
  C   C47       1.0  0.34672  0.00941  0.24360  1.0000
  S   S17       1.0  0.02448  0.38154  0.12416  1.0000
  S   S18       1.0  0.43100  0.38495  0.31656  1.0000
  H   H43       1.0  0.50204  0.34070  0.28602  1.0000
  H   H44       1.0  0.46424  0.07332  0.27722  1.0000
  H   H45       1.0  0.00431  0.30728  0.06558  1.0000
  H   H46       1.0  0.32592  0.31660  0.32234  1.0000
  H   H47       1.0  0.41921  0.04736  0.28466  1.0000
  H   H48       1.0  0.03152  0.47351  0.22614  1.0000
  H   H49       1.0  0.47879  0.29786  0.24928  1.0000
  H   H50       1.0  0.48216  0.46832  0.05667  1.0000
  H   H51       1.0  0.28434  0.02974  0.21662  1.0000
  C   C48       1.0  0.49506  0.49346  0.21909  1.0000
  H   H52       1.0  0.27752  0.00471  0.17103  1.0000
  C   C49       1.0  0.42558  0.28235  0.32311  1.0000
  Fe  Fe9       1.0  0.34399  0.40397  0.99257  1.0000
  C   C50       1.0  0.27335  0.00242  0.21442  1.0000
  S   S19       1.0  0.39417  0.00259  0.03943  1.0000
  H   H53       1.0  0.46894  0.50064  0.27581  1.0000
  C   C51       1.0  0.47181  0.50171  0.00527  1.0000
  N   N5        1.0  0.49155  0.00256  0.07445  1.0000
  H   H54       1.0  0.48806  0.21166  0.32239  1.0000
  Fe  Fe10      1.0  0.04026  0.41030  0.46830  1.0000
  S   S20       1.0  0.09088  0.45230  0.48247  1.0000
  Fe  Fe11      1.0  0.05177  0.43694  0.40903  1.0000
  H   H55       1.0  0.07987  0.36116  0.54241  1.0000
  H   H56       1.0  0.10263  0.36342  0.42636  1.0000
  Fe  Fe12      1.0  0.11091  0.44277  0.44364  1.0000
  S   S21       1.0  0.15815  0.43725  0.43881  1.0000
  H   H57       1.0  0.43354  0.30796  0.32980  1.0000
  S   S22       1.0  0.06040  0.39810  0.43069  1.0000
  N   N6        1.0  0.01650  0.45825  0.54749  1.0000
  Fe  Fe13      1.0  0.40387  0.08299  0.38324  1.0000
  S   S23       1.0  0.45157  0.13254  0.37450  1.0000
  S   S24       1.0  0.39594  0.04936  0.42033  1.0000
  H   H58       1.0  0.30521  0.47518  0.63013  1.0000
  H   H59       1.0  0.26648  0.33368  0.60861  1.0000
  H   H60       1.0  0.39136  0.01009  0.46719  1.0000
  Fe  Fe14      1.0  0.41857  0.14561  0.34845  1.0000
  S   S25       1.0  0.42764  0.19987  0.35379  1.0000
  S   S26       1.0  0.41162  0.05747  0.34717  1.0000
  S   S27       1.0  0.36994  0.09700  0.35956  1.0000
  Fe  Fe15      1.0  0.45704  0.10733  0.33727  1.0000
  S   S28       1.0  0.37918  0.39830  0.46255  1.0000
  S   S29       1.0  0.35672  0.46657  0.49476  1.0000
  C   C52       1.0  0.36110  0.39976  0.37164  1.0000
  C   C53       1.0  0.34200  0.40714  0.39007  1.0000
  C   C54       1.0  0.34838  0.40860  0.41808  1.0000
  C   C55       1.0  0.37356  0.40209  0.42772  1.0000
  C   C56       1.0  0.39304  0.39536  0.40922  1.0000
  C   C57       1.0  0.38701  0.39443  0.38128  1.0000
  H   H61       1.0  0.32177  0.41115  0.38274  1.0000
  H   H62       1.0  0.33307  0.41355  0.43225  1.0000
  H   H63       1.0  0.41241  0.39010  0.41661  1.0000
  H   H64       1.0  0.40164  0.38837  0.36737  1.0000
  H   H65       1.0  0.37869  0.10679  0.49888  1.0000
  H   H66       1.0  0.27096  0.45501  0.58783  1.0000
  H   H67       1.0  0.43907  0.26749  0.36064  1.0000
  C   C58       1.0  0.39119  0.05577  0.45519  1.0000
  C   C59       1.0  0.38808  0.08327  0.46437  1.0000
  C   C60       1.0  0.03792  0.39865  0.33452  1.0000
  H   H68       1.0  0.38982  0.10221  0.45008  1.0000
  S   S30       1.0  0.02665  0.44439  0.44560  1.0000
  H   H69       1.0  0.48330  0.48413  0.35638  1.0000
  H   H70       1.0  0.03521  0.33713  0.50697  1.0000
  C   C61       1.0  0.18840  0.44127  0.46352  1.0000
  C   C62       1.0  0.23840  0.43623  0.47490  1.0000
  C   C63       1.0  0.21510  0.43565  0.45570  1.0000
  H   H71       1.0  0.25874  0.43181  0.46855  1.0000
  H   H72       1.0  0.21773  0.43070  0.43463  1.0000
  H   H73       1.0  0.04523  0.47527  0.58403  1.0000
  C   C64       1.0  0.35315  0.29545  0.39028  1.0000
  C   C65       1.0  0.35462  0.36552  0.64487  1.0000
  H   H74       1.0  0.04174  0.46812  0.50905  1.0000
  H   H75       1.0  0.05096  0.33334  0.45961  1.0000
  H   H76       1.0  0.49982  0.46116  0.49232  1.0000
  H   H77       1.0  0.30929  0.04697  0.49467  1.0000
  C   C66       1.0  0.33342  0.31014  0.34132  1.0000
  S   S31       1.0  0.40758  0.05357  0.61217  1.0000
  H   H78       1.0  0.05958  0.40977  0.52909  1.0000
  Fe  Fe16      1.0  0.36614  0.03515  0.64346  1.0000
  H   H79       1.0  0.10134  0.32371  0.43440  1.0000
  S   S32       1.0  0.36615  0.06289  0.54463  1.0000
  Fe  Fe17      1.0  0.38906  0.47994  0.53222  1.0000
  S   S33       1.0  0.39433  0.43357  0.53160  1.0000
  Fe  Fe18      1.0  0.31178  0.43922  0.52324  1.0000
  S   S34       1.0  0.31205  0.38959  0.52171  1.0000
  S   S35       1.0  0.26249  0.44136  0.52763  1.0000
  Fe  Fe19      1.0  0.34741  0.40956  0.55745  1.0000
  S   S36       1.0  0.34000  0.37374  0.59234  1.0000
  Fe  Fe20      1.0  0.35925  0.41825  0.49587  1.0000
  S   S37       1.0  0.34448  0.45728  0.56080  1.0000
  H   H80       1.0  0.45705  0.48492  0.55450  1.0000
  C   C67       1.0  0.37631  0.42374  0.63036  1.0000
  C   C68       1.0  0.35894  0.38897  0.62440  1.0000
  C   C69       1.0  0.30099  0.42654  0.63865  1.0000
  H   H81       1.0  0.14042  0.36413  0.43684  1.0000
  H   H82       1.0  0.37963  0.44202  0.61482  1.0000
  H   H83       1.0  0.34112  0.33856  0.64044  1.0000
  H   H84       1.0  0.38072  0.27723  0.36622  1.0000
  H   H85       1.0  0.47244  0.06061  0.60011  1.0000
  C   C70       1.0  0.38182  0.08581  0.49207  1.0000
  C   C71       1.0  0.37879  0.06106  0.51087  1.0000
  C   C72       1.0  0.38291  0.03410  0.50182  1.0000
  C   C73       1.0  0.46928  0.04399  0.39497  1.0000
  C   C74       1.0  0.29475  0.44898  0.62367  1.0000
  C   C75       1.0  0.18531  0.44763  0.49084  1.0000
  C   C76       1.0  0.20841  0.44787  0.51008  1.0000
  C   C77       1.0  0.23510  0.44221  0.50226  1.0000
  H   H86       1.0  0.16493  0.45200  0.49718  1.0000
  H   H87       1.0  0.20567  0.45266  0.53117  1.0000
  H   H88       1.0  0.22841  0.33322  0.59713  1.0000
  C   C78       1.0  0.03791  0.39623  0.54237  1.0000
  C   C79       1.0  0.04257  0.39804  0.57056  1.0000
  C   C80       1.0  0.48575  0.02579  0.61860  1.0000
  H   H89       1.0  0.06788  0.41316  0.57883  1.0000
  N   N7        1.0  0.10368  0.35362  0.46835  1.0000
  C   C81       1.0  0.07056  0.34316  0.47504  1.0000
  C   C82       1.0  0.12830  0.36588  0.48789  1.0000
  C   C83       1.0  0.25664  0.34755  0.59639  1.0000
  C   C84       1.0  0.12024  0.36906  0.51475  1.0000
  C   C85       1.0  0.08657  0.35872  0.52169  1.0000
  H   H90       1.0  0.36100  0.28961  0.40936  1.0000
  H   H91       1.0  0.05308  0.39638  0.35038  1.0000
  H   H92       1.0  0.37038  0.46878  0.35065  1.0000
  C   C86       1.0  0.26312  0.40414  0.59149  1.0000
  C   C87       1.0  0.04623  0.47824  0.53005  1.0000
  H   H93       1.0  0.29334  0.37596  0.64123  1.0000
  C   C88       1.0  0.47008  0.48436  0.48127  1.0000
  C   C89       1.0  0.43669  0.48344  0.34600  1.0000
  N   N8        1.0  0.33251  0.30947  0.39007  1.0000
  H   H94       1.0  0.31156  0.33454  0.41343  1.0000
  S   S38       1.0  0.35058  0.39506  0.33695  1.0000
  H   H95       1.0  0.30577  0.32740  0.36571  1.0000
  C   C90       1.0  0.06150  0.34536  0.50179  1.0000
  H   H96       1.0  0.14011  0.37986  0.52993  1.0000
  C   C91       1.0  0.02026  0.46015  0.57507  1.0000
  C   C92       1.0  0.41986  0.22636  0.33183  1.0000
  C   C93       1.0  0.42881  0.25938  0.34051  1.0000
  C   C94       1.0  0.02126  0.41713  0.33920  1.0000
  C   C95       1.0  0.49286  0.05701  0.60732  1.0000
  Fe  Fe21      1.0  0.36613  0.03171  0.58094  1.0000
  C   C96       1.0  0.32034  0.31574  0.41584  1.0000
  H   H97       1.0  0.46563  0.06414  0.38539  1.0000
  H   H98       1.0  0.44439  0.11196  0.65888  1.0000
  S   S39       1.0  0.10327  0.48092  0.41953  1.0000
  H   H99       1.0  0.29895  0.29163  0.42392  1.0000
  H   H100      1.0  0.26554  0.34818  0.57523  1.0000
  C   C97       1.0  0.11239  0.35084  0.44016  1.0000
  H   H101      1.0  0.06883  0.47744  0.53775  1.0000
  Fe  Fe22      1.0  0.07813  0.48591  0.45728  1.0000
  H   H102      1.0  0.44576  0.46104  0.48357  1.0000
  C   C98       1.0  0.32213  0.31626  0.36600  1.0000
  H   H103      1.0  0.34117  0.32667  0.43107  1.0000
  N   N9        1.0  0.26959  0.38240  0.60616  1.0000
  H   H104      1.0  0.24894  0.39583  0.57269  1.0000
  H   H105      1.0  0.31757  0.02682  0.46698  1.0000
  H   H106      1.0  0.27406  0.01439  0.47553  1.0000
  S   S40       1.0  0.02217  0.38327  0.62330  1.0000
  C   C99       1.0  0.27546  0.43768  0.60004  1.0000
  C   C100      1.0  0.38889  0.03141  0.47410  1.0000
  C   C101      1.0  0.28787  0.39304  0.62968  1.0000
  H   H107      1.0  0.42177  0.45586  0.34607  1.0000
  S   S41       1.0  0.32500  0.01813  0.61224  1.0000
  C   C102      1.0  0.38540  0.48490  0.33319  1.0000
  H   H108      1.0  0.15455  0.37398  0.48270  1.0000
  H   H109      1.0  0.46083  0.04134  0.41645  1.0000
  H   H110      1.0  0.28470  0.01619  0.53675  1.0000
  C   C103      1.0  0.29957  0.02224  0.48398  1.0000
  C   C104      1.0  0.00542  0.37619  0.53153  1.0000
  C   C105      1.0  0.36450  0.28851  0.36595  1.0000
  H   H111      1.0  0.31647  0.43508  0.65682  1.0000
  H   H112      1.0  0.38060  0.01487  0.51604  1.0000
  C   C106      1.0  0.38910  0.43488  0.65661  1.0000
  H   H113      1.0  0.01081  0.48596  0.47494  1.0000
  C   C107      1.0  0.47137  0.49928  0.35214  1.0000
  H   H114      1.0  0.47964  0.10737  0.64688  1.0000
  C   C108      1.0  0.48152  0.04168  0.32719  1.0000
  H   H115      1.0  0.45246  0.01992  0.38407  1.0000
  H   H116      1.0  0.45051  0.04704  0.65608  1.0000
  S   S42       1.0  0.02399  0.43731  0.37066  1.0000
  C   C109      1.0  0.50043  0.48440  0.48605  1.0000
  C   C110      1.0  0.01471  0.38050  0.58816  1.0000
  H   H117      1.0  0.45662  0.03900  0.32819  1.0000
  C   C111      1.0  0.35475  0.29617  0.34132  1.0000
  C   C112      1.0  0.48477  0.01246  0.32804  1.0000
  N   N10       1.0  0.42184  0.50239  0.33949  1.0000
  Fe  Fe23      1.0  0.03412  0.40926  0.96899  1.0000
  C   C113      1.0  0.36764  0.37668  0.67109  1.0000
  Fe  Fe24      1.0  0.04141  0.43115  0.90867  1.0000
  S   S43       1.0  0.09401  0.47488  0.91624  1.0000
  C   C114      1.0  0.48904  0.03864  0.85181  1.0000
  Fe  Fe25      1.0  0.10263  0.43860  0.94190  1.0000
  S   S44       1.0  0.15112  0.43552  0.93730  1.0000
  H   H118      1.0  0.46758  0.46069  0.73704  1.0000
  S   S45       1.0  0.05132  0.39369  0.93141  1.0000
  C   C115      1.0  0.44070  0.02654  0.69637  1.0000
  C   C116      1.0  0.35875  0.01844  0.74732  1.0000
  Fe  Fe26      1.0  0.39624  0.08367  0.89442  1.0000
  S   S46       1.0  0.44654  0.13186  0.89086  1.0000
  S   S47       1.0  0.36406  0.06302  0.93294  1.0000
  Fe  Fe27      1.0  0.39282  0.07258  0.83280  1.0000
  S   S48       1.0  0.44273  0.12029  0.82479  1.0000
  S   S49       1.0  0.36182  0.03209  0.80169  1.0000
  Fe  Fe28      1.0  0.46057  0.10324  0.86100  1.0000
  H   H119      1.0  0.37852  0.26687  0.90491  1.0000
  Fe  Fe29      1.0  0.42417  0.14495  0.85504  1.0000
  S   S50       1.0  0.43268  0.19926  0.85597  1.0000
  S   S51       1.0  0.41188  0.05409  0.86722  1.0000
  S   S52       1.0  0.37268  0.09808  0.86038  1.0000
  S   S53       1.0  0.37329  0.07157  0.67735  1.0000
  Fe  Fe30      1.0  0.40877  0.34230  0.77904  1.0000
  S   S54       1.0  0.36375  0.34851  0.76779  1.0000
  S   S55       1.0  0.39992  0.28829  0.77420  1.0000
  Fe  Fe31      1.0  0.45205  0.41781  0.79347  1.0000
  S   S56       1.0  0.40988  0.42785  0.78399  1.0000
  S   S57       1.0  0.01915  0.44196  0.94559  1.0000
  Fe  Fe32      1.0  0.37665  0.37928  0.80606  1.0000
  S   S58       1.0  0.33731  0.37811  0.83494  1.0000
  Fe  Fe33      1.0  0.40180  0.39675  0.74651  1.0000
  S   S59       1.0  0.40088  0.42701  0.70986  1.0000
  S   S60       1.0  0.41939  0.37076  0.81843  1.0000
  S   S61       1.0  0.44608  0.38872  0.75498  1.0000
  S   S62       1.0  0.35746  0.37560  0.96178  1.0000
  H   H120      1.0  0.35062  0.19563  0.83941  1.0000
  C   C117      1.0  0.38488  0.41145  0.67709  1.0000
  C   C118      1.0  0.41242  0.45366  0.86788  1.0000
  Fe  Fe34      1.0  0.07181  0.48391  0.95392  1.0000
  H   H121      1.0  0.36422  0.35841  0.68668  1.0000
  C   C119      1.0  0.34336  0.37785  0.87018  1.0000
  C   C120      1.0  0.32466  0.38663  0.88791  1.0000
  C   C121      1.0  0.32919  0.38678  0.91613  1.0000
  C   C122      1.0  0.35180  0.37724  0.92668  1.0000
  C   C123      1.0  0.37043  0.36842  0.90896  1.0000
  C   C124      1.0  0.36656  0.36916  0.88080  1.0000
  H   H122      1.0  0.30664  0.39335  0.87979  1.0000
  H   H123      1.0  0.31459  0.39341  0.92969  1.0000
  H   H124      1.0  0.38807  0.36120  0.91709  1.0000
  H   H125      1.0  0.38136  0.36277  0.86740  1.0000
  C   C125      1.0  0.42657  0.22451  0.83148  1.0000
  C   C126      1.0  0.43654  0.25848  0.83793  1.0000
  C   C127      1.0  0.42940  0.27869  0.82036  1.0000
  C   C128      1.0  0.41232  0.26515  0.79599  1.0000
  C   C129      1.0  0.40301  0.23142  0.78924  1.0000
  C   C130      1.0  0.41011  0.21119  0.80684  1.0000
  H   H126      1.0  0.44935  0.26905  0.85691  1.0000
  H   H127      1.0  0.43678  0.30456  0.82582  1.0000
  H   H128      1.0  0.38987  0.22074  0.77040  1.0000
  H   H129      1.0  0.40231  0.18515  0.80159  1.0000
  C   C131      1.0  0.36817  0.04375  0.76717  1.0000
  C   C132      1.0  0.38066  0.07753  0.75917  1.0000
  C   C133      1.0  0.38264  0.08575  0.73149  1.0000
  C   C134      1.0  0.37283  0.06043  0.71165  1.0000
  C   C135      1.0  0.36131  0.02677  0.71960  1.0000
  C   C136      1.0  0.17283  0.43586  0.99021  1.0000
  H   H130      1.0  0.38781  0.09717  0.77433  1.0000
  H   H131      1.0  0.39143  0.11183  0.72548  1.0000
  H   H132      1.0  0.47932  0.44109  0.87841  1.0000
  H   H133      1.0  0.25212  0.43059  0.96654  1.0000
  C   C137      1.0  0.37483  0.04958  0.96333  1.0000
  C   C138      1.0  0.40329  0.04534  0.96498  1.0000
  C   C139      1.0  0.33535  0.28792  0.82716  1.0000
  H   H134      1.0  0.42046  0.05212  0.94785  1.0000
  C   C140      1.0  0.41735  0.46013  0.94361  1.0000
  H   H135      1.0  0.38459  0.46205  0.89929  1.0000
  H   H136      1.0  0.01162  0.49062  0.97628  1.0000
  C   C141      1.0  0.17833  0.43400  0.96247  1.0000
  C   C142      1.0  0.43889  0.44736  0.86204  1.0000
  C   C143      1.0  0.20710  0.43213  0.95419  1.0000
  C   C144      1.0  0.45780  0.09179  0.71235  1.0000
  N   N11       1.0  0.42461  0.45550  0.91544  1.0000
  C   C145      1.0  0.07198  0.35624  0.99013  1.0000
  H   H137      1.0  0.37423  0.21413  0.88545  1.0000
  C   C146      1.0  0.44848  0.06626  0.73196  1.0000
  C   C147      1.0  0.43984  0.03343  0.72385  1.0000
  H   H138      1.0  0.09142  0.38296  0.98512  1.0000
  H   H139      1.0  0.46367  0.03518  0.85178  1.0000
  H   H140      1.0  0.30718  0.27572  0.82723  1.0000
  H   H141      1.0  0.39658  0.45424  0.85166  1.0000
  C   C148      1.0  0.28751  0.02783  0.69040  1.0000
  C   C149      1.0  0.35212  0.21832  0.84811  1.0000
  C   C150      1.0  0.02330  0.38055  0.80715  1.0000
  N   N12       1.0  0.34600  0.26779  0.84341  1.0000
  C   C151      1.0  0.35796  0.27767  0.86918  1.0000
  C   C152      1.0  0.34276  0.23839  0.83289  1.0000
  H   H142      1.0  0.33257  0.02303  0.88481  1.0000
  H   H143      1.0  0.45461  0.48762  0.80845  1.0000
  C   C153      1.0  0.46778  0.11166  0.66514  1.0000
  C   C154      1.0  0.00958  0.48170  0.74108  1.0000
  S   S63       1.0  0.50263  0.46199  0.80703  1.0000
  H   H144      1.0  0.33397  0.23094  0.81225  1.0000
  H   H145      1.0  0.03403  0.49001  0.73021  1.0000
  C   C155      1.0  0.48404  0.48805  0.73838  1.0000
  S   S64       1.0  0.08577  0.45226  0.98042  1.0000
  C   C156      1.0  0.45108  0.45001  0.90980  1.0000
  C   C157      1.0  0.45857  0.44577  0.88301  1.0000
  C   C158      1.0  0.36817  0.25851  0.88477  1.0000
  N   N13       1.0  0.45902  0.08490  0.68549  1.0000
  C   C159      1.0  0.36537  0.22874  0.87404  1.0000
  S   S65       1.0  0.01245  0.43178  0.87105  1.0000
  H   H146      1.0  0.34447  0.29003  0.80589  1.0000
  H   H147      1.0  0.46629  0.44851  0.92609  1.0000
  H   H148      1.0  0.21166  0.43076  0.93279  1.0000
  H   H149      1.0  0.01152  0.47369  0.76198  1.0000
  H   H150      1.0  0.44402  0.44344  0.84130  1.0000
  H   H151      1.0  0.43320  0.48721  0.94967  1.0000
  H   H152      1.0  0.01970  0.48285  0.67586  1.0000
  C   C160      1.0  0.40908  0.03152  0.98865  1.0000
  H   H153      1.0  0.46339  0.11696  0.71873  1.0000
  H   H154      1.0  0.42226  0.44378  0.95757  1.0000
  C   C161      1.0  0.29641  0.04849  0.71343  1.0000
  H   H155      1.0  0.34601  0.31426  0.83499  1.0000
  H   H156      1.0  0.30861  0.07595  0.71130  1.0000
  H   H157      1.0  0.36001  0.30065  0.87774  1.0000
  H   H158      1.0  0.35353  0.00705  0.70450  1.0000
  H   H159      1.0  0.29292  0.03980  0.67054  1.0000
  C   C162      1.0  0.40568  0.45786  0.89487  1.0000
  C   C163      1.0  0.45028  0.05271  0.67737  1.0000
  C   C164      1.0  0.35276  0.04062  0.98583  1.0000
  C   C165      1.0  0.23014  0.43206  0.97329  1.0000
  H   H160      1.0  0.44274  0.49846  0.73624  1.0000
  H   H161      1.0  0.33072  0.04389  0.98477  1.0000
  H   H162      1.0  0.43188  0.01329  0.73883  1.0000
  H   H163      1.0  0.43090  0.02791  0.98959  1.0000
  H   H164      1.0  0.08050  0.33896  0.98179  1.0000
  H   H165      1.0  0.44702  0.07168  0.75322  1.0000
  C   C166      1.0  0.49372  0.01039  0.84850  1.0000
  C   C167      1.0  0.29162  0.03373  0.73907  1.0000
  H   H166      1.0  0.29985  0.04964  0.75705  1.0000
  C   C168      1.0  0.01000  0.41349  0.83874  1.0000
  H   H167      1.0  0.48632  0.13711  0.67329  1.0000
  S   S66       1.0  0.34160  0.45201  0.98652  1.0000
  H   H168      1.0  0.04811  0.35108  0.97977  1.0000
  H   H169      1.0  0.04084  0.39120  0.84867  1.0000
  C   C169      1.0  0.02617  0.39478  0.83308  1.0000
  H   H170      1.0  0.03591  0.36609  0.80299  1.0000
  H   H171      1.0  0.39005  0.45222  0.94633  1.0000
  H   H172      1.0  0.04282  0.49800  0.90584  1.0000
  H   H173      1.0  0.40237  0.46181  0.66110  1.0000
  C   C170      1.0  0.00442  0.38500  0.78661  1.0000
  H   H174      1.0  0.44461  0.95750  0.08350  1.0000
  Fe  Fe35      1.0  0.07290  0.64807  0.18778  1.0000
  H   H175      1.0  0.27558  0.93531  0.15474  1.0000
  S   S67       1.0  0.07390  0.60177  0.17122  1.0000
  Fe  Fe36      1.0  0.11211  0.72468  0.20143  1.0000
  S   S68       1.0  0.06420  0.72293  0.21699  1.0000
  S   S69       1.0  0.16219  0.77543  0.20478  1.0000
  Fe  Fe37      1.0  0.05206  0.67361  0.23771  1.0000
  H   H176      1.0  0.19621  0.53055  0.01810  1.0000
  Fe  Fe38      1.0  0.04057  0.69168  0.17943  1.0000
  H   H177      1.0  0.04253  0.59736  0.06310  1.0000
  S   S70       1.0  0.10153  0.67729  0.22466  1.0000
  S   S71       1.0  0.08865  0.69560  0.16315  1.0000
  Fe  Fe39      1.0  0.31723  0.92935  0.11967  1.0000
  C   C171      1.0  0.48869  0.51951  0.21186  1.0000
  S   S72       1.0  0.26548  0.88032  0.11659  1.0000
  Fe  Fe40      1.0  0.39426  0.96599  0.13110  1.0000
  S   S73       1.0  0.34847  0.95354  0.15704  1.0000
  S   S74       1.0  0.36274  0.93680  0.09538  1.0000
  C   C172      1.0  0.00548  0.69302  0.11681  1.0000
  C   C173      1.0  0.25256  0.94679  0.23422  1.0000
  C   C174      1.0  0.49838  0.57110  0.08082  1.0000
  H   H178      1.0  0.14759  0.56847  0.99256  1.0000
  C   C175      1.0  0.46734  0.52943  0.01123  1.0000
  H   H179      1.0  0.01740  0.76991  0.08746  1.0000
  C   C176      1.0  0.19119  0.80348  0.17984  1.0000
  C   C177      1.0  0.22088  0.83300  0.18833  1.0000
  C   C178      1.0  0.24430  0.85638  0.16934  1.0000
  C   C179      1.0  0.23799  0.85081  0.14153  1.0000
  C   C180      1.0  0.20836  0.82123  0.13305  1.0000
  C   C181      1.0  0.18528  0.79753  0.15204  1.0000
  H   H180      1.0  0.22595  0.83755  0.20979  1.0000
  H   H181      1.0  0.26727  0.87855  0.17621  1.0000
  H   H182      1.0  0.20351  0.81641  0.11159  1.0000
  H   H183      1.0  0.16317  0.77448  0.14522  1.0000
  C   C182      1.0  0.45432  0.98255  0.07326  1.0000
  C   C183      1.0  0.04271  0.77558  0.09346  1.0000
  C   C184      1.0  0.04089  0.53177  0.16894  1.0000
  C   C185      1.0  0.03865  0.56042  0.17664  1.0000
  S   S75       1.0  0.02350  0.64270  0.20144  1.0000
  H   H184      1.0  0.47640  0.55793  0.27139  1.0000
  H   H185      1.0  0.06391  0.53517  0.15936  1.0000
  H   H186      1.0  0.45039  0.52486  0.07747  1.0000
  H   H187      1.0  0.00637  0.63327  0.03110  1.0000
  S   S76       1.0  0.02006  0.70657  0.02523  1.0000
  C   C186      1.0  0.25362  0.93913  0.15872  1.0000
  N   N14       1.0  0.49217  0.51589  0.07332  1.0000
  C   C187      1.0  0.49655  0.55472  0.28002  1.0000
  C   C188      1.0  0.03212  0.60165  0.10497  1.0000
  H   H188      1.0  0.10797  0.77196  0.16068  1.0000
  C   C189      1.0  0.03507  0.69694  0.10451  1.0000
  C   C190      1.0  0.03838  0.69887  0.07617  1.0000
  H   H189      1.0  0.05608  0.70014  0.11674  1.0000
  H   H190      1.0  0.06207  0.70370  0.06688  1.0000
  S   S77       1.0  0.43998  0.96200  0.14406  1.0000
  C   C191      1.0  0.47786  0.53590  0.07757  1.0000
  C   C192      1.0  0.19269  0.52952  0.99632  1.0000
  H   H191      1.0  0.23915  0.90612  0.20585  1.0000
  H   H192      1.0  0.46369  0.51321  0.20442  1.0000
  C   C193      1.0  0.07273  0.57363  0.23836  1.0000
  H   H193      1.0  0.49274  0.58367  0.01714  1.0000
  C   C194      1.0  0.05145  0.58370  0.25066  1.0000
  C   C195      1.0  0.08952  0.78102  0.15735  1.0000
  H   H194      1.0  0.05250  0.59795  0.11262  1.0000
  N   N15       1.0  0.08177  0.78086  0.12850  1.0000
  C   C196      1.0  0.24854  0.93320  0.20812  1.0000
  N   N16       1.0  0.25671  0.95378  0.18576  1.0000
  H   H195      1.0  0.49762  0.95922  0.06880  1.0000
  C   C197      1.0  0.09908  0.78676  0.08174  1.0000
  S   S78       1.0  0.42699  0.52439  0.01895  1.0000
  H   H196      1.0  0.24655  0.93051  0.25192  1.0000
  H   H197      1.0  0.09698  0.59259  0.22979  1.0000
  H   H198      1.0  0.26931  0.99276  0.25746  1.0000
  H   H199      1.0  0.44569  0.97860  0.05185  1.0000
  C   C198      1.0  0.10614  0.78696  0.10937  1.0000
  C   C199      1.0  0.15030  0.54778  0.00229  1.0000
  C   C200      1.0  0.01981  0.55918  0.26075  1.0000
  C   C201      1.0  0.00866  0.55554  0.18891  1.0000
  C   C202      1.0  0.02628  0.60130  0.07707  1.0000
  H   H200      1.0  0.01615  0.60771  0.14475  1.0000
  C   C203      1.0  0.00984  0.52466  0.25834  1.0000
  Fe  Fe41      1.0  0.35450  0.00201  0.13964  1.0000
  H   H201      1.0  0.03506  0.71052  0.29510  1.0000
  H   H202      1.0  0.33876  0.98550  0.25393  1.0000
  C   C204      1.0  0.05059  0.77584  0.12090  1.0000
  H   H203      1.0  0.11807  0.79054  0.06658  1.0000
  C   C205      1.0  0.06200  0.53893  0.23630  1.0000
  H   H204      1.0  0.13106  0.79153  0.11539  1.0000
  H   H205      1.0  0.44145  0.96155  0.24933  1.0000
  S   S79       1.0  0.32103  0.97775  0.10320  1.0000
  H   H206      1.0  0.44249  0.99565  0.08387  1.0000
  H   H207      1.0  0.10052  0.80713  0.16566  1.0000
  H   H208      1.0  0.25300  0.95587  0.14252  1.0000
  C   C206      1.0  0.48053  0.99914  0.14464  1.0000
  Fe  Fe42      1.0  0.36883  0.98680  0.08131  1.0000
  H   H209      1.0  0.42900  0.96345  0.20050  1.0000
  H   H210      1.0  0.06615  0.76365  0.16905  1.0000
  C   C207      1.0  0.01885  0.65945  0.30838  1.0000
  H   H211      1.0  0.00692  0.59399  0.02657  1.0000
  C   C208      1.0  0.02424  0.69243  0.31160  1.0000
  C   C209      1.0  0.06706  0.78082  0.07379  1.0000
  S   S80       1.0  0.02899  0.64567  0.27777  1.0000
  H   H212      1.0  0.00639  0.57698  0.19517  1.0000
  C   C210      1.0  0.49596  0.56202  0.01282  1.0000
  C   C211      1.0  0.49204  0.52196  0.28287  1.0000
  H   H213      1.0  0.22992  0.91403  0.15704  1.0000
  H   H214      1.0  0.05928  0.61048  0.25216  1.0000
  H   H215      1.0  0.34159  0.98794  0.20375  1.0000
  H   H216      1.0  0.12433  0.52565  0.00551  1.0000
  H   H217      1.0  0.03107  0.77054  0.13603  1.0000
  H   H218      1.0  0.16248  0.55733  0.02231  1.0000
  H   H219      1.0  0.48692  0.58700  0.08319  1.0000
  N   N17       1.0  0.03077  0.51496  0.24601  1.0000
  H   H220      1.0  0.06072  0.77920  0.05241  1.0000
  C   C212      1.0  0.01163  0.60706  0.12311  1.0000
  C   C213      1.0  0.26502  0.98164  0.23733  1.0000
  C   C214      1.0  0.26944  0.98806  0.18864  1.0000
  C   C215      1.0  0.01194  0.69633  0.05987  1.0000
  C   C216      1.0  0.43800  0.98205  0.24158  1.0000
  H   H221      1.0  0.07852  0.53130  0.22636  1.0000
  C   C217      1.0  0.43110  0.98317  0.21418  1.0000
  H   H222      1.0  0.27746  0.97001  0.56774  1.0000
  C   C218      1.0  0.15567  0.74258  0.65313  1.0000
  H   H223      1.0  0.46228  0.98759  0.33005  1.0000
  H   H224      1.0  0.06691  0.56800  0.40203  1.0000
  H   H225      1.0  0.03339  0.64519  0.58803  1.0000
  N   N18       1.0  0.29753  0.99598  0.50253  1.0000
  H   H226      1.0  0.42939  0.55233  0.33293  1.0000
  C   C219      1.0  0.04630  0.53964  0.47186  1.0000
  C   C220      1.0  0.04951  0.57206  0.47070  1.0000
  C   C221      1.0  0.29027  0.94432  0.53721  1.0000
  C   C222      1.0  0.03000  0.51476  0.40107  1.0000
  C   C223      1.0  0.44085  0.53720  0.33866  1.0000
  H   H227      1.0  0.07459  0.59444  0.47011  1.0000
  S   S81       1.0  0.08319  0.53573  0.47159  1.0000
  C   C224      1.0  0.49083  0.53474  0.35167  1.0000
  H   H228      1.0  0.01991  0.72762  0.33855  1.0000
  C   C225      1.0  0.03996  0.54935  0.40199  1.0000
  Fe  Fe43      1.0  0.32242  0.96735  0.61497  1.0000
  S   S82       1.0  0.01478  0.70009  0.52160  1.0000
  S   S83       1.0  0.26973  0.92070  0.61075  1.0000
  H   H229      1.0  0.03026  0.60545  0.38214  1.0000
  S   S84       1.0  0.36062  0.98353  0.64867  1.0000
  S   S85       1.0  0.36119  0.97986  0.58157  1.0000
  S   S86       1.0  0.43471  0.53248  0.53703  1.0000
  C   C226      1.0  0.47504  0.53621  0.54064  1.0000
  H   H230      1.0  0.49288  0.00051  0.39661  1.0000
  H   H231      1.0  0.30451  0.92500  0.50266  1.0000
  C   C227      1.0  0.24426  0.88920  0.63513  1.0000
  C   C228      1.0  0.21206  0.86284  0.62728  1.0000
  H   H232      1.0  0.04011  0.64776  0.53815  1.0000
  H   H233      1.0  0.20373  0.86194  0.60660  1.0000
  H   H234      1.0  0.11449  0.77098  0.65063  1.0000
  H   H235      1.0  0.44757  0.51504  0.47125  1.0000
  C   C229      1.0  0.47558  0.55389  0.34480  1.0000
  C   C230      1.0  0.02462  0.70358  0.60330  1.0000
  C   C231      1.0  0.03134  0.70895  0.57534  1.0000
  H   H236      1.0  0.04514  0.71593  0.61764  1.0000
  H   H237      1.0  0.05716  0.72523  0.56826  1.0000
  S   S87       1.0  0.44375  0.99135  0.62111  1.0000
  H   H238      1.0  0.00789  0.60055  0.41375  1.0000
  C   C232      1.0  0.47908  0.50904  0.54935  1.0000
  C   C233      1.0  0.19034  0.83768  0.64589  1.0000
  H   H239      1.0  0.28761  0.92434  0.55092  1.0000
  C   C234      1.0  0.02694  0.59581  0.40331  1.0000
  H   H240      1.0  0.16576  0.81806  0.63919  1.0000
  H   H241      1.0  0.02324  0.60067  0.46797  1.0000
  H   H242      1.0  0.05132  0.61070  0.41438  1.0000
  H   H243      1.0  0.47504  0.55248  0.60370  1.0000
  H   H244      1.0  0.18265  0.76324  0.65140  1.0000
  H   H245      1.0  0.14259  0.74127  0.63381  1.0000
  C   C235      1.0  0.01379  0.51094  0.47306  1.0000
  C   C236      1.0  0.01560  0.70203  0.33628  1.0000
  C   C237      1.0  0.47112  0.51463  0.47406  1.0000
  N   N19       1.0  0.01609  0.55943  0.40329  1.0000
  C   C238      1.0  0.29971  0.94471  0.51019  1.0000
  H   H246      1.0  0.50098  0.58866  0.52796  1.0000
  C   C239      1.0  0.50247  0.56921  0.60389  1.0000
  C   C240      1.0  0.02040  0.57563  0.46958  1.0000
  H   H247      1.0  0.50318  0.56809  0.46634  1.0000
  H   H248      1.0  0.37620  0.50295  0.32866  1.0000
  H   H249      1.0  0.49990  0.61311  0.59105  1.0000
  C   C241      1.0  0.00486  0.69333  0.55645  1.0000
  H   H250      1.0  0.49084  0.58145  0.34336  1.0000
  H   H251      1.0  0.47945  0.98570  0.56567  1.0000
  C   C242      1.0  0.30300  0.97076  0.49296  1.0000
  H   H252      1.0  0.31045  0.97101  0.47198  1.0000
  H   H253      1.0  0.25941  0.98379  0.65105  1.0000
  C   C243      1.0  0.28456  0.97002  0.54671  1.0000
  C   C244      1.0  0.01320  0.62592  0.57574  1.0000
  C   C245      1.0  0.01733  0.62737  0.54756  1.0000
  C   C246      1.0  0.50264  0.54457  0.47151  1.0000
  C   C247      1.0  0.50389  0.56755  0.53479  1.0000
  C   C248      1.0  0.00476  0.63626  0.33011  1.0000
  Fe  Fe44      1.0  0.39979  0.00087  0.61520  1.0000
  H   H254      1.0  0.04891  0.50671  0.40022  1.0000
  H   H255      1.0  0.05210  0.50514  0.52903  1.0000
  C   C249      1.0  0.28840  0.99585  0.52903  1.0000
  H   H256      1.0  0.15476  0.71782  0.65605  1.0000
  S   S88       1.0  0.08245  0.53751  0.96188  1.0000
  C   C250      1.0  0.26902  0.97865  0.71794  1.0000
  Fe  Fe45      1.0  0.06325  0.64874  0.68981  1.0000
  C   C251      1.0  0.48013  0.50879  0.80908  1.0000
  C   C252      1.0  0.04392  0.53765  0.67512  1.0000
  Fe  Fe46      1.0  0.09808  0.72946  0.69949  1.0000
  S   S89       1.0  0.04334  0.71862  0.71229  1.0000
  S   S90       1.0  0.17362  0.80849  0.69779  1.0000
  Fe  Fe47      1.0  0.03600  0.67303  0.73616  1.0000
  H   H257      1.0  0.38719  0.96407  0.93658  1.0000
  C   C253      1.0  0.10694  0.77805  0.69467  1.0000
  S   S91       1.0  0.08794  0.68179  0.72574  1.0000
  C   C254      1.0  0.25470  0.89003  0.66192  1.0000
  N   N20       1.0  0.27349  0.99332  0.69288  1.0000
  C   C255      1.0  0.34401  0.96146  0.95726  1.0000
  H   H258      1.0  0.02484  0.60488  0.96182  1.0000
  C   C256      1.0  0.20622  0.51684  0.95204  1.0000
  H   H259      1.0  0.24098  0.86606  0.70138  1.0000
  H   H260      1.0  0.03928  0.59507  0.74461  1.0000
  H   H261      1.0  0.46343  0.54576  0.81054  1.0000
  H   H262      1.0  0.27965  0.90977  0.66819  1.0000
  C   C257      1.0  0.20040  0.83869  0.67284  1.0000
  Fe  Fe48      1.0  0.02321  0.68341  0.67657  1.0000
  H   H263      1.0  0.06097  0.54227  0.89932  1.0000
  N   N21       1.0  0.13965  0.74975  0.67612  1.0000
  H   H264      1.0  0.06946  0.54145  0.67536  1.0000
  H   H265      1.0  0.14651  0.54096  0.94867  1.0000
  C   C258      1.0  0.13534  0.75473  0.72762  1.0000
  C   C259      1.0  0.03912  0.56593  0.67532  1.0000
  C   C260      1.0  0.02661  0.70842  0.84025  1.0000
  C   C261      1.0  0.11492  0.77216  0.72319  1.0000
  C   C262      1.0  0.16496  0.53525  0.95759  1.0000
  H   H266      1.0  0.22864  0.51207  0.98898  1.0000
  H   H267      1.0  0.47181  0.98527  0.84600  1.0000
  C   C263      1.0  0.14758  0.74337  0.70323  1.0000
  C   C264      1.0  0.02729  0.69693  0.81383  1.0000
  H   H268      1.0  0.34905  0.99225  0.75344  1.0000
  C   C265      1.0  0.04666  0.54296  0.96617  1.0000
  C   C266      1.0  0.05024  0.57534  0.96273  1.0000
  C   C267      1.0  0.01463  0.51547  0.97269  1.0000
  H   H269      1.0  0.17788  0.52165  0.91909  1.0000
  N   N22       1.0  0.00652  0.51419  0.90081  1.0000
  H   H270      1.0  0.07495  0.59684  0.95783  1.0000
  H   H271      1.0  0.14248  0.75169  0.74793  1.0000
  C   C268      1.0  0.49166  0.54463  0.74003  1.0000
  C   C269      1.0  0.11959  0.76620  0.67111  1.0000
  H   H272      1.0  0.24250  0.94661  0.67192  1.0000
  H   H273      1.0  0.04151  0.71498  0.79792  1.0000
  H   H274      1.0  0.16384  0.73245  0.70616  1.0000
  H   H275      1.0  0.05317  0.54879  0.74169  1.0000
  C   C270      1.0  0.02671  0.54233  0.74285  1.0000
  H   H276      1.0  0.34989  0.95425  0.97665  1.0000
  C   C271      1.0  0.36505  0.96718  0.93481  1.0000
  C   C272      1.0  0.02183  0.57999  0.96509  1.0000
  H   H277      1.0  0.04037  0.73542  0.84450  1.0000
  H   H278      1.0  0.48065  0.56108  0.74008  1.0000
  H   H279      1.0  0.09323  0.79159  0.69117  1.0000
  S   S92       1.0  0.07455  0.60732  0.67802  1.0000
  H   H280      1.0  0.10706  0.78157  0.74034  1.0000
  C   C273      1.0  0.31632  0.96673  0.95504  1.0000
  H   H281      1.0  0.02566  0.56769  0.89763  1.0000
  H   H282      1.0  0.28711  0.96872  0.66293  1.0000
  H   H283      1.0  0.29641  0.98156  0.87815  1.0000
  C   C274      1.0  0.18282  0.52469  0.94072  1.0000
  C   C275      1.0  0.35801  0.97810  0.91036  1.0000
  C   C276      1.0  0.48519  0.54195  0.81037  1.0000
  C   C277      1.0  0.26526  0.97213  0.66855  1.0000
  H   H284      1.0  0.25906  0.95143  0.71986  1.0000
  H   H285      1.0  0.37492  0.98319  0.89319  1.0000
  H   H286      1.0  0.21940  0.50755  0.93925  1.0000
  H   H287      1.0  0.04014  0.51159  0.87216  1.0000
  C   C278      1.0  0.23274  0.86508  0.68068  1.0000
  C   C279      1.0  0.03926  0.51683  0.89405  1.0000
  H   H288      1.0  0.30074  0.96380  0.97271  1.0000
  C   C280      1.0  0.00604  0.56072  0.67445  1.0000
  S   S93       1.0  0.01125  0.63759  0.70135  1.0000
  S   S94       1.0  0.00622  0.70125  0.89347  1.0000
  C   C281      1.0  0.00941  0.66211  0.80809  1.0000
  N   N23       1.0  0.33061  0.98295  0.90831  1.0000
  C   C282      1.0  0.31013  0.97784  0.93034  1.0000
  H   H289      1.0  0.43367  0.00105  0.68963  1.0000
  C   C283      1.0  0.00817  0.68527  0.86115  1.0000
  C   C284      1.0  0.01906  0.56864  0.74448  1.0000
  C   C285      1.0  0.47011  0.50938  0.73796  1.0000
  S   S95       1.0  0.07404  0.69255  0.66272  1.0000
  H   H290      1.0  0.28964  0.98358  0.92915  1.0000
  C   C286      1.0  0.21124  0.51922  0.98000  1.0000
  S   S96       1.0  0.00851  0.64606  0.77516  1.0000
  S   S97       1.0  0.00441  0.65544  0.96257  1.0000
  H   H291      1.0  0.33765  0.99224  0.86538  1.0000
  H   H292      1.0  0.27527  0.98714  0.76125  1.0000
  C   C287      1.0  0.32400  0.99548  0.88290  1.0000
  C   C288      1.0  0.01574  0.50442  0.67546  1.0000
  N   N24       1.0  0.17025  0.53783  0.98498  1.0000
  C   C289      1.0  0.27788  0.99859  0.74141  1.0000
  C   C290      1.0  0.97612  0.35807  0.05176  1.0000
  S   S98       1.0  0.93315  0.36635  0.22095  1.0000
  H   H293      1.0  0.58981  0.05532  0.07474  1.0000
  S   S99       1.0  0.68104  0.02653  0.17389  1.0000
  S   S100      1.0  0.93658  0.37073  0.15416  1.0000
  Fe  Fe49      1.0  0.95609  0.40737  0.18917  1.0000
  S   S101      1.0  0.94901  0.45311  0.19339  1.0000
  Fe  Fe50      1.0  0.91798  0.32944  0.18606  1.0000
  S   S102      1.0  0.86574  0.28153  0.19108  1.0000
  S   S103      1.0  0.96702  0.32814  0.18737  1.0000
  S   S104      1.0  0.68130  0.05750  0.29891  1.0000
  Fe  Fe51      1.0  0.63277  0.09212  0.13022  1.0000
  S   S105      1.0  0.62756  0.04141  0.12264  1.0000
  S   S106      1.0  0.58663  0.09476  0.14458  1.0000
  Fe  Fe52      1.0  0.70818  0.12935  0.11430  1.0000
  S   S107      1.0  0.70732  0.08001  0.10519  1.0000
  S   S108      1.0  0.75770  0.17909  0.10611  1.0000
  Fe  Fe53      1.0  0.65743  0.06411  0.08443  1.0000
  S   S109      1.0  0.63062  0.02721  0.04988  1.0000
  Fe  Fe54      1.0  0.67722  0.06200  0.14393  1.0000
  C   C291      1.0  0.00257  0.37846  0.03366  1.0000
  S   S110      1.0  0.65991  0.11442  0.09076  1.0000
  S   S111      1.0  0.68100  0.11192  0.15442  1.0000
  C   C292      1.0  0.80975  0.15432  0.19863  1.0000
  C   C293      1.0  0.98369  0.49399  0.18617  1.0000
  C   C294      1.0  0.54609  0.05754  0.14503  1.0000
  C   C295      1.0  0.54235  0.02496  0.14487  1.0000
  H   H294      1.0  0.82444  0.17641  0.10926  1.0000
  H   H295      1.0  0.98322  0.40613  0.27720  1.0000
  N   N25       1.0  0.59791  0.01952  0.21529  1.0000
  C   C296      1.0  0.68012  0.04811  0.26428  1.0000
  C   C297      1.0  0.99866  0.40420  0.29299  1.0000
  H   H296      1.0  0.74323  0.08983  0.16558  1.0000
  C   C298      1.0  0.68025  0.03510  0.20856  1.0000
  C   C299      1.0  0.68911  0.06774  0.21744  1.0000
  C   C300      1.0  0.68958  0.07434  0.24526  1.0000
  H   H297      1.0  0.69644  0.08814  0.20302  1.0000
  H   H298      1.0  0.69710  0.09981  0.25210  1.0000
  C   C301      1.0  0.64253  0.03273  0.01523  1.0000
  H   H299      1.0  0.85387  0.19475  0.17909  1.0000
  H   H300      1.0  0.68508  0.08351  0.01915  1.0000
  C   C302      1.0  0.77848  0.12471  0.19490  1.0000
  C   C303      1.0  0.83536  0.25469  0.16692  1.0000
  C   C304      1.0  0.80433  0.22737  0.17623  1.0000
  C   C305      1.0  0.77983  0.20448  0.15791  1.0000
  C   C306      1.0  0.78602  0.20893  0.13000  1.0000
  C   C307      1.0  0.81656  0.23698  0.12067  1.0000
  C   C308      1.0  0.84124  0.25967  0.13901  1.0000
  H   H301      1.0  0.79945  0.22348  0.19781  1.0000
  H   H302      1.0  0.75642  0.18311  0.16538  1.0000
  H   H303      1.0  0.82152  0.24065  0.09909  1.0000
  H   H304      1.0  0.86497  0.28063  0.13157  1.0000
  H   H305      1.0  0.60076  0.03198  0.28313  1.0000
  H   H306      1.0  0.81842  0.16401  0.21890  1.0000
  H   H307      1.0  0.96162  0.34402  0.09367  1.0000
  H   H308      1.0  0.95147  0.33953  0.04393  1.0000
  H   H309      1.0  0.85780  0.20475  0.13124  1.0000
  C   C309      1.0  0.60362  0.05059  0.20650  1.0000
  C   C310      1.0  0.54581  0.00535  0.07137  1.0000
  C   C311      1.0  0.84021  0.17737  0.12687  1.0000
  C   C312      1.0  0.60874  0.07599  0.22510  1.0000
  H   H310      1.0  0.61362  0.10067  0.21792  1.0000
  C   C313      1.0  0.78794  0.13085  0.14654  1.0000
  C   C314      1.0  0.98176  0.36068  0.07992  1.0000
  H   H311      1.0  0.51947  0.08580  0.14587  1.0000
  Fe  Fe55      1.0  0.98672  0.37202  0.15794  1.0000
  C   C315      1.0  0.67100  0.00887  0.22759  1.0000
  C   C316      1.0  0.60769  0.06930  0.25284  1.0000
  H   H312      1.0  0.85533  0.16517  0.12114  1.0000
  H   H313      1.0  0.77906  0.12171  0.12620  1.0000
  H   H314      1.0  0.56442  0.02194  0.14499  1.0000
  H   H315      1.0  0.76278  0.11094  0.21226  1.0000
  C   C317      1.0  0.62336  0.00609  0.99706  1.0000
  H   H316      1.0  0.55567  0.08395  0.08099  1.0000
  H   H317      1.0  0.61212  0.08885  0.26756  1.0000
  C   C318      1.0  0.54303  0.05665  0.07775  1.0000
  C   C319      1.0  0.67013  0.06283  0.00538  1.0000
  C   C320      1.0  0.51687  0.06073  0.14552  1.0000
  C   C321      1.0  0.67042  0.01523  0.25542  1.0000
  C   C322      1.0  0.59611  0.01251  0.24245  1.0000
  H   H318      1.0  0.99229  0.46265  0.24247  1.0000
  N   N26       1.0  0.81858  0.15983  0.15037  1.0000
  Fe  Fe56      1.0  0.98328  0.36786  0.22015  1.0000
  C   C323      1.0  0.60117  0.03732  0.26161  1.0000
  C   C324      1.0  0.76747  0.11286  0.16871  1.0000
  H   H319      1.0  0.60453  0.05603  0.18498  1.0000
  C   C325      1.0  0.82974  0.17153  0.17601  1.0000
  N   N27       1.0  0.85079  0.35568  0.15665  1.0000
  C   C326      1.0  0.86945  0.38377  0.17243  1.0000
  C   C327      1.0  0.82705  0.32560  0.16819  1.0000
  C   C328      1.0  0.86563  0.38172  0.20064  1.0000
  C   C329      1.0  0.82260  0.32266  0.19634  1.0000
  C   C330      1.0  0.84234  0.35082  0.21265  1.0000
  C   C331      1.0  0.85543  0.35783  0.12714  1.0000
  H   H320      1.0  0.88806  0.40781  0.16335  1.0000
  H   H321      1.0  0.81215  0.30333  0.15572  1.0000
  H   H322      1.0  0.88130  0.40379  0.21310  1.0000
  H   H323      1.0  0.80502  0.29825  0.20545  1.0000
  H   H324      1.0  0.83997  0.34857  0.23455  1.0000
  H   H325      1.0  0.88045  0.37987  0.12113  1.0000
  H   H326      1.0  0.85496  0.33459  0.11928  1.0000
  H   H327      1.0  0.83484  0.36049  0.11736  1.0000
  C   C332      1.0  0.56223  0.04057  0.07459  1.0000
  C   C333      1.0  0.00171  0.41989  0.31830  1.0000
  C   C334      1.0  0.50745  0.03716  0.07742  1.0000
  S   S112      1.0  0.99644  0.37052  0.99852  1.0000
  S   S113      1.0  0.51175  0.47587  0.29895  1.0000
  C   C335      1.0  0.54583  0.04747  0.32390  1.0000
  H   H328      1.0  0.53180  0.48148  0.23560  1.0000
  H   H329      1.0  0.57068  0.04995  0.32223  1.0000
  H   H330      1.0  0.56504  0.10158  0.32103  1.0000
  C   C336      1.0  0.54254  0.07672  0.32297  1.0000
  H   H331      1.0  0.50815  0.21547  0.28986  1.0000
  H   H332      1.0  0.50814  0.48485  0.99814  1.0000
  C   C337      1.0  0.50953  0.30777  0.31334  1.0000
  H   H333      1.0  0.98862  0.43401  0.32180  1.0000
  H   H334      1.0  0.60779  0.00448  0.17694  1.0000
  C   C338      1.0  0.50529  0.27523  0.31695  1.0000
  C   C339      1.0  0.52695  0.50157  0.22914  1.0000
  S   S114      1.0  0.50725  0.11130  0.32566  1.0000
  C   C340      1.0  0.51040  0.07398  0.32509  1.0000
  S   S115      1.0  0.61401  0.03304  0.35056  1.0000
  H   H335      1.0  0.98746  0.46357  0.40086  1.0000
  H   H336      1.0  0.60247  0.03522  0.54756  1.0000
  S   S116      1.0  0.63078  0.04307  0.42355  1.0000
  C   C341      1.0  0.64023  0.00741  0.46516  1.0000
  C   C342      1.0  0.63842  0.03613  0.45742  1.0000
  C   C343      1.0  0.64306  0.06050  0.47710  1.0000
  C   C344      1.0  0.64953  0.05628  0.50429  1.0000
  C   C345      1.0  0.56089  0.04504  0.54979  1.0000
  H   H337      1.0  0.64179  0.08284  0.47122  1.0000
  C   C346      1.0  0.51269  0.02134  0.62728  1.0000
  H   H338      1.0  0.58444  0.12049  0.38893  1.0000
  C   C347      1.0  0.57274  0.06842  0.39295  1.0000
  H   H339      1.0  0.59918  0.07461  0.39262  1.0000
  H   H340      1.0  0.93156  0.40433  0.54366  1.0000
  Fe  Fe57      1.0  0.98184  0.37338  0.65484  1.0000
  H   H341      1.0  0.74215  0.14643  0.49237  1.0000
  C   C348      1.0  0.95995  0.42201  0.58081  1.0000
  Fe  Fe58      1.0  0.63719  0.09637  0.60939  1.0000
  S   S117      1.0  0.62257  0.04161  0.60861  1.0000
  S   S118      1.0  0.59599  0.11021  0.60459  1.0000
  Fe  Fe59      1.0  0.71278  0.11991  0.61460  1.0000
  S   S119      1.0  0.70281  0.06581  0.61454  1.0000
  S   S120      1.0  0.76832  0.16199  0.61058  1.0000
  Fe  Fe60      1.0  0.66657  0.05710  0.58049  1.0000
  C   C349      1.0  0.57535  0.02409  0.55091  1.0000
  Fe  Fe61      1.0  0.65947  0.05496  0.64276  1.0000
  S   S121      1.0  0.67901  0.11145  0.57842  1.0000
  Fe  Fe62      1.0  0.62249  0.00888  0.38711  1.0000
  H   H342      1.0  0.51459  0.04701  0.55391  1.0000
  H   H343      1.0  0.72504  0.04548  0.50510  1.0000
  C   C350      1.0  0.55378  0.07835  0.61187  1.0000
  C   C351      1.0  0.54656  0.04757  0.62406  1.0000
  C   C352      1.0  0.74616  0.08000  0.53873  1.0000
  C   C353      1.0  0.98209  0.36081  0.57739  1.0000
  H   H344      1.0  0.56702  0.04385  0.63094  1.0000
  C   C354      1.0  0.65130  0.02753  0.51203  1.0000
  S   S122      1.0  0.67169  0.10950  0.64552  1.0000
  H   H345      1.0  0.65354  0.07548  0.51913  1.0000
  C   C355      1.0  0.75702  0.11300  0.54796  1.0000
  H   H346      1.0  0.57673  0.07216  0.54601  1.0000
  C   C356      1.0  0.79224  0.19783  0.63173  1.0000
  C   C357      1.0  0.82643  0.22081  0.62496  1.0000
  H   H347      1.0  0.74582  0.06097  0.55230  1.0000
  C   C358      1.0  0.99210  0.44196  0.59214  1.0000
  H   H348      1.0  0.83753  0.21629  0.60711  1.0000
  C   C359      1.0  0.84644  0.24968  0.64108  1.0000
  C   C360      1.0  0.76698  0.17087  0.54163  1.0000
  H   H349      1.0  0.96053  0.34696  0.59083  1.0000
  H   H350      1.0  0.95237  0.34260  0.54082  1.0000
  C   C361      1.0  0.97756  0.35835  0.54910  1.0000
  C   C362      1.0  0.51694  0.01525  0.32684  1.0000
  C   C363      1.0  0.73315  0.09539  0.49542  1.0000
  H   H351      1.0  0.53219  0.10704  0.59468  1.0000
  H   H352      1.0  0.72284  0.08836  0.47509  1.0000
  H   H353      1.0  0.79035  0.18026  0.55413  1.0000
  C   C364      1.0  0.54683  0.03458  0.39507  1.0000
  N   N28       1.0  0.75621  0.13669  0.53123  1.0000
  H   H354      1.0  0.95974  0.49201  0.47238  1.0000
  H   H355      1.0  0.77285  0.18961  0.52505  1.0000
  N   N29       1.0  0.50497  0.05236  0.39349  1.0000
  C   C365      1.0  0.74393  0.12810  0.50539  1.0000
  C   C366      1.0  0.95632  0.42034  0.55268  1.0000
  H   H356      1.0  0.93798  0.40742  0.59381  1.0000
  C   C367      1.0  0.73446  0.07131  0.51222  1.0000
  H   H357      1.0  0.74664  0.17020  0.55474  1.0000
  H   H358      1.0  0.51155  0.26858  0.33639  1.0000
  S   S123      1.0  0.93342  0.37469  0.64839  1.0000
  H   H359      1.0  0.76575  0.11942  0.56870  1.0000
  C   C368      1.0  0.52679  0.08326  0.60410  1.0000
  S   S124      1.0  0.66031  0.02156  0.54578  1.0000
  C   C369      1.0  0.64664  0.00316  0.49239  1.0000
  C   C370      1.0  0.56448  0.09416  0.39101  1.0000
  H   H360      1.0  0.51486  0.49220  0.55880  1.0000
  C   C371      1.0  0.98503  0.43880  0.53621  1.0000
  H   H361      1.0  0.87265  0.26715  0.63560  1.0000
  C   C372      1.0  0.51286  0.02695  0.39535  1.0000
  Fe  Fe63      1.0  0.64506  0.01602  0.32719  1.0000
  H   H362      1.0  0.99531  0.44275  0.61400  1.0000
  H   H363      1.0  0.55312  0.01441  0.39620  1.0000
  C   C373      1.0  0.52606  0.03097  0.55447  1.0000
  C   C374      1.0  0.77825  0.20394  0.65490  1.0000
  S   S125      1.0  0.99906  0.37228  0.49618  1.0000
  H   H364      1.0  0.98208  0.43688  0.51434  1.0000
  H   H365      1.0  0.51902  0.32607  0.32976  1.0000
  C   C375      1.0  0.97130  0.50097  0.40268  1.0000
  H   H366      1.0  0.52401  0.10578  0.38957  1.0000
  C   C376      1.0  0.53025  0.08565  0.39144  1.0000
  H   H367      1.0  0.94438  0.48227  0.40338  1.0000
  C   C377      1.0  0.99544  0.49048  0.40144  1.0000
  Fe  Fe64      1.0  0.97513  0.37092  0.71687  1.0000
  S   S126      1.0  0.92660  0.37254  0.71512  1.0000
  H   H368      1.0  0.63979  0.07024  0.80417  1.0000
  C   C378      1.0  0.88987  0.24850  0.71763  1.0000
  Fe  Fe65      1.0  0.95244  0.41216  0.68265  1.0000
  H   H369      1.0  0.75202  0.18652  0.66037  1.0000
  Fe  Fe66      1.0  0.91136  0.33447  0.68108  1.0000
  S   S127      1.0  0.85645  0.29134  0.68561  1.0000
  S   S128      1.0  0.95860  0.33013  0.68499  1.0000
  H   H370      1.0  0.55175  0.11689  0.91195  1.0000
  C   C379      1.0  0.57694  0.02257  0.75947  1.0000
  N   N30       1.0  0.59229  0.03964  0.73603  1.0000
  C   C380      1.0  0.55094  0.01940  0.91550  1.0000
  C   C381      1.0  0.91871  0.30908  0.77601  1.0000
  S   S129      1.0  0.68893  0.03251  0.79572  1.0000
  H   H371      1.0  0.96160  0.49857  0.98000  1.0000
  C   C382      1.0  0.67436  0.02697  0.76209  1.0000
  C   C383      1.0  0.65943  0.03940  0.95944  1.0000
  C   C384      1.0  0.60353  0.06782  0.93012  1.0000
  S   S130      1.0  0.67050  0.04526  0.92459  1.0000
  C   C385      1.0  0.68312  0.04713  0.71526  1.0000
  C   C386      1.0  0.69466  0.05062  0.74214  1.0000
  H   H372      1.0  0.69861  0.06573  0.70004  1.0000
  H   H373      1.0  0.71915  0.07196  0.74756  1.0000
  H   H374      1.0  0.91776  0.22792  0.69740  1.0000
  C   C387      1.0  0.62417  0.06771  0.73665  1.0000
  S   S131      1.0  0.00218  0.41363  0.68711  1.0000
  C   C388      1.0  0.94563  0.28138  0.75150  1.0000
  H   H375      1.0  0.86811  0.23635  0.70418  1.0000
  S   S132      1.0  0.63013  0.02965  0.85482  1.0000
  C   C389      1.0  0.54998  0.07524  0.85509  1.0000
  C   C390      1.0  0.55466  0.04700  0.85182  1.0000
  H   H376      1.0  0.86927  0.27439  0.74045  1.0000
  H   H377      1.0  0.96788  0.29465  0.76430  1.0000
  H   H378      1.0  0.57189  0.10033  0.85777  1.0000
  H   H379      1.0  0.63687  0.08065  0.71801  1.0000
  H   H380      1.0  0.69991  0.08948  0.97010  1.0000
  C   C391      1.0  0.91776  0.24384  0.71382  1.0000
  N   N31       1.0  0.55367  0.07292  0.92410  1.0000
  C   C392      1.0  0.53541  0.03943  0.91661  1.0000
  C   C393      1.0  0.63178  0.00933  0.96929  1.0000
  C   C394      1.0  0.51717  0.07115  0.85534  1.0000
  C   C395      1.0  0.94590  0.26040  0.73081  1.0000
  H   H381      1.0  0.78717  0.23732  0.68888  1.0000
  C   C396      1.0  0.53747  0.09398  0.92503  1.0000
  Fe  Fe67      1.0  0.65122  0.00366  0.82920  1.0000
  C   C397      1.0  0.51914  0.50201  0.74084  1.0000
  C   C398      1.0  0.67848  0.06613  0.97758  1.0000
  H   H382      1.0  0.96809  0.25761  0.72771  1.0000
  H   H383      1.0  0.58001  0.05054  0.85207  1.0000
  H   H384      1.0  0.54943  0.02549  0.71069  1.0000
  H   H385      1.0  0.53681  0.10210  0.94614  1.0000
  C   C399      1.0  0.96783  0.50105  0.74297  1.0000
  C   C400      1.0  0.64153  0.07931  0.76120  1.0000
  S   S133      1.0  0.00098  0.36577  0.75461  1.0000
  H   H386      1.0  0.97826  0.43215  0.82245  1.0000
  N   N32       1.0  0.91814  0.28584  0.75508  1.0000
  C   C401      1.0  0.52649  0.01437  0.84879  1.0000
  C   C402      1.0  0.59355  0.03351  0.78438  1.0000
  H   H387      1.0  0.66725  0.10083  0.76154  1.0000
  H   H388      1.0  0.52997  0.48541  0.74199  1.0000
  S   S134      1.0  0.94672  0.45879  0.68089  1.0000
  C   C403      1.0  0.89062  0.26999  0.73830  1.0000
  C   C404      1.0  0.57460  0.02695  0.71015  1.0000
  H   H389      1.0  0.93830  0.31427  0.79167  1.0000
  H   H390      1.0  0.58144  0.01963  0.80287  1.0000
  H   H391      1.0  0.92500  0.33381  0.76658  1.0000
  C   C405      1.0  0.65158  0.01946  0.70820  1.0000
  H   H392      1.0  0.89365  0.29821  0.78642  1.0000
  H   H393      1.0  0.51096  0.08025  0.91722  1.0000
  H   H394      1.0  0.60178  0.11371  0.93675  1.0000
  C   C406      1.0  0.58727  0.08716  0.93088  1.0000
  H   H395      1.0  0.59764  0.01869  0.92139  1.0000
  C   C407      1.0  0.94728  0.47981  0.91236  1.0000
  C   C408      1.0  0.98821  0.40370  0.79224  1.0000
  C   C409      1.0  0.58518  0.03378  0.92233  1.0000
  H   H396      1.0  0.94759  0.47470  0.74177  1.0000
  H   H397      1.0  0.98980  0.45925  0.72988  1.0000
  S   S135      1.0  0.51241  0.10693  0.86168  1.0000
  H   H398      1.0  0.92560  0.45505  0.91706  1.0000
  C   C410      1.0  0.62612  0.06200  0.78516  1.0000
  C   C411      1.0  0.83238  0.25586  0.66417  1.0000
  H   H399      1.0  0.63027  0.07913  0.93533  1.0000
  C   C412      1.0  0.79827  0.23279  0.67103  1.0000
  C   C413      1.0  0.98267  0.49941  0.67624  1.0000
  Fe  Fe68      1.0  0.64261  0.00750  0.89077  1.0000
  H   H400      1.0  0.50901  0.02826  0.91059  1.0000
  H   H401      1.0  0.98083  0.46009  0.90468  1.0000
  H   H402      1.0  0.97333  0.40700  0.77670  1.0000
  C   C414      1.0  0.99101  0.41787  0.81819  1.0000
  S   S136      1.0  0.63507  0.01462  0.67530  1.0000
  H   H403      1.0  0.58941  0.04356  0.69281  1.0000
  C   C415      1.0  0.97871  0.48288  0.90563  1.0000
  C   C416      1.0  0.50973  0.99592  0.14483  1.0000
  Fe  Fe69      1.0  0.62038  0.74890  0.28220  1.0000
  S   S137      1.0  0.67086  0.75107  0.28224  1.0000
  S   S138      1.0  0.62315  0.79964  0.27360  1.0000
  Fe  Fe70      1.0  0.58286  0.67110  0.28576  1.0000
  S   S139      1.0  0.63079  0.66812  0.28607  1.0000
  C   C417      1.0  0.57232  0.59692  0.22790  1.0000
  Fe  Fe71      1.0  0.64891  0.71180  0.31525  1.0000
  Fe  Fe72      1.0  0.64802  0.70745  0.25304  1.0000
  S   S140      1.0  0.68002  0.70933  0.21694  1.0000
  C   C418      1.0  0.54809  0.56504  0.07633  1.0000
  S   S141      1.0  0.59888  0.70765  0.25052  1.0000
  H   H404      1.0  0.57659  0.54183  0.24025  1.0000
  Fe  Fe73      1.0  0.64602  0.64374  0.06430  1.0000
  S   S142      1.0  0.64972  0.59695  0.05580  1.0000
  S   S143      1.0  0.61823  0.64746  0.10164  1.0000
  Fe  Fe74      1.0  0.69712  0.63177  0.03152  1.0000
  S   S144      1.0  0.74807  0.63377  0.03805  1.0000
  Fe  Fe75      1.0  0.62090  0.59260  0.01758  1.0000
  H   H405      1.0  0.67640  0.80065  0.23757  1.0000
  S   S145      1.0  0.69504  0.67918  0.04260  1.0000
  S   S146      1.0  0.61501  0.63740  0.02719  1.0000
  C   C419      1.0  0.98130  0.52257  0.19348  1.0000
  H   H406      1.0  0.62353  0.78179  0.21718  1.0000
  H   H407      1.0  0.63033  0.86609  0.26921  1.0000
  H   H408      1.0  0.65907  0.74019  0.13784  1.0000
  H   H409      1.0  0.56478  0.97890  0.18973  1.0000
  S   S147      1.0  0.60017  0.96610  0.31483  1.0000
  H   H410      1.0  0.56135  0.61367  0.23189  1.0000
  C   C420      1.0  0.83502  0.64021  0.00763  1.0000
  S   S148      1.0  0.00260  0.69583  0.15231  1.0000
  C   C421      1.0  0.98158  0.69053  0.07203  1.0000
  H   H411      1.0  0.58911  0.60029  0.24541  1.0000
  C   C422      1.0  0.55299  0.57886  0.29886  1.0000
  H   H412      1.0  0.00314  0.56710  0.27012  1.0000
  H   H413      1.0  0.96072  0.61623  0.07769  1.0000
  H   H414      1.0  0.70847  0.82212  0.21183  1.0000
  C   C423      1.0  0.66213  0.68956  0.18569  1.0000
  C   C424      1.0  0.62712  0.67397  0.18102  1.0000
  C   C425      1.0  0.61406  0.66070  0.15523  1.0000
  C   C426      1.0  0.63582  0.66278  0.13399  1.0000
  C   C427      1.0  0.67076  0.67796  0.13878  1.0000
  C   C428      1.0  0.68383  0.69137  0.16454  1.0000
  H   H415      1.0  0.61027  0.67286  0.19706  1.0000
  H   H416      1.0  0.58702  0.64915  0.15161  1.0000
  H   H417      1.0  0.68774  0.67970  0.12258  1.0000
  H   H418      1.0  0.71097  0.70342  0.16802  1.0000
  C   C429      1.0  0.61557  0.82456  0.29737  1.0000
  H   H419      1.0  0.62373  0.90378  0.30232  1.0000
  H   H420      1.0  0.69666  0.83747  0.31999  1.0000
  C   C430      1.0  0.62188  0.85711  0.28965  1.0000
  S   S149      1.0  0.59962  0.71239  0.31743  1.0000
  C   C431      1.0  0.61799  0.87849  0.30834  1.0000
  H   H421      1.0  0.59152  0.98788  0.24951  1.0000
  C   C432      1.0  0.52886  0.56674  0.00991  1.0000
  H   H422      1.0  0.95831  0.51925  0.20306  1.0000
  C   C433      1.0  0.52697  0.58330  0.28796  1.0000
  C   C434      1.0  0.80977  0.63922  0.02510  1.0000
  C   C435      1.0  0.63153  0.77288  0.19973  1.0000
  C   C436      1.0  0.77869  0.63437  0.01493  1.0000
  H   H423      1.0  0.81434  0.64211  0.04671  1.0000
  C   C437      1.0  0.99519  0.60651  0.03828  1.0000
  C   C438      1.0  0.51022  0.98661  0.07130  1.0000
  H   H424      1.0  0.96122  0.68902  0.05962  1.0000
  H   H425      1.0  0.95551  0.68618  0.10984  1.0000
  H   H426      1.0  0.76708  0.72202  0.01106  1.0000
  C   C439      1.0  0.52683  0.52995  0.07292  1.0000
  H   H427      1.0  0.59977  0.97508  0.20364  1.0000
  C   C440      1.0  0.59206  0.99310  0.19546  1.0000
  C   C441      1.0  0.53356  0.53896  0.00508  1.0000
  H   H428      1.0  0.97011  0.61710  0.12724  1.0000
  H   H429      1.0  0.59984  0.72952  0.14086  1.0000
  N   N33       1.0  0.66402  0.77830  0.19798  1.0000
  S   S150      1.0  0.53093  0.62375  0.28404  1.0000
  C   C442      1.0  0.97849  0.68917  0.10047  1.0000
  H   H430      1.0  0.56832  0.54255  0.31070  1.0000
  C   C443      1.0  0.55209  0.53578  0.23192  1.0000
  H   H431      1.0  0.69956  0.77073  0.17487  1.0000
  Fe  Fe76      1.0  0.66390  0.66760  0.00462  1.0000
  H   H432      1.0  0.74395  0.67909  0.99857  1.0000
  N   N34       1.0  0.00050  0.60590  0.06756  1.0000
  C   C444      1.0  0.67406  0.76718  0.17591  1.0000
  C   C445      1.0  0.60794  0.75529  0.17925  1.0000
  C   C446      1.0  0.65125  0.74982  0.15494  1.0000
  H   H433      1.0  0.58810  0.60565  0.20915  1.0000
  C   C447      1.0  0.61792  0.74365  0.15675  1.0000
  H   H434      1.0  0.57647  0.60072  0.30536  1.0000
  H   H435      1.0  0.58207  0.75057  0.18097  1.0000
  H   H436      1.0  0.70112  0.78212  0.22605  1.0000
  H   H437      1.0  0.96758  0.59251  0.03339  1.0000
  H   H438      1.0  0.66432  0.98359  0.22081  1.0000
  C   C448      1.0  0.68871  0.79678  0.21941  1.0000
  C   C449      1.0  0.54827  0.54585  0.30197  1.0000
  H   H439      1.0  0.98511  0.50567  0.26604  1.0000
  H   H440      1.0  0.57558  0.57630  0.07554  1.0000
  H   H441      1.0  0.54999  0.61302  0.08219  1.0000
  C   C450      1.0  0.53371  0.58569  0.08013  1.0000
  H   H442      1.0  0.85869  0.64384  0.01585  1.0000
  H   H443      1.0  0.53830  0.51425  0.06924  1.0000
  C   C451      1.0  0.50483  0.50650  0.00214  1.0000
  C   C452      1.0  0.98048  0.61154  0.08524  1.0000
  H   H444      1.0  0.56070  0.99274  0.06891  1.0000
  N   N35       1.0  0.54550  0.56121  0.22514  1.0000
  C   C453      1.0  0.51759  0.51718  0.29418  1.0000
  H   H445      1.0  0.50712  0.97085  0.14468  1.0000
  C   C454      1.0  0.51442  0.55349  0.21490  1.0000
  C   C455      1.0  0.60443  0.81319  0.32381  1.0000
  S   S151      1.0  0.57473  0.54362  0.00353  1.0000
  S   S152      1.0  0.93320  0.62558  0.99907  1.0000
  C   C456      1.0  0.98562  0.61203  0.11326  1.0000
  H   H446      1.0  0.50915  0.57364  0.20963  1.0000
  H   H447      1.0  0.60206  0.98266  0.00455  1.0000
  H   H448      1.0  0.55037  0.59190  0.01182  1.0000
  H   H449      1.0  0.78972  0.70279  0.99661  1.0000
  H   H450      1.0  0.66339  0.99495  0.27004  1.0000
  C   C457      1.0  0.76626  0.70468  0.99479  1.0000
  H   H451      1.0  0.68351  0.88468  0.32298  1.0000
  Fe  Fe77      1.0  0.98175  0.67525  0.99303  1.0000
  Fe  Fe78      1.0  0.95176  0.59965  0.46274  1.0000
  S   S153      1.0  0.95060  0.54936  0.46608  1.0000
  Fe  Fe79      1.0  0.90596  0.63161  0.46441  1.0000
  S   S154      1.0  0.95095  0.68438  0.45954  1.0000
  S   S155      1.0  0.85015  0.61748  0.46106  1.0000
  Fe  Fe80      1.0  0.96964  0.66185  0.42760  1.0000
  H   H452      1.0  0.93874  0.65206  0.60075  1.0000
  C   C458      1.0  0.53149  0.51484  0.48353  1.0000
  S   S156      1.0  0.92319  0.61013  0.43052  1.0000
  S   S157      1.0  0.93057  0.61634  0.49692  1.0000
  H   H453      1.0  0.83139  0.62616  0.40136  1.0000
  Fe  Fe81      1.0  0.61044  0.94653  0.35371  1.0000
  H   H454      1.0  0.59203  0.82561  0.36293  1.0000
  H   H455      1.0  0.51797  0.54733  0.35566  1.0000
  S   S158      1.0  0.57586  0.95839  0.37907  1.0000
  S   S159      1.0  0.68393  0.71955  0.35034  1.0000
  S   S160      1.0  0.66087  0.61425  0.50433  1.0000
  S   S161      1.0  0.62476  0.66696  0.46831  1.0000
  C   C459      1.0  0.66693  0.70316  0.38269  1.0000
  C   C460      1.0  0.63225  0.68950  0.38823  1.0000
  C   C461      1.0  0.61972  0.67837  0.41459  1.0000
  C   C462      1.0  0.64162  0.68030  0.43544  1.0000
  C   C463      1.0  0.67620  0.69343  0.42981  1.0000
  C   C464      1.0  0.68884  0.70508  0.40352  1.0000
  H   H456      1.0  0.61518  0.68793  0.37233  1.0000
  H   H457      1.0  0.59296  0.66832  0.41888  1.0000
  H   H458      1.0  0.69327  0.69511  0.44578  1.0000
  H   H459      1.0  0.71571  0.71569  0.39933  1.0000
  C   C465      1.0  0.72997  0.69992  0.65582  1.0000
  H   H460      1.0  0.59916  0.78810  0.32997  1.0000
  C   C466      1.0  0.56513  0.57599  0.47379  1.0000
  C   C467      1.0  0.73927  0.71810  0.63138  1.0000
  C   C468      1.0  0.98212  0.53576  0.40340  1.0000
  H   H461      1.0  0.64134  0.80023  0.40976  1.0000
  H   H462      1.0  0.88248  0.72739  0.45008  1.0000
  C   C469      1.0  0.82565  0.62881  0.48237  1.0000
  C   C470      1.0  0.77125  0.62652  0.49145  1.0000
  C   C471      1.0  0.79175  0.61816  0.47523  1.0000
  H   H463      1.0  0.74516  0.61791  0.48580  1.0000
  H   H464      1.0  0.78112  0.60306  0.45717  1.0000
  H   H465      1.0  0.73844  0.74158  0.62996  1.0000
  S   S162      1.0  0.99953  0.64967  0.45726  1.0000
  Fe  Fe82      1.0  0.65386  0.65999  0.50255  1.0000
  Fe  Fe83      1.0  0.66683  0.67345  0.56438  1.0000
  S   S163      1.0  0.67316  0.62799  0.56991  1.0000
  S   S164      1.0  0.66714  0.70700  0.59861  1.0000
  Fe  Fe84      1.0  0.70537  0.64640  0.53184  1.0000
  S   S165      1.0  0.75964  0.65612  0.53680  1.0000
  Fe  Fe85      1.0  0.62838  0.60121  0.54189  1.0000
  S   S166      1.0  0.58183  0.54939  0.54925  1.0000
  S   S167      1.0  0.70040  0.69342  0.52740  1.0000
  S   S168      1.0  0.62034  0.64571  0.53931  1.0000
  C   C472      1.0  0.54084  0.54468  0.54588  1.0000
  H   H466      1.0  0.94170  0.76095  0.43201  1.0000
  H   H467      1.0  0.58519  0.97111  0.53813  1.0000
  H   H468      1.0  0.64813  0.98090  0.49819  1.0000
  C   C473      1.0  0.53651  0.57164  0.53718  1.0000
  C   C474      1.0  0.56574  0.65992  0.58714  1.0000
  H   H469      1.0  0.55803  0.59552  0.53163  1.0000
  N   N36       1.0  0.55576  0.99017  0.55674  1.0000
  H   H470      1.0  0.65970  0.73865  0.64655  1.0000
  C   C475      1.0  0.65616  0.69201  0.63234  1.0000
  C   C476      1.0  0.65015  0.65972  0.63993  1.0000
  C   C477      1.0  0.00155  0.67887  0.35800  1.0000
  H   H471      1.0  0.65171  0.64312  0.62499  1.0000
  C   C478      1.0  0.83901  0.64826  0.50581  1.0000
  C   C479      1.0  0.81845  0.65645  0.52211  1.0000
  C   C480      1.0  0.78445  0.64556  0.51510  1.0000
  H   H472      1.0  0.86502  0.65666  0.51157  1.0000
  H   H473      1.0  0.82893  0.67117  0.54037  1.0000
  C   C481      1.0  0.97150  0.67245  0.56568  1.0000
  C   C482      1.0  0.96468  0.66772  0.59369  1.0000
  H   H474      1.0  0.95092  0.66047  0.55128  1.0000
  S   S169      1.0  0.51981  0.97793  0.32924  1.0000
  H   H475      1.0  0.67491  0.89645  0.35528  1.0000
  H   H476      1.0  0.51315  0.52940  0.61472  1.0000
  H   H477      1.0  0.59978  0.62782  0.59940  1.0000
  C   C483      1.0  0.60761  0.86743  0.33497  1.0000
  S   S170      1.0  0.60695  0.89487  0.36034  1.0000
  C   C484      1.0  0.52385  0.55624  0.61001  1.0000
  H   H478      1.0  0.68215  0.78067  0.33771  1.0000
  H   H479      1.0  0.65714  0.85740  0.39181  1.0000
  C   C485      1.0  0.51672  0.60352  0.59662  1.0000
  H   H480      1.0  0.55312  0.94170  0.56116  1.0000
  H   H481      1.0  0.58364  0.57694  0.48899  1.0000
  C   C486      1.0  0.66082  0.78672  0.37489  1.0000
  N   N37       1.0  0.74796  0.70584  0.60925  1.0000
  C   C487      1.0  0.73855  0.65670  0.63483  1.0000
  C   C488      1.0  0.74811  0.67576  0.61080  1.0000
  C   C489      1.0  0.68896  0.88527  0.34499  1.0000
  H   H482      1.0  0.94093  0.55943  0.53104  1.0000
  H   H483      1.0  0.56264  0.59889  0.47744  1.0000
  C   C490      1.0  0.75808  0.72580  0.58410  1.0000
  C   C491      1.0  0.60037  0.83450  0.34244  1.0000
  H   H484      1.0  0.75523  0.66608  0.59333  1.0000
  H   H485      1.0  0.56668  0.66146  0.56464  1.0000
  N   N38       1.0  0.98371  0.60132  0.58752  1.0000
  S   S171      1.0  0.98185  0.67622  0.64752  1.0000
  H   H486      1.0  0.78361  0.74865  0.58646  1.0000
  H   H487      1.0  0.75920  0.71081  0.56667  1.0000
  H   H488      1.0  0.73930  0.73388  0.57888  1.0000
  H   H489      1.0  0.97366  0.57532  0.62528  1.0000
  C   C492      1.0  0.92426  0.73605  0.42378  1.0000
  S   S172      1.0  0.99078  0.69227  0.38848  1.0000
  N   N39       1.0  0.67821  0.85089  0.35504  1.0000
  C   C493      1.0  0.85793  0.63676  0.39376  1.0000
  N   N40       1.0  0.53227  0.54444  0.47652  1.0000
  Fe  Fe86      1.0  0.57000  0.98225  0.34105  1.0000
  C   C494      1.0  0.68494  0.82964  0.33986  1.0000
  N   N41       1.0  0.55131  0.62437  0.59577  1.0000
  C   C495      1.0  0.67649  0.79737  0.34961  1.0000
  C   C496      1.0  0.99124  0.60324  0.53147  1.0000
  C   C497      1.0  0.99121  0.68312  0.61256  1.0000
  C   C498      1.0  0.98792  0.54673  0.46981  1.0000
  C   C499      1.0  0.65497  0.71358  0.65223  1.0000
  C   C500      1.0  0.66291  0.84073  0.37994  1.0000
  H   H490      1.0  0.84379  0.67024  0.43184  1.0000
  C   C501      1.0  0.57184  0.96901  0.55763  1.0000
  H   H491      1.0  0.57591  0.57801  0.45317  1.0000
  C   C502      1.0  0.65378  0.80841  0.39015  1.0000
  Fe  Fe87      1.0  0.97689  0.66747  0.48958  1.0000
  C   C503      1.0  0.89111  0.71730  0.43388  1.0000
  C   C504      1.0  0.98477  0.51446  0.47197  1.0000
  H   H492      1.0  0.59205  0.67606  0.59498  1.0000
  H   H493      1.0  0.86723  0.61969  0.40117  1.0000
  N   N42       1.0  0.88031  0.67139  0.40370  1.0000
  H   H494      1.0  0.73807  0.63255  0.63576  1.0000
  C   C505      1.0  0.86929  0.68490  0.42345  1.0000
  C   C506      1.0  0.96140  0.57805  0.54360  1.0000
  H   H495      1.0  0.92185  0.67856  0.37857  1.0000
  H   H496      1.0  0.55032  0.67095  0.59497  1.0000
  C   C507      1.0  0.91279  0.68954  0.39376  1.0000
  H   H497      1.0  0.50739  0.99736  0.63621  1.0000
  C   C508      1.0  0.93517  0.72220  0.40349  1.0000
  H   H498      1.0  0.93442  0.55833  0.58115  1.0000
  H   H499      1.0  0.96115  0.73613  0.39589  1.0000
  H   H500      1.0  0.71662  0.90218  0.34841  1.0000
  C   C509      1.0  0.95795  0.57759  0.57185  1.0000
  H   H501      1.0  0.63675  0.98853  0.45016  1.0000
  C   C510      1.0  0.57243  0.61169  0.60125  1.0000
  C   C511      1.0  0.97912  0.60037  0.61703  1.0000
  H   H502      1.0  0.65422  0.76169  0.38257  1.0000
  H   H503      1.0  0.99385  0.60443  0.50958  1.0000
  H   H504      1.0  0.85739  0.63641  0.37126  1.0000
  H   H505      1.0  0.95772  0.60481  0.62218  1.0000
  H   H506      1.0  0.57592  0.56734  0.61208  1.0000
  C   C512      1.0  0.52170  0.97634  0.56207  1.0000
  C   C513      1.0  0.55908  0.57754  0.60861  1.0000
  H   H507      1.0  0.98507  0.62773  0.37122  1.0000
  H   H508      1.0  0.96317  0.54369  0.40476  1.0000
  C   C514      1.0  0.51191  0.51328  0.55196  1.0000
  S   S173      1.0  0.65793  0.99605  0.36447  1.0000
  H   H509      1.0  0.50622  0.94967  0.56742  1.0000
  H   H510      1.0  0.59099  0.97776  0.57415  1.0000
  C   C515      1.0  0.99612  0.64586  0.35479  1.0000
  C   C516      1.0  0.72935  0.66889  0.65744  1.0000
  H   H511      1.0  0.00036  0.61066  0.32777  1.0000
  H   H512      1.0  0.55495  0.51488  0.48806  1.0000
  C   C517      1.0  0.50632  0.99649  0.56091  1.0000
  H   H513      1.0  0.00209  0.62049  0.62745  1.0000
  Fe  Fe88      1.0  0.95498  0.60686  0.96664  1.0000
  S   S174      1.0  0.95269  0.55615  0.97226  1.0000
  Fe  Fe89      1.0  0.91263  0.64276  0.96453  1.0000
  S   S175      1.0  0.96001  0.69422  0.96096  1.0000
  S   S176      1.0  0.86042  0.63765  0.95656  1.0000
  Fe  Fe90      1.0  0.97851  0.66973  0.93079  1.0000
  H   H514      1.0  0.74510  0.74867  0.98246  1.0000
  C   C518      1.0  0.98631  0.52013  0.97516  1.0000
  S   S177      1.0  0.93021  0.61926  0.93236  1.0000
  C   C519      1.0  0.64817  0.70316  0.67956  1.0000
  Fe  Fe91      1.0  0.58142  0.97998  0.85324  1.0000
  Fe  Fe92      1.0  0.61690  0.93843  0.86237  1.0000
  H   H515      1.0  0.73921  0.76759  0.93689  1.0000
  S   S178      1.0  0.61582  0.88817  0.86979  1.0000
  S   S179      1.0  0.59218  0.95890  0.89098  1.0000
  S   S180      1.0  0.60148  0.95509  0.82464  1.0000
  Fe  Fe93      1.0  0.61492  0.73423  0.78977  1.0000
  S   S181      1.0  0.66296  0.73204  0.78100  1.0000
  S   S182      1.0  0.61232  0.78276  0.78236  1.0000
  Fe  Fe94      1.0  0.57383  0.65785  0.80202  1.0000
  S   S183      1.0  0.61863  0.65140  0.79461  1.0000
  H   H516      1.0  0.74917  0.62627  0.97883  1.0000
  Fe  Fe95      1.0  0.64787  0.69909  0.81853  1.0000
  S   S184      1.0  0.68210  0.69392  0.84916  1.0000
  Fe  Fe96      1.0  0.62874  0.68408  0.75774  1.0000
  S   S185      1.0  0.63623  0.65738  0.72136  1.0000
  S   S186      1.0  0.60206  0.70394  0.82863  1.0000
  S   S187      1.0  0.58183  0.68813  0.76395  1.0000
  C   C520      1.0  0.58977  0.60977  0.95176  1.0000
  S   S188      1.0  0.66683  0.70729  0.97535  1.0000
  H   H517      1.0  0.58805  0.66409  0.90535  1.0000
  C   C521      1.0  0.82947  0.63638  0.97967  1.0000
  C   C522      1.0  0.63175  0.99537  0.72802  1.0000
  C   C523      1.0  0.54092  0.53159  0.81037  1.0000
  C   C524      1.0  0.54601  0.56485  0.81120  1.0000
  C   C525      1.0  0.97248  0.54065  0.90763  1.0000
  H   H518      1.0  0.66867  0.91653  0.74151  1.0000
  H   H519      1.0  0.57150  0.58617  0.81212  1.0000
  C   C526      1.0  0.64264  0.67107  0.68718  1.0000
  H   H520      1.0  0.97890  0.58092  0.74645  1.0000
  H   H521      1.0  0.64768  0.72012  0.69477  1.0000
  H   H522      1.0  0.62720  0.98083  0.77008  1.0000
  C   C527      1.0  0.67374  0.69497  0.88388  1.0000
  C   C528      1.0  0.66395  0.71764  0.89397  1.0000
  C   C529      1.0  0.66125  0.72072  0.92210  1.0000
  C   C530      1.0  0.66743  0.70056  0.94022  1.0000
  C   C531      1.0  0.67581  0.67686  0.93003  1.0000
  C   C532      1.0  0.67932  0.67436  0.90195  1.0000
  H   H523      1.0  0.65984  0.73379  0.88015  1.0000
  H   H524      1.0  0.65482  0.73916  0.92985  1.0000
  H   H525      1.0  0.68101  0.66148  0.94374  1.0000
  H   H526      1.0  0.68702  0.65687  0.89422  1.0000
  C   C533      1.0  0.61199  0.85756  0.84548  1.0000
  C   C534      1.0  0.61842  0.83152  0.85356  1.0000
  C   C535      1.0  0.61760  0.80776  0.83469  1.0000
  C   C536      1.0  0.61005  0.80963  0.80750  1.0000
  C   C537      1.0  0.60270  0.83512  0.79956  1.0000
  C   C538      1.0  0.60387  0.85912  0.81839  1.0000
  H   H527      1.0  0.62448  0.82995  0.87452  1.0000
  H   H528      1.0  0.62324  0.78828  0.84111  1.0000
  H   H529      1.0  0.59662  0.83666  0.77861  1.0000
  H   H530      1.0  0.59865  0.87886  0.81190  1.0000
  C   C539      1.0  0.59145  0.58665  0.93411  1.0000
  H   H531      1.0  0.97592  0.63242  0.87131  1.0000
  H   H532      1.0  0.93865  0.74605  0.88384  1.0000
  H   H533      1.0  0.58975  0.60610  0.97344  1.0000
  C   C540      1.0  0.97795  0.52764  0.67512  1.0000
  H   H534      1.0  0.79370  0.62832  0.94788  1.0000
  C   C541      1.0  0.94429  0.50897  0.91355  1.0000
  C   C542      1.0  0.98512  0.56070  0.74537  1.0000
  H   H535      1.0  0.57204  0.60211  0.75489  1.0000
  H   H536      1.0  0.60554  0.65243  0.86166  1.0000
  H   H537      1.0  0.58758  0.65604  0.95506  1.0000
  H   H538      1.0  0.60497  0.61351  0.85584  1.0000
  C   C543      1.0  0.95929  0.52672  0.74452  1.0000
  C   C544      1.0  0.95247  0.73187  0.88691  1.0000
  C   C545      1.0  0.58883  0.64215  0.91331  1.0000
  C   C546      1.0  0.59158  0.62490  0.86676  1.0000
  C   C547      1.0  0.58829  0.63762  0.94140  1.0000
  H   H539      1.0  0.68754  0.89447  0.85508  1.0000
  C   C548      1.0  0.59207  0.59201  0.90612  1.0000
  H   H540      1.0  0.66897  0.86693  0.76319  1.0000
  H   H541      1.0  0.93282  0.52030  0.74465  1.0000
  H   H542      1.0  0.56508  0.61356  0.85915  1.0000
  H   H543      1.0  0.61708  0.98846  0.95561  1.0000
  C   C549      1.0  0.74913  0.75031  0.93908  1.0000
  H   H544      1.0  0.95918  0.73276  0.90868  1.0000
  H   H545      1.0  0.92286  0.64435  0.82597  1.0000
  H   H546      1.0  0.72203  0.70920  0.67308  1.0000
  H   H547      1.0  0.72752  0.93329  0.84864  1.0000
  N   N43       1.0  0.69091  0.91932  0.81740  1.0000
  C   C550      1.0  0.68399  0.89133  0.80224  1.0000
  C   C551      1.0  0.69131  0.94686  0.80558  1.0000
  C   C552      1.0  0.67588  0.88986  0.77475  1.0000
  C   C553      1.0  0.68346  0.94632  0.77813  1.0000
  C   C554      1.0  0.67542  0.91750  0.76271  1.0000
  H   H548      1.0  0.97057  0.56353  0.90925  1.0000
  H   H549      1.0  0.68341  0.86934  0.81157  1.0000
  N   N44       1.0  0.76370  0.71662  0.96776  1.0000
  H   H550      1.0  0.97710  0.74484  0.87569  1.0000
  H   H551      1.0  0.68350  0.96813  0.76898  1.0000
  H   H552      1.0  0.87571  0.60286  0.85572  1.0000
  S   S189      1.0  0.66825  0.98585  0.86514  1.0000
  H   H553      1.0  0.75241  0.74406  0.89605  1.0000
  H   H554      1.0  0.56726  0.54805  0.74462  1.0000
  H   H555      1.0  0.97702  0.61198  0.82473  1.0000
  H   H556      1.0  0.86461  0.62220  0.89988  1.0000
  H   H557      1.0  0.68936  0.93429  0.85808  1.0000
  C   C555      1.0  0.98966  0.55229  0.97113  1.0000
  N   N45       1.0  0.93140  0.69647  0.87814  1.0000
  C   C556      1.0  0.93717  0.68629  0.85352  1.0000
  H   H558      1.0  0.90070  0.68206  0.91391  1.0000
  C   C557      1.0  0.91734  0.65250  0.84509  1.0000
  C   C558      1.0  0.88482  0.64006  0.88655  1.0000
  C   C559      1.0  0.89106  0.62925  0.86181  1.0000
  C   C560      1.0  0.69951  0.92048  0.84614  1.0000
  H   H559      1.0  0.95795  0.70403  0.84063  1.0000
  C   C561      1.0  0.79841  0.63166  0.96944  1.0000
  H   H560      1.0  0.55189  0.00002  0.75900  1.0000
  S   S190      1.0  0.53096  0.97788  0.84612  1.0000
  H   H561      1.0  0.77867  0.68441  0.94778  1.0000
  C   C562      1.0  0.90537  0.67397  0.89444  1.0000
  H   H562      1.0  0.59336  0.57395  0.89245  1.0000
  H   H563      1.0  0.60744  0.97377  0.72259  1.0000
  H   H564      1.0  0.00195  0.58208  0.67344  1.0000
  C   C563      1.0  0.64287  0.99933  0.75495  1.0000
  N   N46       1.0  0.59130  0.61979  0.89611  1.0000
  H   H565      1.0  0.56263  0.52772  0.81045  1.0000
  C   C564      1.0  0.50795  0.50338  0.80895  1.0000
  C   C565      1.0  0.75251  0.73946  0.96487  1.0000
  C   C566      1.0  0.76720  0.71323  0.91932  1.0000
  H   H566      1.0  0.69751  0.96943  0.81735  1.0000
  C   C567      1.0  0.53998  0.53737  0.74258  1.0000
  C   C568      1.0  0.77072  0.70325  0.94543  1.0000
  C   C569      1.0  0.99038  0.65044  0.85544  1.0000
  C   C570      1.0  0.77312  0.63057  0.98693  1.0000
  H   H567      1.0  0.53678  0.99316  0.90868  1.0000
  H   H568      1.0  0.77200  0.70204  0.90160  1.0000
  H   H569      1.0  0.72127  0.65415  0.67609  1.0000
  C   C571      1.0  0.75644  0.73700  0.91619  1.0000
  C   C572      1.0  0.51812  0.57017  0.81114  1.0000
  C   C573      1.0  0.99097  0.63897  0.82901  1.0000
  S   S191      1.0  0.52312  0.61141  0.81212  1.0000
  C   C574      1.0  0.54842  0.59518  0.74343  1.0000
  H   H570      1.0  0.92046  0.50723  0.91977  1.0000
  H   H571      1.0  0.95244  0.52394  0.67538  1.0000
  H   H572      1.0  0.59237  0.56482  0.94223  1.0000
  H   H573      1.0  0.55584  0.60582  0.72262  1.0000
  H   H574      1.0  0.63939  0.62457  0.67301  1.0000
  S   S192      1.0  0.66844  0.62239  0.99235  1.0000
  N   N47       1.0  0.52611  0.55814  0.74240  1.0000
  C   C575      1.0  0.64343  0.64935  0.66722  1.0000
  H   H575      1.0  0.53575  0.60760  0.75395  1.0000
  N   N48       1.0  0.00120  0.50905  0.74197  1.0000
  C   C576      1.0  0.00363  0.54284  0.90133  1.0000
  H   H576      1.0  0.57111  0.00130  0.70595  1.0000
