data_image0
_chemical_formula_structural       CFeSFe2SH3SHCFeSHSCNC4FeH2C2SNSHC2H2CHCHC2HSCHC2HSH2CSCHSC2H2FeC3HCHCHCFeHSHFeCH3SHFeC3H2CSNHC2SH2C5HCH2C2HCFeHCHS2HSH2SHSC2H2CHC3H2S2CFeS2FeSHCSHCSHC6H4CH3SFeC2H2CH2C4HSFeS2HC2H2SC2H2CHCSC4H4CSCNH2CHFeC3FeNH3C4HC2H2CHCHSC2NH5CHSHCH3CH2FeS2FeH2FeCSH3NC2HC4HSC6H2NCHC2H2CH2C2H3C2H3CNHCH2FeHSHCHSHC4H2FeSHCSCH2C6H4CH2CSH3C2H3FeC5H2NCSH3CH2NC3S2H2CH4C2S2H2NC4H6CH2C2NHCHSHC2HCHSFeCHC5H2CSC2H2FeS2FeS2FeC2SHCSHC2H2CHC4HC3NC3HCH2CSH2FeCH8NH2NCSFeHC2HC2HCNCSHFeS2H2CH2NCSH2C2SC8H4C3FeC2SC2NHFeH2NCH2FeHSC2H2NCFeCSH3C3H5C3HCH3SH2CSHCSHFeS2CSFeHSHSFeCSHC3H4C7H4SCH2CNH3CH2CFeC2Fe2CSFeS2FeCHC3HC6H4SC2H2SHC3S2NH8C2HCFeC3SCFeHS2FeS2FeS2CFeS2C6H4C2HNC6H5CFeH4FeSH3CHC
_chemical_formula_sum              "C288 Fe48 S96 H288 N24"
_cell_length_a       28.2282
_cell_length_b       27.9326
_cell_length_c       32.8339
_cell_angle_alpha    90.216
_cell_angle_beta     90.8437
_cell_angle_gamma    119.832

_space_group_name_H-M_alt    "P 1"
_space_group_IT_number       1

loop_
  _space_group_symop_operation_xyz
  'x, y, z'

loop_
  _atom_site_type_symbol
  _atom_site_label
  _atom_site_symmetry_multiplicity
  _atom_site_fract_x
  _atom_site_fract_y
  _atom_site_fract_z
  _atom_site_occupancy
  C   C1        1.0  0.48944  0.33630  0.18054  1.0000
  Fe  Fe1       1.0  0.10672  0.40941  0.26092  1.0000
  S   S1        1.0  0.18629  0.42742  0.23407  1.0000
  Fe  Fe2       1.0  0.49133  0.34040  0.03565  1.0000
  Fe  Fe3       1.0  0.19260  0.37942  0.28665  1.0000
  S   S2        1.0  0.22284  0.31961  0.27551  1.0000
  H   H1        1.0  0.38166  0.11899  0.18225  1.0000
  H   H2        1.0  0.36444  0.16147  0.12147  1.0000
  H   H3        1.0  0.47238  0.19330  0.15389  1.0000
  S   S3        1.0  0.03621  0.39961  0.22111  1.0000
  H   H4        1.0  0.46040  0.42717  0.05563  1.0000
  C   C2        1.0  0.29861  0.29168  0.30012  1.0000
  Fe  Fe4       1.0  0.46984  0.22209  0.30687  1.0000
  S   S4        1.0  0.46318  0.19807  0.24026  1.0000
  H   H5        1.0  0.13679  0.51223  0.20694  1.0000
  S   S5        1.0  0.50746  0.18835  0.35086  1.0000
  C   C3        1.0  0.42746  0.47059  0.31006  1.0000
  N   N1        1.0  0.48633  0.51255  0.06451  1.0000
  C   C4        1.0  0.47445  0.24680  0.20224  1.0000
  C   C5        1.0  0.47657  0.23298  0.16143  1.0000
  C   C6        1.0  0.48442  0.27034  0.13023  1.0000
  C   C7        1.0  0.27250  0.32172  0.30958  1.0000
  Fe  Fe5       1.0  0.22336  0.49904  0.27755  1.0000
  H   H6        1.0  0.31089  0.44896  0.23597  1.0000
  H   H7        1.0  0.45008  0.10683  0.08513  1.0000
  C   C8        1.0  0.40640  0.42645  0.28216  1.0000
  C   C9        1.0  0.35392  0.09308  0.15809  1.0000
  S   S6        1.0  0.10901  0.35450  0.31012  1.0000
  N   N2        1.0  0.40825  0.50697  0.31023  1.0000
  S   S7        1.0  0.39664  0.19815  0.34564  1.0000
  H   H8        1.0  0.28633  0.26577  0.27301  1.0000
  C   C10       1.0  0.34164  0.29625  0.32488  1.0000
  C   C11       1.0  0.32825  0.03557  0.16060  1.0000
  H   H9        1.0  0.07261  0.32570  0.19026  1.0000
  H   H10       1.0  0.45866  0.47496  0.33189  1.0000
  C   C12       1.0  0.04470  0.32739  0.16813  1.0000
  H   H11       1.0  0.52123  0.48280  0.10910  1.0000
  C   C13       1.0  0.42392  0.09172  0.05822  1.0000
  H   H12       1.0  0.48584  0.25915  0.09893  1.0000
  C   C14       1.0  0.36461  0.41892  0.25508  1.0000
  C   C15       1.0  0.28860  0.35512  0.34464  1.0000
  H   H13       1.0  0.44032  0.17241  0.03985  1.0000
  S   S8        1.0  0.23759  0.45346  0.32768  1.0000
  C   C16       1.0  0.39460  0.03497  0.04960  1.0000
  H   H14       1.0  0.02654  0.48881  0.17637  1.0000
  C   C17       1.0  0.34463  0.45560  0.25600  1.0000
  C   C18       1.0  0.35861  0.33078  0.35930  1.0000
  H   H15       1.0  0.34615  0.38345  0.23451  1.0000
  S   S9        1.0  0.14388  0.48494  0.30128  1.0000
  H   H16       1.0  0.36236  0.27399  0.31671  1.0000
  H   H17       1.0  0.49424  0.37625  0.18799  1.0000
  C   C19       1.0  0.36725  0.49982  0.28379  1.0000
  S   S10       1.0  0.50258  0.37050  0.10122  1.0000
  C   C20       1.0  0.48083  0.29858  0.21175  1.0000
  H   H18       1.0  0.42095  0.39707  0.28256  1.0000
  S   S11       1.0  0.51703  0.30906  0.33106  1.0000
  C   C21       1.0  0.49102  0.32217  0.13968  1.0000
  C   C22       1.0  0.34410  0.11687  0.12406  1.0000
  H   H19       1.0  0.30243  0.10114  0.06578  1.0000
  H   H20       1.0  0.47839  0.30920  0.24304  1.0000
  Fe  Fe6       1.0  0.15398  0.43206  0.34818  1.0000
  C   C23       1.0  0.45471  0.46145  0.04709  1.0000
  C   C24       1.0  0.30901  0.08300  0.09296  1.0000
  C   C25       1.0  0.41875  0.12893  0.03243  1.0000
  H   H21       1.0  0.04622  0.26703  0.12774  1.0000
  C   C26       1.0  0.02955  0.29401  0.13280  1.0000
  H   H22       1.0  0.26793  0.37732  0.35275  1.0000
  C   C27       1.0  0.28396  0.02559  0.09651  1.0000
  H   H23       1.0  0.26469  0.25715  0.41482  1.0000
  C   C28       1.0  0.32417  0.31287  0.48024  1.0000
  Fe  Fe7       1.0  0.28011  0.43042  0.61419  1.0000
  H   H24       1.0  0.05004  0.23169  0.60622  1.0000
  S   S12       1.0  0.28534  0.41125  0.54781  1.0000
  H   H25       1.0  0.09896  0.32666  0.54952  1.0000
  Fe  Fe8       1.0  0.43880  0.17271  0.39226  1.0000
  C   C29       1.0  0.08292  0.29950  0.64946  1.0000
  H   H26       1.0  0.25752  0.17305  0.38363  1.0000
  H   H27       1.0  0.50066  0.03503  0.49643  1.0000
  H   H28       1.0  0.49674  0.05284  0.68416  1.0000
  S   S13       1.0  0.38906  0.09273  0.42575  1.0000
  H   H29       1.0  0.02905  0.41710  0.62665  1.0000
  Fe  Fe9       1.0  0.20814  0.41503  0.68587  1.0000
  C   C30       1.0  0.44867  0.12325  0.49847  1.0000
  C   C31       1.0  0.46028  0.11235  0.53813  1.0000
  C   C32       1.0  0.28219  0.19080  0.41107  1.0000
  H   H30       1.0  0.47405  0.16329  0.48520  1.0000
  H   H31       1.0  0.35875  0.34902  0.46576  1.0000
  C   C33       1.0  0.34802  0.23954  0.47945  1.0000
  S   S14       1.0  0.13593  0.43869  0.41436  1.0000
  N   N3        1.0  0.31854  0.26175  0.46294  1.0000
  H   H32       1.0  0.22035  0.40836  0.40848  1.0000
  C   C34       1.0  0.40450  0.08206  0.47607  1.0000
  C   C35       1.0  0.42733  0.06060  0.55584  1.0000
  S   S15       1.0  0.24229  0.36386  0.66090  1.0000
  H   H33       1.0  0.33180  0.31560  0.51373  1.0000
  H   H34       1.0  0.08863  0.38970  0.59116  1.0000
  C   C36       1.0  0.17700  0.43012  0.45131  1.0000
  C   C37       1.0  0.21579  0.41554  0.44013  1.0000
  C   C38       1.0  0.24859  0.40971  0.47003  1.0000
  C   C39       1.0  0.24242  0.41773  0.51136  1.0000
  C   C40       1.0  0.20327  0.43185  0.52265  1.0000
  H   H35       1.0  0.06750  0.32873  0.50177  1.0000
  C   C41       1.0  0.17075  0.43818  0.49267  1.0000
  H   H36       1.0  0.34455  0.38650  0.39604  1.0000
  H   H37       1.0  0.49469  0.14417  0.55525  1.0000
  C   C42       1.0  0.34427  0.19158  0.46267  1.0000
  C   C43       1.0  0.07074  0.32909  0.67783  1.0000
  H   H38       1.0  0.37494  0.25908  0.50557  1.0000
  C   C44       1.0  0.28638  0.23837  0.42891  1.0000
  Fe  Fe10      1.0  0.44668  0.28278  0.37326  1.0000
  H   H39       1.0  0.36760  0.17385  0.47573  1.0000
  C   C45       1.0  0.33180  0.35993  0.36931  1.0000
  H   H40       1.0  0.27895  0.39911  0.46099  1.0000
  S   S16       1.0  0.35719  0.48058  0.65126  1.0000
  S   S17       1.0  0.24030  0.47775  0.63625  1.0000
  H   H41       1.0  0.14076  0.44938  0.50152  1.0000
  S   S18       1.0  0.48310  0.25551  0.42295  1.0000
  H   H42       1.0  0.19805  0.43793  0.55439  1.0000
  H   H43       1.0  0.30841  0.13028  0.41477  1.0000
  S   S19       1.0  0.41323  0.33834  0.39018  1.0000
  H   H44       1.0  0.28632  0.31519  0.47528  1.0000
  S   S20       1.0  0.44412  0.04729  0.60501  1.0000
  C   C46       1.0  0.31098  0.16706  0.42835  1.0000
  C   C47       1.0  0.04054  0.25494  0.62781  1.0000
  H   H45       1.0  0.12484  0.31041  0.64454  1.0000
  H   H46       1.0  0.10827  0.51667  0.44398  1.0000
  C   C48       1.0  0.37178  0.03043  0.49377  1.0000
  H   H47       1.0  0.52015  0.10378  0.44848  1.0000
  C   C49       1.0  0.05923  0.31171  0.53307  1.0000
  C   C50       1.0  0.04556  0.36968  0.58278  1.0000
  C   C51       1.0  0.38303  0.01974  0.53348  1.0000
  H   H48       1.0  0.03930  0.26593  0.53122  1.0000
  H   H49       1.0  0.04999  0.29832  0.82508  1.0000
  S   S21       1.0  0.27861  0.46369  0.72930  1.0000
  S   S22       1.0  0.36153  0.38079  0.73267  1.0000
  C   C52       1.0  0.36394  0.06826  0.87475  1.0000
  Fe  Fe11      1.0  0.45339  0.35900  0.95204  1.0000
  S   S23       1.0  0.47172  0.29868  0.92098  1.0000
  S   S24       1.0  0.42250  0.41145  0.92167  1.0000
  Fe  Fe12      1.0  0.43446  0.24539  0.97547  1.0000
  S   S25       1.0  0.37698  0.15449  0.96476  1.0000
  H   H50       1.0  0.29821  0.07746  0.89852  1.0000
  C   C53       1.0  0.30961  0.05556  0.87688  1.0000
  S   S26       1.0  0.51326  0.27893  0.01099  1.0000
  H   H51       1.0  0.07348  0.27287  0.75877  1.0000
  C   C54       1.0  0.35544  0.05274  0.98928  1.0000
  S   S27       1.0  0.12213  0.38374  0.70647  1.0000
  H   H52       1.0  0.38989  0.41205  0.00385  1.0000
  C   C55       1.0  0.37486  0.38778  0.78573  1.0000
  C   C56       1.0  0.36807  0.42555  0.80952  1.0000
  C   C57       1.0  0.38177  0.43167  0.85138  1.0000
  C   C58       1.0  0.40208  0.39996  0.86974  1.0000
  C   C59       1.0  0.40817  0.36180  0.84602  1.0000
  C   C60       1.0  0.39485  0.35594  0.80419  1.0000
  H   H53       1.0  0.35276  0.45030  0.79556  1.0000
  H   H54       1.0  0.37677  0.46118  0.86954  1.0000
  H   H55       1.0  0.42378  0.33722  0.85968  1.0000
  H   H56       1.0  0.40016  0.32664  0.78599  1.0000
  C   C61       1.0  0.38451  0.10943  0.99785  1.0000
  H   H57       1.0  0.32875  0.03724  0.96274  1.0000
  H   H58       1.0  0.51809  0.13911  0.98895  1.0000
  H   H59       1.0  0.49740  0.49696  0.81205  1.0000
  S   S28       1.0  0.40931  0.30248  0.00389  1.0000
  Fe  Fe13      1.0  0.31614  0.41798  0.70030  1.0000
  C   C62       1.0  0.41478  0.45264  0.01768  1.0000
  C   C63       1.0  0.50466  0.05665  0.99369  1.0000
  H   H60       1.0  0.39467  0.10000  0.89468  1.0000
  H   H61       1.0  0.51543  0.43156  0.77392  1.0000
  C   C64       1.0  0.03137  0.25218  0.76868  1.0000
  H   H62       1.0  0.42032  0.04874  0.84547  1.0000
  H   H63       1.0  0.37828  0.49048  0.98167  1.0000
  C   C65       1.0  0.37834  0.03976  0.84715  1.0000
  C   C66       1.0  0.52018  0.04182  0.70603  1.0000
  C   C67       1.0  0.40818  0.49672  0.00532  1.0000
  C   C68       1.0  0.52235  0.48188  0.82620  1.0000
  H   H64       1.0  0.46151  0.03726  0.98608  1.0000
  S   S29       1.0  0.28858  0.58139  0.25617  1.0000
  Fe  Fe14      1.0  0.23265  0.80130  0.08191  1.0000
  S   S30       1.0  0.15482  0.77962  0.11441  1.0000
  S   S31       1.0  0.31469  0.83417  0.11219  1.0000
  H   H65       1.0  0.24773  0.63048  0.12225  1.0000
  C   C69       1.0  0.33901  0.73006  0.22938  1.0000
  C   C70       1.0  0.13450  0.73852  0.15828  1.0000
  H   H66       1.0  0.43001  0.80699  0.30437  1.0000
  H   H67       1.0  0.47820  0.73948  0.17737  1.0000
  S   S32       1.0  0.24356  0.74626  0.03768  1.0000
  C   C71       1.0  0.15097  0.69049  0.21344  1.0000
  C   C72       1.0  0.16946  0.72442  0.17897  1.0000
  H   H68       1.0  0.17783  0.67914  0.22915  1.0000
  H   H69       1.0  0.21049  0.73946  0.16831  1.0000
  C   C73       1.0  0.45067  0.79372  0.24386  1.0000
  H   H70       1.0  0.36112  0.71615  0.17004  1.0000
  C   C74       1.0  0.33299  0.61687  0.29704  1.0000
  S   S33       1.0  0.36641  0.73431  0.08456  1.0000
  C   C75       1.0  0.08156  0.71929  0.17257  1.0000
  C   C76       1.0  0.06313  0.68547  0.20690  1.0000
  C   C77       1.0  0.42325  0.68480  0.32178  1.0000
  C   C78       1.0  0.38657  0.65774  0.28936  1.0000
  H   H71       1.0  0.45321  0.77394  0.14409  1.0000
  H   H72       1.0  0.23150  0.92053  0.11247  1.0000
  H   H73       1.0  0.40000  0.66797  0.25833  1.0000
  H   H74       1.0  0.17591  0.65328  0.10219  1.0000
  C   C79       1.0  0.46976  0.77421  0.17508  1.0000
  S   S34       1.0  0.07426  0.62579  0.26912  1.0000
  C   C80       1.0  0.44041  0.71036  0.05057  1.0000
  N   N4        1.0  0.29305  0.00264  0.13038  1.0000
  H   H75       1.0  0.32982  0.74996  0.29117  1.0000
  H   H76       1.0  0.46433  0.71701  0.31560  1.0000
  C   C81       1.0  0.20804  0.60962  0.13652  1.0000
  H   H77       1.0  0.25191  0.92900  0.16497  1.0000
  Fe  Fe15      1.0  0.34428  0.89973  0.06454  1.0000
  C   C82       1.0  0.35831  0.75596  0.26725  1.0000
  C   C83       1.0  0.39959  0.72412  0.04343  1.0000
  C   C84       1.0  0.37634  0.73704  0.19920  1.0000
  Fe  Fe16      1.0  0.32830  0.78462  0.06463  1.0000
  N   N5        1.0  0.43131  0.76913  0.20653  1.0000
  H   H78       1.0  0.46846  0.55981  0.35473  1.0000
  H   H79       1.0  0.03297  0.55427  0.19192  1.0000
  H   H80       1.0  0.05448  0.73039  0.15685  1.0000
  C   C85       1.0  0.09761  0.67069  0.22731  1.0000
  C   C86       1.0  0.12323  0.59702  0.36264  1.0000
  C   C87       1.0  0.14551  0.54357  0.18423  1.0000
  C   C88       1.0  0.16773  0.62223  0.12506  1.0000
  H   H81       1.0  0.45101  0.70536  0.08144  1.0000
  C   C89       1.0  0.31601  0.60297  0.33722  1.0000
  C   C90       1.0  0.40689  0.66993  0.36193  1.0000
  H   H82       1.0  0.08615  0.60606  0.13519  1.0000
  H   H83       1.0  0.29549  0.70373  0.22371  1.0000
  C   C91       1.0  0.41449  0.78801  0.27464  1.0000
  H   H84       1.0  0.49435  0.81737  0.25016  1.0000
  C   C92       1.0  0.11689  0.59524  0.14381  1.0000
  H   H85       1.0  0.27441  0.57174  0.34332  1.0000
  S   S35       1.0  0.40086  0.98869  0.08207  1.0000
  C   C93       1.0  0.26717  0.94250  0.13373  1.0000
  C   C94       1.0  0.19689  0.56991  0.16624  1.0000
  N   N6        1.0  0.10669  0.55714  0.17344  1.0000
  H   H86       1.0  0.22774  0.55945  0.17536  1.0000
  H   H87       1.0  0.14315  0.60863  0.33339  1.0000
  H   H88       1.0  0.50566  0.59677  0.06613  1.0000
  H   H89       1.0  0.25798  0.99958  0.07170  1.0000
  H   H90       1.0  0.29735  0.92937  0.12664  1.0000
  C   C95       1.0  0.47986  0.55600  0.05287  1.0000
  H   H91       1.0  0.50898  0.81367  0.17860  1.0000
  S   S36       1.0  0.26087  0.87104  0.03798  1.0000
  H   H92       1.0  0.08335  0.64512  0.35524  1.0000
  C   C96       1.0  0.05304  0.52866  0.19241  1.0000
  H   H93       1.0  0.43906  0.59174  0.32444  1.0000
  H   H94       1.0  0.05699  0.52014  0.22500  1.0000
  H   H95       1.0  0.33697  0.01744  0.18677  1.0000
  C   C97       1.0  0.42983  0.55277  0.33983  1.0000
  H   H96       1.0  0.35124  0.52792  0.28447  1.0000
  H   H97       1.0  0.18916  0.80263  0.63318  1.0000
  Fe  Fe17      1.0  0.31356  0.84742  0.64190  1.0000
  S   S37       1.0  0.40084  0.90724  0.65945  1.0000
  S   S38       1.0  0.27840  0.76519  0.61021  1.0000
  Fe  Fe18      1.0  0.27113  0.91621  0.68066  1.0000
  H   H98       1.0  0.35775  0.97958  0.54650  1.0000
  H   H99       1.0  0.17433  0.73937  0.69186  1.0000
  Fe  Fe19      1.0  0.38095  0.97218  0.63875  1.0000
  C   C98       1.0  0.08933  0.61730  0.37482  1.0000
  S   S39       1.0  0.29592  0.91161  0.61688  1.0000
  H   H100      1.0  0.44633  0.73099  0.48608  1.0000
  H   H101      1.0  0.34006  0.61805  0.40072  1.0000
  H   H102      1.0  0.11333  0.67382  0.69208  1.0000
  N   N7        1.0  0.37829  0.61049  0.53649  1.0000
  C   C99       1.0  0.35980  0.71042  0.68077  1.0000
  C   C100      1.0  0.10319  0.54546  0.42490  1.0000
  H   H103      1.0  0.39159  0.63061  0.47336  1.0000
  C   C101      1.0  0.14503  0.78045  0.62958  1.0000
  C   C102      1.0  0.11985  0.80399  0.60666  1.0000
  C   C103      1.0  0.34172  0.74430  0.66320  1.0000
  C   C104      1.0  0.29444  0.63340  0.63917  1.0000
  H   H104      1.0  0.37248  0.53194  0.53142  1.0000
  S   S40       1.0  0.45473  0.69914  0.40202  1.0000
  C   C105      1.0  0.27712  0.66758  0.62096  1.0000
  C   C106      1.0  0.30058  0.72299  0.63308  1.0000
  C   C107      1.0  0.38949  0.63005  0.57576  1.0000
  C   C108      1.0  0.05878  0.70228  0.64308  1.0000
  C   C109      1.0  0.14208  0.70716  0.67182  1.0000
  C   C110      1.0  0.06308  0.77558  0.60180  1.0000
  H   H105      1.0  0.03441  0.66312  0.65805  1.0000
  H   H106      1.0  0.27618  0.59085  0.62961  1.0000
  N   N8        1.0  0.11444  0.73065  0.64794  1.0000
  C   C111      1.0  0.42050  0.68677  0.58387  1.0000
  H   H107      1.0  0.42870  0.70202  0.61511  1.0000
  C   C112      1.0  0.34603  0.55087  0.52884  1.0000
  C   C113      1.0  0.33587  0.65479  0.66907  1.0000
  H   H108      1.0  0.46460  0.76752  0.55736  1.0000
  H   H109      1.0  0.16160  0.69074  0.65111  1.0000
  C   C114      1.0  0.39901  0.64603  0.50456  1.0000
  H   H110      1.0  0.24541  0.65107  0.59756  1.0000
  H   H111      1.0  0.32616  0.54114  0.49810  1.0000
  C   C115      1.0  0.13053  0.56113  0.38794  1.0000
  C   C116      1.0  0.44066  0.72341  0.55151  1.0000
  H   H112      1.0  0.33758  0.99836  0.47660  1.0000
  H   H113      1.0  0.37423  0.60181  0.60116  1.0000
  H   H114      1.0  0.36005  0.78704  0.67265  1.0000
  C   C117      1.0  0.43021  0.70299  0.51157  1.0000
  C   C118      1.0  0.06251  0.60072  0.41195  1.0000
  H   H115      1.0  0.31280  0.53087  0.55128  1.0000
  H   H116      1.0  0.15660  0.54482  0.37888  1.0000
  H   H117      1.0  0.14429  0.84443  0.59341  1.0000
  C   C119      1.0  0.04066  0.54706  0.47495  1.0000
  N   N9        1.0  0.07008  0.56560  0.43662  1.0000
  H   H118      1.0  0.03519  0.61567  0.42066  1.0000
  C   C120      1.0  0.35300  0.62951  0.36971  1.0000
  H   H119      1.0  0.50650  0.99981  0.63066  1.0000
  H   H120      1.0  0.06726  0.54499  0.49931  1.0000
  Fe  Fe20      1.0  0.31397  0.52242  0.67739  1.0000
  H   H121      1.0  0.07784  0.86370  0.68037  1.0000
  S   S41       1.0  0.36040  0.61395  0.69115  1.0000
  H   H122      1.0  0.04284  0.79349  0.58445  1.0000
  C   C121      1.0  0.03227  0.72422  0.61984  1.0000
  H   H123      1.0  0.02647  0.57555  0.48566  1.0000
  S   S42       1.0  0.19405  0.91827  0.69253  1.0000
  H   H124      1.0  0.39924  0.54431  0.36371  1.0000
  C   C122      1.0  0.38593  0.73038  0.00345  1.0000
  C   C123      1.0  0.46852  0.70439  0.01779  1.0000
  C   C124      1.0  0.24283  0.94299  0.79813  1.0000
  C   C125      1.0  0.40011  0.76844  0.82977  1.0000
  H   H125      1.0  0.49084  0.00666  0.72471  1.0000
  H   H126      1.0  0.34391  0.75752  0.78072  1.0000
  Fe  Fe21      1.0  0.27989  0.81952  0.99609  1.0000
  S   S43       1.0  0.25166  0.81064  0.93033  1.0000
  H   H127      1.0  0.33933  0.97226  0.00726  1.0000
  C   C126      1.0  0.04523  0.78615  0.71165  1.0000
  S   S44       1.0  0.40851  0.91845  0.78060  1.0000
  C   C127      1.0  0.35406  0.68605  0.78782  1.0000
  H   H128      1.0  0.26055  0.93599  0.77026  1.0000
  H   H129      1.0  0.39254  0.72749  0.70337  1.0000
  C   C128      1.0  0.29677  0.84199  0.88985  1.0000
  C   C129      1.0  0.27459  0.83575  0.85044  1.0000
  C   C130      1.0  0.30862  0.85924  0.81705  1.0000
  C   C131      1.0  0.36530  0.88901  0.82259  1.0000
  C   C132      1.0  0.38772  0.89589  0.86210  1.0000
  C   C133      1.0  0.35352  0.87242  0.89572  1.0000
  H   H130      1.0  0.23073  0.81223  0.84572  1.0000
  H   H131      1.0  0.29065  0.85391  0.78712  1.0000
  H   H132      1.0  0.43156  0.91916  0.86674  1.0000
  H   H133      1.0  0.37096  0.87748  0.92605  1.0000
  C   C134      1.0  0.05728  0.75236  0.73587  1.0000
  H   H134      1.0  0.35396  0.74030  0.99772  1.0000
  H   H135      1.0  0.37056  0.58466  0.82492  1.0000
  C   C135      1.0  0.45521  0.71126  0.97778  1.0000
  S   S45       1.0  0.35440  0.98290  0.70085  1.0000
  H   H136      1.0  0.12050  0.74582  0.76853  1.0000
  H   H137      1.0  0.40235  0.72816  0.93991  1.0000
  H   H138      1.0  0.21167  0.95365  0.78745  1.0000
  C   C136      1.0  0.11111  0.77138  0.74915  1.0000
  C   C137      1.0  0.36393  0.73910  0.79777  1.0000
  H   H139      1.0  0.45466  0.76716  0.87606  1.0000
  H   H140      1.0  0.40184  0.61228  0.77636  1.0000
  H   H141      1.0  0.22241  0.90388  0.81543  1.0000
  Fe  Fe22      1.0  0.36701  0.91294  0.71980  1.0000
  C   C138      1.0  0.36986  0.60798  0.79779  1.0000
  C   C139      1.0  0.42613  0.74471  0.85122  1.0000
  C   C140      1.0  0.33807  0.99922  0.82170  1.0000
  C   C141      1.0  0.36077  0.01567  0.01490  1.0000
  C   C142      1.0  0.41521  0.69159  0.84052  1.0000
  H   H142      1.0  0.34966  0.97748  0.80023  1.0000
  H   H143      1.0  0.19430  0.83714  0.74740  1.0000
  N   N10       1.0  0.37915  0.66278  0.80944  1.0000
  C   C143      1.0  0.08721  0.83805  0.69965  1.0000
  S   S46       1.0  0.49107  0.70537  0.93656  1.0000
  H   H144      1.0  0.32945  0.58287  0.78221  1.0000
  H   H145      1.0  0.32638  0.66364  0.76260  1.0000
  H   H146      1.0  0.43582  0.67361  0.85735  1.0000
  C   C144      1.0  0.14142  0.85585  0.71127  1.0000
  H   H147      1.0  0.43632  0.58354  0.01338  1.0000
  H   H148      1.0  0.40812  0.80958  0.83777  1.0000
  N   N11       1.0  0.28488  0.98716  0.82384  1.0000
  C   C145      1.0  0.15311  0.82290  0.73674  1.0000
  C   C146      1.0  0.41330  0.72337  0.97067  1.0000
  C   C147      1.0  0.44074  0.54879  0.02307  1.0000
  S   S47       1.0  0.28186  0.84700  0.70371  1.0000
  S   S48       1.0  0.36600  0.85352  0.01949  1.0000
  H   H149      1.0  0.50324  0.97945  0.00195  1.0000
  H   H150      1.0  0.48820  0.52657  0.88186  1.0000
  C   C148      1.0  0.27024  0.01425  0.85130  1.0000
  H   H151      1.0  0.22792  0.00401  0.85351  1.0000
  H   H152      1.0  0.50037  0.69439  0.02351  1.0000
  H   H153      1.0  0.81377  0.27428  0.12285  1.0000
  H   H154      1.0  0.94235  0.33055  0.08916  1.0000
  C   C149      1.0  0.98637  0.36332  0.14621  1.0000
  C   C150      1.0  0.89131  0.27948  0.20451  1.0000
  S   S49       1.0  0.81654  0.20036  0.05237  1.0000
  S   S50       1.0  0.80231  0.43146  0.25802  1.0000
  H   H155      1.0  0.68770  0.33773  0.06616  1.0000
  H   H156      1.0  0.76584  0.32688  0.14451  1.0000
  N   N12       1.0  0.65560  0.42353  0.22597  1.0000
  C   C151      1.0  0.66478  0.33050  0.31909  1.0000
  C   C152      1.0  0.70221  0.35546  0.28757  1.0000
  C   C153      1.0  0.75696  0.39368  0.29682  1.0000
  C   C154      1.0  0.77481  0.40423  0.33750  1.0000
  H   H157      1.0  0.61974  0.42994  0.32295  1.0000
  H   H158      1.0  0.62230  0.30182  0.31188  1.0000
  H   H159      1.0  0.68845  0.34623  0.25614  1.0000
  H   H160      1.0  0.80305  0.38499  0.17823  1.0000
  H   H161      1.0  0.86534  0.38301  0.22580  1.0000
  H   H162      1.0  0.81740  0.43199  0.34490  1.0000
  C   C155      1.0  0.86382  0.34843  0.20942  1.0000
  H   H163      1.0  0.91495  0.26122  0.21594  1.0000
  H   H164      1.0  0.58338  0.37431  0.25946  1.0000
  C   C156      1.0  0.89214  0.32338  0.22558  1.0000
  C   C157      1.0  0.80748  0.35782  0.15563  1.0000
  N   N13       1.0  0.83539  0.33014  0.17324  1.0000
  H   H165      1.0  0.73205  0.47965  0.19964  1.0000
  C   C158      1.0  0.97092  0.32965  0.11103  1.0000
  H   H166      1.0  0.96909  0.38968  0.15142  1.0000
  S   S51       1.0  0.77076  0.30870  0.05370  1.0000
  H   H167      1.0  0.83079  0.38312  0.12934  1.0000
  C   C159      1.0  0.83488  0.28754  0.15214  1.0000
  C   C160      1.0  0.64422  0.44163  0.29575  1.0000
  H   H168      1.0  0.91617  0.33910  0.25356  1.0000
  C   C161      1.0  0.86249  0.26131  0.16754  1.0000
  H   H169      1.0  0.86348  0.22872  0.15009  1.0000
  S   S52       1.0  0.97138  0.24958  0.06172  1.0000
  Fe  Fe23      1.0  0.86918  0.50943  0.28723  1.0000
  C   C162      1.0  0.68248  0.34295  0.35982  1.0000
  H   H170      1.0  0.61268  0.40699  0.16933  1.0000
  C   C163      1.0  0.99203  0.29440  0.10445  1.0000
  C   C164      1.0  0.70679  0.46900  0.22635  1.0000
  C   C165      1.0  0.62401  0.41018  0.25984  1.0000
  C   C166      1.0  0.63360  0.39016  0.18859  1.0000
  C   C167      1.0  0.69664  0.48758  0.29655  1.0000
  H   H171      1.0  0.60364  0.34644  0.19561  1.0000
  H   H172      1.0  0.66655  0.38967  0.17080  1.0000
  C   C168      1.0  0.72805  0.50170  0.26160  1.0000
  S   S53       1.0  0.94208  0.51488  0.31953  1.0000
  C   C169      1.0  0.69482  0.33853  0.03383  1.0000
  C   C170      1.0  0.02253  0.36156  0.17520  1.0000
  H   H173      1.0  0.71310  0.51200  0.32427  1.0000
  H   H174      1.0  0.65657  0.21299  0.03064  1.0000
  Fe  Fe24      1.0  0.84899  0.17382  0.61020  1.0000
  S   S54       1.0  0.77791  0.09754  0.63532  1.0000
  S   S55       1.0  0.93374  0.18555  0.60575  1.0000
  Fe  Fe25      1.0  0.78131  0.22672  0.59014  1.0000
  S   S56       1.0  0.70461  0.15656  0.61464  1.0000
  S   S57       1.0  0.79122  0.30433  0.56259  1.0000
  Fe  Fe26      1.0  0.73049  0.10290  0.58165  1.0000
  C   C171      1.0  0.54202  0.05538  0.51107  1.0000
  C   C172      1.0  0.01632  0.31422  0.68436  1.0000
  S   S58       1.0  0.80348  0.17347  0.55337  1.0000
  H   H175      1.0  0.76695  0.04771  0.51921  1.0000
  C   C173      1.0  0.79174  0.34608  0.60263  1.0000
  S   S59       1.0  0.63630  0.31509  0.39986  1.0000
  H   H176      1.0  0.70912  0.21402  0.50304  1.0000
  C   C174      1.0  0.81415  0.43608  0.62979  1.0000
  C   C175      1.0  0.81524  0.40317  0.59777  1.0000
  H   H177      1.0  0.83179  0.48006  0.62590  1.0000
  H   H178      1.0  0.83412  0.42193  0.56933  1.0000
  C   C176      1.0  0.95637  0.35929  0.59302  1.0000
  H   H179      1.0  0.91006  0.51536  0.51985  1.0000
  C   C177      1.0  0.93497  0.31768  0.56330  1.0000
  C   C178      1.0  0.65016  0.21005  0.45853  1.0000
  C   C179      1.0  0.73528  0.36954  0.49834  1.0000
  C   C180      1.0  0.59682  0.17879  0.44332  1.0000
  H   H180      1.0  0.74976  0.27800  0.64349  1.0000
  C   C181      1.0  0.73560  0.47709  0.56724  1.0000
  C   C182      1.0  0.56156  0.12775  0.46066  1.0000
  C   C183      1.0  0.78973  0.41177  0.66658  1.0000
  N   N14       1.0  0.57901  0.10858  0.49253  1.0000
  C   C184      1.0  0.76691  0.35483  0.67143  1.0000
  C   C185      1.0  0.66766  0.19011  0.49092  1.0000
  C   C186      1.0  0.63131  0.13891  0.50757  1.0000
  H   H181      1.0  0.77589  0.37411  0.49188  1.0000
  C   C187      1.0  0.76411  0.46687  0.48852  1.0000
  H   H182      1.0  0.00408  0.50557  0.47024  1.0000
  H   H183      1.0  0.71040  0.39120  0.57227  1.0000
  C   C188      1.0  0.72734  0.42649  0.55224  1.0000
  S   S60       1.0  0.83228  0.23293  0.64481  1.0000
  H   H184      1.0  0.67778  0.24954  0.44504  1.0000
  H   H185      1.0  0.89173  0.29694  0.55551  1.0000
  Fe  Fe27      1.0  0.54888  0.27355  0.37805  1.0000
  C   C189      1.0  0.76809  0.32206  0.63958  1.0000
  H   H186      1.0  0.75190  0.38798  0.40024  1.0000
  H   H187      1.0  0.53690  0.06157  0.54385  1.0000
  H   H188      1.0  0.93266  0.25823  0.66886  1.0000
  H   H189      1.0  0.55904  0.02717  0.50835  1.0000
  H   H190      1.0  0.64520  0.12337  0.53251  1.0000
  H   H191      1.0  0.70967  0.35647  0.47005  1.0000
  H   H192      1.0  0.71524  0.33602  0.52090  1.0000
  H   H193      1.0  0.58298  0.19417  0.41821  1.0000
  N   N15       1.0  0.74202  0.42205  0.51344  1.0000
  H   H194      1.0  0.77660  0.46361  0.45797  1.0000
  H   H195      1.0  0.95221  0.26899  0.52178  1.0000
  N   N16       1.0  0.55619  0.02662  0.68474  1.0000
  C   C190      1.0  0.98604  0.24055  0.63394  1.0000
  S   S61       1.0  0.66236  0.03128  0.54661  1.0000
  Fe  Fe28      1.0  0.75810  0.15719  0.66622  1.0000
  H   H196      1.0  0.72536  0.48076  0.59842  1.0000
  C   C191      1.0  0.96948  0.30238  0.54413  1.0000
  C   C192      1.0  0.97416  0.27006  0.66253  1.0000
  H   H197      1.0  0.92958  0.37059  0.60860  1.0000
  C   C193      1.0  0.73772  0.37891  0.36891  1.0000
  C   C194      1.0  0.01206  0.38557  0.60289  1.0000
  H   H198      1.0  0.90566  0.15262  0.69595  1.0000
  C   C195      1.0  0.77178  0.51776  0.50225  1.0000
  N   N17       1.0  0.02396  0.32812  0.55412  1.0000
  C   C196      1.0  0.84967  0.43879  0.80107  1.0000
  S   S62       1.0  0.62663  0.35474  0.92941  1.0000
  H   H199      1.0  0.71884  0.33977  0.91772  1.0000
  Fe  Fe29      1.0  0.85602  0.25206  0.94181  1.0000
  S   S63       1.0  0.77010  0.21533  0.96356  1.0000
  S   S64       1.0  0.87970  0.28604  0.87825  1.0000
  H   H200      1.0  0.81727  0.06521  0.98769  1.0000
  H   H201      1.0  0.74267  0.26743  0.85124  1.0000
  C   C197      1.0  0.01818  0.26666  0.80578  1.0000
  H   H202      1.0  0.61255  0.04940  0.73496  1.0000
  H   H203      1.0  0.85907  0.46703  0.77588  1.0000
  N   N18       1.0  0.54207  0.49743  0.86519  1.0000
  C   C198      1.0  0.98975  0.21188  0.74387  1.0000
  S   S65       1.0  0.72866  0.13958  0.73097  1.0000
  H   H204      1.0  0.95321  0.25085  0.84691  1.0000
  H   H205      1.0  0.70498  0.30013  0.83333  1.0000
  C   C199      1.0  0.58462  0.44142  0.86210  1.0000
  C   C200      1.0  0.80303  0.38641  0.79924  1.0000
  S   S66       1.0  0.78652  0.45129  0.70682  1.0000
  C   C201      1.0  0.74164  0.29604  0.82822  1.0000
  C   C202      1.0  0.96389  0.24025  0.81791  1.0000
  C   C203      1.0  0.83703  0.24563  0.83760  1.0000
  C   C204      1.0  0.79146  0.19395  0.84440  1.0000
  C   C205      1.0  0.75837  0.16209  0.81141  1.0000
  C   C206      1.0  0.77102  0.18129  0.77142  1.0000
  C   C207      1.0  0.81662  0.23307  0.76460  1.0000
  C   C208      1.0  0.84931  0.26532  0.79768  1.0000
  H   H206      1.0  0.78185  0.17828  0.87505  1.0000
  H   H207      1.0  0.72319  0.12204  0.81692  1.0000
  H   H208      1.0  0.82640  0.24859  0.73398  1.0000
  H   H209      1.0  0.88450  0.30541  0.79227  1.0000
  C   C209      1.0  0.67023  0.34768  0.96431  1.0000
  C   C210      1.0  0.53700  0.11421  0.99530  1.0000
  C   C211      1.0  0.82361  0.36598  0.86508  1.0000
  Fe  Fe30      1.0  0.80824  0.26617  0.02002  1.0000
  C   C212      1.0  0.74468  0.32961  0.97767  1.0000
  C   C213      1.0  0.71222  0.33952  0.95008  1.0000
  S   S67       1.0  0.71488  0.06577  0.99364  1.0000
  C   C214      1.0  0.56372  0.42444  0.82264  1.0000
  C   C215      1.0  0.87086  0.41778  0.86777  1.0000
  N   N19       1.0  0.79098  0.35051  0.83079  1.0000
  H   H210      1.0  0.77658  0.37475  0.77238  1.0000
  Fe  Fe31      1.0  0.78596  0.15262  0.99374  1.0000
  H   H211      1.0  0.81390  0.33786  0.89034  1.0000
  H   H212      1.0  0.63071  0.35581  0.01740  1.0000
  N   N20       1.0  0.93632  0.18799  0.75517  1.0000
  C   C216      1.0  0.88392  0.45437  0.83549  1.0000
  H   H213      1.0  0.60926  0.42614  0.87651  1.0000
  H   H214      1.0  0.89727  0.42908  0.89464  1.0000
  Fe  Fe32      1.0  0.54857  0.33738  0.95902  1.0000
  H   H215      1.0  0.77677  0.32287  0.96661  1.0000
  S   S68       1.0  0.86940  0.18522  0.96758  1.0000
  C   C217      1.0  0.92326  0.20053  0.79217  1.0000
  C   C218      1.0  0.73535  0.32817  0.01950  1.0000
  H   H216      1.0  0.88113  0.18027  0.80179  1.0000
  H   H217      1.0  0.73818  0.27668  0.79783  1.0000
  N   N21       1.0  0.59151  0.13866  0.00502  1.0000
  C   C219      1.0  0.60175  0.03205  0.70434  1.0000
  Fe  Fe33      1.0  0.89910  0.23906  0.02418  1.0000
  C   C220      1.0  0.89281  0.14724  0.72830  1.0000
  S   S69       1.0  0.89322  0.30905  0.99611  1.0000
  H   H218      1.0  0.67269  0.02215  0.70030  1.0000
  H   H219      1.0  0.85586  0.15184  0.72938  1.0000
  H   H220      1.0  0.00043  0.20113  0.71497  1.0000
  C   C221      1.0  0.66214  0.34809  0.00622  1.0000
  C   C222      1.0  0.62537  0.19895  0.00560  1.0000
  C   C223      1.0  0.57346  0.47827  0.88301  1.0000
  H   H221      1.0  0.65887  0.12637  0.01892  1.0000
  H   H222      1.0  0.54418  0.07842  0.72619  1.0000
  H   H223      1.0  0.60303  0.02461  0.01758  1.0000
  H   H224      1.0  0.57163  0.39541  0.80628  1.0000
  H   H225      1.0  0.64666  0.21337  0.97621  1.0000
  C   C224      1.0  0.78382  0.02351  0.98349  1.0000
  C   C225      1.0  0.53253  0.44490  0.80442  1.0000
  C   C226      1.0  0.61532  0.10709  0.01234  1.0000
  H   H226      1.0  0.59016  0.49151  0.91359  1.0000
  C   C227      1.0  0.58397  0.04943  0.01149  1.0000
  H   H227      1.0  0.00670  0.33654  0.70672  1.0000
  H   H228      1.0  0.88172  0.10487  0.73780  1.0000
  H   H229      1.0  0.60069  0.21937  0.01077  1.0000
  S   S70       1.0  0.53367  0.40224  0.98631  1.0000
  H   H230      1.0  0.74778  0.33583  0.69973  1.0000
  H   H231      1.0  0.92045  0.49473  0.83714  1.0000
  C   C228      1.0  0.52820  0.02415  0.00238  1.0000
  S   S71       1.0  0.97600  0.64241  0.34440  1.0000
  H   H232      1.0  0.80064  0.61101  0.35584  1.0000
  C   C229      1.0  0.72267  0.92317  0.08060  1.0000
  S   S72       1.0  0.68146  0.79863  0.32813  1.0000
  H   H233      1.0  0.53345  0.55139  0.11831  1.0000
  Fe  Fe34      1.0  0.60292  0.78438  0.29901  1.0000
  S   S73       1.0  0.59357  0.80701  0.23465  1.0000
  S   S74       1.0  0.55364  0.69814  0.32211  1.0000
  C   C230      1.0  0.72775  0.83909  0.16762  1.0000
  S   S75       1.0  0.61823  0.66439  0.09542  1.0000
  Fe  Fe35      1.0  0.90045  0.62692  0.30946  1.0000
  H   H234      1.0  0.02217  0.67085  0.21745  1.0000
  S   S76       1.0  0.87740  0.69278  0.30073  1.0000
  H   H235      1.0  0.88017  0.87132  0.34834  1.0000
  S   S77       1.0  0.58212  0.82401  0.35019  1.0000
  Fe  Fe36      1.0  0.98909  0.59888  0.29164  1.0000
  C   C231      1.0  0.78314  0.63478  0.34401  1.0000
  S   S78       1.0  0.91726  0.58953  0.25464  1.0000
  H   H236      1.0  0.71475  0.90810  0.16159  1.0000
  C   C232      1.0  0.73942  0.69993  0.31698  1.0000
  C   C233      1.0  0.78990  0.70931  0.30264  1.0000
  C   C234      1.0  0.81204  0.67701  0.31635  1.0000
  H   H237      1.0  0.72239  0.83663  0.20039  1.0000
  H   H238      1.0  0.56929  0.53902  0.07830  1.0000
  H   H239      1.0  0.72275  0.72518  0.30645  1.0000
  H   H240      1.0  0.81220  0.74214  0.28131  1.0000
  C   C235      1.0  0.73689  0.84382  0.08359  1.0000
  C   C236      1.0  0.59729  0.76493  0.19643  1.0000
  C   C237      1.0  0.60679  0.72168  0.20612  1.0000
  C   C238      1.0  0.61181  0.69007  0.17487  1.0000
  C   C239      1.0  0.60757  0.70178  0.13391  1.0000
  C   C240      1.0  0.59702  0.74433  0.12435  1.0000
  C   C241      1.0  0.59221  0.77601  0.15550  1.0000
  H   H241      1.0  0.61106  0.71304  0.23763  1.0000
  H   H242      1.0  0.62008  0.65723  0.18246  1.0000
  H   H243      1.0  0.59296  0.75324  0.09304  1.0000
  H   H244      1.0  0.58549  0.80978  0.14774  1.0000
  S   S79       1.0  0.84623  0.54597  0.33888  1.0000
  C   C242      1.0  0.72321  0.87934  0.14541  1.0000
  H   H245      1.0  0.73824  0.76784  0.16376  1.0000
  H   H246      1.0  0.74018  0.84517  0.05070  1.0000
  C   C243      1.0  0.73656  0.80047  0.14709  1.0000
  N   N22       1.0  0.72821  0.88152  0.10394  1.0000
  H   H247      1.0  0.75813  0.94550  0.06030  1.0000
  H   H248      1.0  0.74635  0.77185  0.08847  1.0000
  H   H249      1.0  0.72106  0.95455  0.10053  1.0000
  C   C244      1.0  0.74099  0.80264  0.10480  1.0000
  H   H250      1.0  0.68472  0.90297  0.06150  1.0000
  H   H251      1.0  0.76910  0.53709  0.26204  1.0000
  C   C245      1.0  0.71085  0.65797  0.34489  1.0000
  Fe  Fe37      1.0  0.62997  0.71554  0.35600  1.0000
  C   C246      1.0  0.52960  0.52175  0.09403  1.0000
  C   C247      1.0  0.73241  0.62493  0.35796  1.0000
  Fe  Fe38      1.0  0.62607  0.69535  0.03117  1.0000
  Fe  Fe39      1.0  0.92279  0.55756  0.36910  1.0000
  C   C248      1.0  0.63585  0.01637  0.68497  1.0000
  S   S80       1.0  0.61108  0.74882  0.41186  1.0000
  Fe  Fe40      1.0  0.86746  0.63451  0.63387  1.0000
  S   S81       1.0  0.90681  0.59066  0.66384  1.0000
  S   S82       1.0  0.88015  0.66425  0.56918  1.0000
  Fe  Fe41      1.0  0.82621  0.54186  0.69433  1.0000
  C   C249      1.0  0.77366  0.80645  0.41251  1.0000
  H   H252      1.0  0.75422  0.72888  0.48002  1.0000
  C   C250      1.0  0.70600  0.93930  0.45176  1.0000
  C   C251      1.0  0.68002  0.99633  0.51034  1.0000
  C   C252      1.0  0.74751  0.98450  0.47344  1.0000
  H   H253      1.0  0.64915  0.98277  0.62983  1.0000
  C   C253      1.0  0.91260  0.56834  0.47131  1.0000
  C   C254      1.0  0.90772  0.55174  0.51201  1.0000
  C   C255      1.0  0.89869  0.58145  0.54256  1.0000
  C   C256      1.0  0.89480  0.62798  0.53240  1.0000
  C   C257      1.0  0.90049  0.64495  0.49177  1.0000
  C   C258      1.0  0.90918  0.61507  0.46121  1.0000
  H   H254      1.0  0.76572  0.56284  0.55351  1.0000
  H   H255      1.0  0.89377  0.56779  0.57374  1.0000
  H   H256      1.0  0.89750  0.68094  0.48384  1.0000
  H   H257      1.0  0.91295  0.62807  0.42985  1.0000
  S   S83       1.0  0.78454  0.58017  0.65978  1.0000
  C   C259      1.0  0.54271  0.00456  0.64620  1.0000
  C   C260      1.0  0.65136  0.92254  0.45953  1.0000
  H   H258      1.0  0.59613  0.93800  0.49449  1.0000
  H   H259      1.0  0.61913  0.88774  0.44296  1.0000
  S   S84       1.0  0.64976  0.64772  0.36577  1.0000
  H   H260      1.0  0.82225  0.71840  0.41111  1.0000
  C   C261      1.0  0.81883  0.75459  0.40452  1.0000
  C   C262      1.0  0.62267  0.99435  0.64555  1.0000
  C   C263      1.0  0.85180  0.84057  0.36903  1.0000
  S   S85       1.0  0.72384  0.90473  0.41527  1.0000
  S   S86       1.0  0.89329  0.69931  0.68286  1.0000
  N   N23       1.0  0.77751  0.76047  0.42056  1.0000
  H   H261      1.0  0.78984  0.99763  0.46756  1.0000
  H   H262      1.0  0.80665  0.88303  0.37985  1.0000
  H   H263      1.0  0.69801  0.71574  0.44565  1.0000
  H   H264      1.0  0.71056  0.59270  0.37981  1.0000
  H   H265      1.0  0.78983  0.55334  0.48256  1.0000
  H   H266      1.0  0.73179  0.67692  0.43983  1.0000
  H   H267      1.0  0.56518  0.97115  0.59534  1.0000
  H   H268      1.0  0.74173  0.81188  0.42597  1.0000
  C   C264      1.0  0.73870  0.71858  0.44809  1.0000
  C   C265      1.0  0.63844  0.95107  0.48872  1.0000
  H   H269      1.0  0.98806  0.70211  0.61647  1.0000
  C   C266      1.0  0.57562  0.98805  0.62609  1.0000
  Fe  Fe42      1.0  0.65650  0.83101  0.38170  1.0000
  C   C267      1.0  0.75805  0.52301  0.54204  1.0000
  C   C268      1.0  0.73461  0.01294  0.50269  1.0000
  C   C269      1.0  0.81051  0.84702  0.38649  1.0000
  S   S87       1.0  0.92242  0.52979  0.43352  1.0000
  C   C270      1.0  0.85631  0.79426  0.37826  1.0000
  Fe  Fe43      1.0  0.53872  0.73859  0.37565  1.0000
  H   H270      1.0  0.88775  0.78827  0.36439  1.0000
  S   S88       1.0  0.00673  0.68519  0.74828  1.0000
  S   S89       1.0  0.57203  0.63801  0.98153  1.0000
  Fe  Fe44      1.0  0.69083  0.78785  0.97207  1.0000
  S   S90       1.0  0.70297  0.72026  0.99723  1.0000
  S   S91       1.0  0.76545  0.87140  0.96739  1.0000
  Fe  Fe45      1.0  0.64837  0.66948  0.94541  1.0000
  S   S92       1.0  0.66922  0.61112  0.91325  1.0000
  S   S93       1.0  0.64170  0.73909  0.91751  1.0000
  C   C271      1.0  0.79457  0.98006  0.97723  1.0000
  Fe  Fe46      1.0  0.56996  0.71228  0.95841  1.0000
  S   S94       1.0  0.84892  0.59854  0.74851  1.0000
  S   S95       1.0  0.61869  0.76790  0.01074  1.0000
  C   C272      1.0  0.68987  0.62513  0.86238  1.0000
  C   C273      1.0  0.71499  0.59813  0.84432  1.0000
  C   C274      1.0  0.73629  0.61234  0.80501  1.0000
  C   C275      1.0  0.73213  0.65332  0.78359  1.0000
  C   C276      1.0  0.70484  0.67848  0.80101  1.0000
  C   C277      1.0  0.68370  0.66438  0.84029  1.0000
  H   H271      1.0  0.71930  0.56721  0.86113  1.0000
  H   H272      1.0  0.75648  0.59211  0.79158  1.0000
  H   H273      1.0  0.70093  0.70972  0.78432  1.0000
  H   H274      1.0  0.66324  0.68441  0.85349  1.0000
  C   C278      1.0  0.69754  0.91506  0.97331  1.0000
  C   C279      1.0  0.75144  0.92575  0.97240  1.0000
  H   H275      1.0  0.81323  0.80491  0.91334  1.0000
  N   N24       1.0  0.81510  0.74950  0.86963  1.0000
  C   C280      1.0  0.82587  0.71102  0.88633  1.0000
  C   C281      1.0  0.83399  0.77020  0.83187  1.0000
  C   C282      1.0  0.85583  0.69187  0.86491  1.0000
  C   C283      1.0  0.86389  0.75180  0.80956  1.0000
  C   C284      1.0  0.87497  0.71251  0.82629  1.0000
  C   C285      1.0  0.78488  0.77005  0.89306  1.0000
  H   H276      1.0  0.81017  0.69399  0.91601  1.0000
  H   H277      1.0  0.82482  0.80005  0.81828  1.0000
  H   H278      1.0  0.86341  0.66061  0.87790  1.0000
  H   H279      1.0  0.75354  0.73679  0.91199  1.0000
  H   H280      1.0  0.76272  0.78437  0.87271  1.0000
  C   C286      1.0  0.68680  0.95843  0.97967  1.0000
  Fe  Fe47      1.0  0.81372  0.64120  0.71177  1.0000
  H   H281      1.0  0.64501  0.94990  0.98040  1.0000
  H   H282      1.0  0.87697  0.76669  0.77898  1.0000
  H   H283      1.0  0.89772  0.69762  0.80908  1.0000
  H   H284      1.0  0.00383  0.77227  0.70174  1.0000
  Fe  Fe48      1.0  0.92612  0.65123  0.71506  1.0000
  S   S96       1.0  0.76335  0.67662  0.73628  1.0000
  H   H285      1.0  0.66404  0.87347  0.96887  1.0000
  H   H286      1.0  0.83636  0.98852  0.97661  1.0000
  H   H287      1.0  0.55951  0.57920  0.87713  1.0000
  C   C287      1.0  0.53111  0.53653  0.88720  1.0000
  H   H288      1.0  0.53655  0.53442  0.92062  1.0000
  C   C288      1.0  0.72988  0.01270  0.98478  1.0000
