data_image0
_chemical_formula_structural       CHSC3HCHSH2C2HCSHCHSHSCHCHFeS2FeS2FeSFeS2FeSFeS2FeS2FeSFeS3C3HC6H4C2HC5H3C6H3CH5C2NHC2HC2NH5CHC2HC2HC2H3CH2C2HCHCHSC2H2CNCNH2CHC2H6CH2C2H3CHNCHCH2CHCNH3SHCH2SFeHCSCH2C2HSHCH4CHC4NCSC2HCFeCH2CH2FeSC3FeH3C3H3FeC2SC3SHCSCHSHNSC3HCHCFeS2FeS2FeSFeS2Fe2S2Fe2S2FeS2FeS2FeSFeS3C2HC6H4CHC2HC3H4C6H3CNC3HCNHCH2CHNCHCHCH2CH3CHCH2CHC4HCHC2H3C2H5C3HCH4C2H2CH3CH2CH2C2H5NH4NHCH3SCHC5SCHC2H3C3H3CSCHSCHC3SHCHNS2CHFeHC2FeC4FeH2SCSCH4C6H4SC2HCSHCFeH4CHC2H2CHCHC2H2SC3HCSC2HCHFeC5FeCHCH2CSH2CH3SHSCFeH2FeHSCHC2FeNCHNCHCSHCSH2NCHC2HSCSHFeSHCH3CSHCHC6H3FeC2NH2C2S2H3CH2SCH2CNCHFeH3CH2CH2CSCH6FeSH2C3NC2H2CSH2CHSFeH4CSCSC3HC2FeCHC2HCFeCNC3H2C3H2SH2CSCHSCSFeSFeS2FeS2FeSFeS3CHFeSCSCSHC7H4C6H4C6H6SHCH2CHFeSNCHCHCHCHCNH2CH4CH2CFeN2C5HCH3C2FeCHSH2CH3C2HCH2C2H2SCSFeS2FeS2FeSFeS3CHFeSFeSHCH2C6H4C6H4C6H9NCHC6H6NCFeH2SHC4HFeC2HNC6H9CH2CSCSCFeC2NH3NHC2SCH2NCH3C2FeH3C5HCHFeH2CHNHFeSHSFeS2FeS2FeSFeS3FeS2FeS2FeCFeS3FeS2HFeSFeS3HSFeHFeSC6H5C5NH3C6H4C6HCH2C6H4C2HCHC6H4CHCSC2NC6H4CH3NC2HCNCH7CHNHCH3FeHCSHC4NC5SCH3C2H2SCHSHCNHC2H10C2HC4SH3CH6FeH2S2C2HNSHSH2FeS2FeS2FeSFeS3FeS2FeS2FeSFeS3FeS3FeSFeSHS3FeCFeSC6H6C4H4C6H4C6H4C6H4C4SC6H5C2H2NC6H2CH4CNC5H2CH2FeCSHCNHFeH2CH4CH2C2H3NHCHCH3N2HC2H2SCH2CHCHC2HC2HC2SHCH3C2HSH2CH2CSNH2CFeC3H2CHCSC2H2SCSCHCH3CHCSHCSCHC2H3SCHCFeHCH2C2HCFeCHNSHC3HC
_chemical_formula_sum              "C576 H576 S192 Fe96 N48"
_cell_length_a       53.786
_cell_length_b       54.0151
_cell_length_c       47.4832
_cell_angle_alpha    90.1563
_cell_angle_beta     89.893
_cell_angle_gamma    120.077

_space_group_name_H-M_alt    "P 1"
_space_group_IT_number       1

loop_
  _space_group_symop_operation_xyz
  'x, y, z'

loop_
  _atom_site_type_symbol
  _atom_site_label
  _atom_site_symmetry_multiplicity
  _atom_site_fract_x
  _atom_site_fract_y
  _atom_site_fract_z
  _atom_site_occupancy
  C   C1        1.0  0.46959  0.20071  0.02141  1.0000
  H   H1        1.0  0.48497  0.04780  0.46002  1.0000
  S   S1        1.0  0.49260  0.28202  0.04224  1.0000
  C   C2        1.0  0.47438  0.02831  0.47224  1.0000
  C   C3        1.0  0.49522  0.20079  0.01610  1.0000
  C   C4        1.0  0.46973  0.22558  0.03010  1.0000
  H   H2        1.0  0.44949  0.22486  0.03363  1.0000
  C   C5        1.0  0.49551  0.25133  0.03390  1.0000
  H   H3        1.0  0.44923  0.18119  0.01849  1.0000
  S   S2        1.0  0.49189  0.16798  0.00391  1.0000
  H   H4        1.0  0.50101  0.16179  0.06556  1.0000
  H   H5        1.0  0.50612  0.16058  0.11764  1.0000
  C   C6        1.0  0.45060  0.00881  0.98986  1.0000
  C   C7        1.0  0.47360  0.02986  0.50162  1.0000
  H   H6        1.0  0.46670  0.25238  0.97059  1.0000
  C   C8        1.0  0.49919  0.24237  0.95792  1.0000
  S   S3        1.0  0.51029  0.12387  0.94891  1.0000
  H   H7        1.0  0.48407  0.21979  0.95448  1.0000
  C   C9        1.0  0.47454  0.01271  0.97451  1.0000
  H   H8        1.0  0.50158  0.06863  0.57923  1.0000
  S   S4        1.0  0.48869  0.06317  0.51968  1.0000
  H   H9        1.0  0.50161  0.30300  0.98101  1.0000
  S   S5        1.0  0.49897  0.04587  0.95845  1.0000
  C   C10       1.0  0.48942  0.26064  0.96684  1.0000
  H   H10       1.0  0.50818  0.07156  0.63130  1.0000
  C   C11       1.0  0.50931  0.28931  0.97271  1.0000
  H   H11       1.0  0.44820  0.02706  0.99483  1.0000
  Fe  Fe1       1.0  0.15715  0.60289  0.37057  1.0000
  S   S6        1.0  0.15800  0.64349  0.38347  1.0000
  S   S7        1.0  0.14574  0.59180  0.32414  1.0000
  Fe  Fe2       1.0  0.16587  0.59082  0.43214  1.0000
  S   S8        1.0  0.16744  0.63050  0.44860  1.0000
  S   S9        1.0  0.16782  0.55846  0.46116  1.0000
  Fe  Fe3       1.0  0.12964  0.61760  0.41948  1.0000
  S   S10       1.0  0.08827  0.61458  0.43561  1.0000
  Fe  Fe4       1.0  0.19580  0.65243  0.41113  1.0000
  S   S11       1.0  0.12678  0.57683  0.40513  1.0000
  S   S12       1.0  0.19637  0.61300  0.39603  1.0000
  Fe  Fe5       1.0  0.38304  0.51831  0.08632  1.0000
  S   S13       1.0  0.35130  0.53253  0.10093  1.0000
  Fe  Fe6       1.0  0.17109  0.52121  0.18515  1.0000
  S   S14       1.0  0.15813  0.47613  0.17227  1.0000
  S   S15       1.0  0.18283  0.53046  0.23173  1.0000
  Fe  Fe7       1.0  0.16663  0.53700  0.12457  1.0000
  S   S16       1.0  0.15322  0.49320  0.10824  1.0000
  S   S17       1.0  0.17166  0.57227  0.09522  1.0000
  Fe  Fe8       1.0  0.12417  0.47774  0.14607  1.0000
  S   S18       1.0  0.07925  0.43892  0.14107  1.0000
  Fe  Fe9       1.0  0.18849  0.49582  0.13579  1.0000
  S   S19       1.0  0.21558  0.47722  0.11875  1.0000
  S   S20       1.0  0.13526  0.52160  0.16097  1.0000
  S   S21       1.0  0.20373  0.54083  0.15008  1.0000
  C   C12       1.0  0.10593  0.48471  0.23924  1.0000
  C   C13       1.0  0.04573  0.43589  0.15013  1.0000
  C   C14       1.0  0.04401  0.45705  0.16562  1.0000
  H   H12       1.0  0.06346  0.47649  0.17137  1.0000
  C   C15       1.0  0.31349  0.51628  0.10618  1.0000
  C   C16       1.0  0.30248  0.53291  0.11770  1.0000
  C   C17       1.0  0.27272  0.52125  0.12219  1.0000
  C   C18       1.0  0.25349  0.49275  0.11499  1.0000
  C   C19       1.0  0.26448  0.47614  0.10342  1.0000
  C   C20       1.0  0.29428  0.48776  0.09910  1.0000
  H   H13       1.0  0.31711  0.55499  0.12325  1.0000
  H   H14       1.0  0.26473  0.53429  0.13128  1.0000
  H   H15       1.0  0.24983  0.45408  0.09774  1.0000
  H   H16       1.0  0.30234  0.47467  0.09022  1.0000
  C   C21       1.0  0.05504  0.58974  0.41993  1.0000
  C   C22       1.0  0.05403  0.57523  0.39517  1.0000
  H   H17       1.0  0.07379  0.57957  0.38490  1.0000
  C   C23       1.0  0.17215  0.54131  0.01705  1.0000
  C   C24       1.0  0.17053  0.54357  0.04640  1.0000
  C   C25       1.0  0.17327  0.56850  0.05840  1.0000
  C   C26       1.0  0.17756  0.59110  0.04074  1.0000
  C   C27       1.0  0.17906  0.58880  0.01135  1.0000
  H   H18       1.0  0.13417  0.58205  0.26517  1.0000
  H   H19       1.0  0.16743  0.52610  0.05963  1.0000
  H   H20       1.0  0.17986  0.61054  0.04984  1.0000
  C   C28       1.0  0.15597  0.57417  0.29904  1.0000
  C   C29       1.0  0.17290  0.56218  0.30613  1.0000
  C   C30       1.0  0.18103  0.54905  0.28518  1.0000
  C   C31       1.0  0.17239  0.54777  0.25701  1.0000
  C   C32       1.0  0.15545  0.55975  0.24993  1.0000
  C   C33       1.0  0.14728  0.57283  0.27087  1.0000
  H   H21       1.0  0.17966  0.56294  0.32771  1.0000
  H   H22       1.0  0.19412  0.53981  0.29087  1.0000
  H   H23       1.0  0.14872  0.55903  0.22834  1.0000
  C   C34       1.0  0.13735  0.43665  0.23484  1.0000
  H   H24       1.0  0.08286  0.47848  0.23927  1.0000
  H   H25       1.0  0.11479  0.49343  0.26045  1.0000
  H   H26       1.0  0.14765  0.47539  0.25691  1.0000
  H   H27       1.0  0.07379  0.44181  0.20419  1.0000
  H   H28       1.0  0.11750  0.50201  0.22357  1.0000
  C   C35       1.0  0.09141  0.44026  0.21331  1.0000
  C   C36       1.0  0.13254  0.45889  0.24276  1.0000
  N   N1        1.0  0.10967  0.46035  0.23213  1.0000
  H   H29       1.0  0.23522  0.57978  0.09695  1.0000
  C   C37       1.0  0.23693  0.57149  0.07662  1.0000
  C   C38       1.0  0.23341  0.54408  0.07441  1.0000
  H   H30       1.0  0.22956  0.53147  0.09333  1.0000
  C   C39       1.0  0.10305  0.53891  0.05637  1.0000
  C   C40       1.0  0.23078  0.50438  0.04715  1.0000
  N   N2        1.0  0.23427  0.53307  0.04869  1.0000
  H   H31       1.0  0.25015  0.50477  0.05587  1.0000
  H   H32       1.0  0.22742  0.49610  0.02524  1.0000
  H   H33       1.0  0.21180  0.48899  0.05973  1.0000
  H   H34       1.0  0.09738  0.49653  0.05810  1.0000
  H   H35       1.0  0.10442  0.54176  0.07909  1.0000
  C   C41       1.0  0.09934  0.51360  0.04456  1.0000
  H   H36       1.0  0.17956  0.63886  0.28550  1.0000
  C   C42       1.0  0.02015  0.41084  0.14273  1.0000
  C   C43       1.0  0.24149  0.58768  0.05232  1.0000
  H   H37       1.0  0.24320  0.60854  0.05368  1.0000
  C   C44       1.0  0.10602  0.56092  0.03881  1.0000
  C   C45       1.0  0.02908  0.58402  0.43278  1.0000
  H   H38       1.0  0.15590  0.43600  0.24280  1.0000
  C   C46       1.0  0.11875  0.41603  0.21569  1.0000
  C   C47       1.0  0.09561  0.41781  0.20483  1.0000
  H   H39       1.0  0.08152  0.40253  0.18916  1.0000
  H   H40       1.0  0.12267  0.39914  0.20869  1.0000
  H   H41       1.0  0.10950  0.58088  0.04782  1.0000
  C   C48       1.0  0.02741  0.55554  0.38317  1.0000
  H   H42       1.0  0.02123  0.39430  0.13081  1.0000
  H   H43       1.0  0.51015  0.35367  0.15427  1.0000
  C   C49       1.0  0.10554  0.55739  0.00956  1.0000
  C   C50       1.0  0.22187  0.63692  0.31312  1.0000
  H   H44       1.0  0.21526  0.62588  0.29237  1.0000
  C   C51       1.0  0.24252  0.57637  0.02618  1.0000
  H   H45       1.0  0.24560  0.64715  0.31466  1.0000
  C   C52       1.0  0.23892  0.54888  0.02474  1.0000
  H   H46       1.0  0.21184  0.62046  0.32987  1.0000
  S   S22       1.0  0.38986  0.50008  0.04571  1.0000
  C   C53       1.0  0.19032  0.65597  0.30079  1.0000
  C   C54       1.0  0.09913  0.51086  0.01521  1.0000
  H   H47       1.0  0.36075  0.55176  0.16082  1.0000
  H   H48       1.0  0.17021  0.52202  0.00797  1.0000
  C   C55       1.0  0.38131  0.56766  0.16959  1.0000
  N   N3        1.0  0.21266  0.65812  0.31643  1.0000
  C   C56       1.0  0.01702  0.45280  0.17418  1.0000
  N   N4        1.0  0.10265  0.53278  0.99817  1.0000
  H   H49       1.0  0.02968  0.59523  0.45192  1.0000
  H   H50       1.0  0.36533  0.56405  0.21192  1.0000
  C   C57       1.0  0.38389  0.57462  0.19818  1.0000
  H   H51       1.0  0.23931  0.54013  0.00426  1.0000
  C   C58       1.0  0.03100  0.52210  0.45161  1.0000
  C   C59       1.0  0.17641  0.56389  0.99943  1.0000
  H   H52       1.0  0.03433  0.49340  0.42229  1.0000
  H   H53       1.0  0.01595  0.46908  0.18656  1.0000
  H   H54       1.0  0.10810  0.57467  0.99600  1.0000
  H   H55       1.0  0.02698  0.54496  0.36363  1.0000
  H   H56       1.0  0.03467  0.55392  0.48111  1.0000
  H   H57       1.0  0.24506  0.58840  0.00705  1.0000
  C   C60       1.0  0.04543  0.51015  0.43785  1.0000
  H   H58       1.0  0.11106  0.55047  0.46749  1.0000
  H   H59       1.0  0.18284  0.60654  0.99800  1.0000
  C   C61       1.0  0.04587  0.54432  0.47098  1.0000
  C   C62       1.0  0.07429  0.52011  0.44396  1.0000
  H   H60       1.0  0.51132  0.54642  0.27051  1.0000
  H   H61       1.0  0.08591  0.51117  0.43333  1.0000
  H   H62       1.0  0.11103  0.59466  0.48599  1.0000
  C   C63       1.0  0.50383  0.53722  0.24975  1.0000
  H   H63       1.0  0.09674  0.49133  0.00615  1.0000
  N   N5        1.0  0.07444  0.55464  0.47607  1.0000
  C   C64       1.0  0.08850  0.54243  0.46332  1.0000
  H   H64       1.0  0.50547  0.38882  0.12456  1.0000
  C   C65       1.0  0.40541  0.58114  0.15223  1.0000
  H   H65       1.0  0.40349  0.57580  0.13001  1.0000
  H   H66       1.0  0.50964  0.34590  0.21504  1.0000
  C   C66       1.0  0.41068  0.59500  0.20899  1.0000
  H   H67       1.0  0.47954  0.43161  0.01033  1.0000
  C   C67       1.0  0.43191  0.60126  0.16373  1.0000
  N   N6        1.0  0.43432  0.60778  0.19184  1.0000
  H   H68       1.0  0.46479  0.65112  0.20087  1.0000
  H   H69       1.0  0.41264  0.59992  0.23135  1.0000
  H   H70       1.0  0.43530  0.50342  0.00553  1.0000
  S   S23       1.0  0.39912  0.49530  0.11412  1.0000
  H   H71       1.0  0.46387  0.62567  0.22615  1.0000
  C   C68       1.0  0.46211  0.62947  0.20339  1.0000
  H   H72       1.0  0.43341  0.50683  0.26021  1.0000
  H   H73       1.0  0.43661  0.43566  0.99992  1.0000
  S   S24       1.0  0.50757  0.59534  0.40110  1.0000
  Fe  Fe10      1.0  0.50601  0.60579  0.35509  1.0000
  H   H74       1.0  0.50453  0.57809  0.45843  1.0000
  C   C69       1.0  0.45694  0.45488  0.00425  1.0000
  S   S25       1.0  0.42663  0.55830  0.08311  1.0000
  C   C70       1.0  0.48412  0.50521  0.01092  1.0000
  H   H75       1.0  0.46357  0.47301  0.08787  1.0000
  H   H76       1.0  0.50564  0.46617  0.09064  1.0000
  C   C71       1.0  0.46168  0.45317  0.08073  1.0000
  C   C72       1.0  0.48733  0.57725  0.19553  1.0000
  H   H77       1.0  0.48863  0.40548  0.47716  1.0000
  S   S26       1.0  0.40452  0.54156  0.48892  1.0000
  H   H78       1.0  0.45062  0.61120  0.15009  1.0000
  C   C73       1.0  0.48309  0.57276  0.45214  1.0000
  H   H79       1.0  0.42038  0.53107  0.17094  1.0000
  H   H80       1.0  0.40647  0.55446  0.43022  1.0000
  H   H81       1.0  0.48010  0.62878  0.19256  1.0000
  H   H82       1.0  0.46936  0.62290  0.46315  1.0000
  C   C74       1.0  0.46064  0.56096  0.47201  1.0000
  H   H83       1.0  0.40809  0.53633  0.22038  1.0000
  C   C75       1.0  0.43025  0.54773  0.21349  1.0000
  C   C76       1.0  0.48109  0.45244  0.01018  1.0000
  C   C77       1.0  0.45452  0.51057  0.26802  1.0000
  C   C78       1.0  0.43313  0.48296  0.99799  1.0000
  N   N7        1.0  0.45863  0.48100  0.00489  1.0000
  C   C79       1.0  0.48551  0.44911  0.08250  1.0000
  S   S27       1.0  0.44306  0.57062  0.26691  1.0000
  C   C80       1.0  0.46577  0.55981  0.17649  1.0000
  C   C81       1.0  0.45580  0.63645  0.42649  1.0000
  H   H84       1.0  0.46172  0.52806  0.28381  1.0000
  C   C82       1.0  0.43568  0.43173  0.06954  1.0000
  Fe  Fe11      1.0  0.43435  0.53857  0.04494  1.0000
  C   C83       1.0  0.49351  0.66491  0.39334  1.0000
  H   H85       1.0  0.41375  0.46545  0.00843  1.0000
  H   H86       1.0  0.45581  0.38180  0.05569  1.0000
  C   C84       1.0  0.48047  0.57984  0.22340  1.0000
  H   H87       1.0  0.49746  0.59278  0.23780  1.0000
  H   H88       1.0  0.43329  0.62518  0.43251  1.0000
  Fe  Fe12      1.0  0.48099  0.59756  0.29556  1.0000
  S   S28       1.0  0.40604  0.43728  0.06461  1.0000
  C   C85       1.0  0.43296  0.55448  0.46425  1.0000
  C   C86       1.0  0.43714  0.54484  0.18549  1.0000
  C   C87       1.0  0.43362  0.40578  0.06096  1.0000
  Fe  Fe13      1.0  0.40993  0.48064  0.07355  1.0000
  H   H89       1.0  0.44889  0.65214  0.38726  1.0000
  H   H90       1.0  0.45165  0.49101  0.27857  1.0000
  H   H91       1.0  0.50955  0.58857  0.18878  1.0000
  C   C88       1.0  0.45194  0.56562  0.23242  1.0000
  C   C89       1.0  0.48375  0.42354  0.07324  1.0000
  C   C90       1.0  0.46451  0.65141  0.40110  1.0000
  H   H92       1.0  0.46480  0.55722  0.49341  1.0000
  H   H93       1.0  0.41355  0.38895  0.05244  1.0000
  H   H94       1.0  0.44334  0.49252  0.21477  1.0000
  Fe  Fe14      1.0  0.44237  0.53436  0.10871  1.0000
  C   C91       1.0  0.50482  0.64868  0.43522  1.0000
  C   C92       1.0  0.47804  0.57795  0.42433  1.0000
  S   S29       1.0  0.45421  0.51824  0.07052  1.0000
  C   C93       1.0  0.45753  0.40164  0.06284  1.0000
  C   C94       1.0  0.45026  0.57101  0.41639  1.0000
  C   C95       1.0  0.42787  0.55948  0.43636  1.0000
  S   S30       1.0  0.48056  0.62285  0.33333  1.0000
  H   H95       1.0  0.44616  0.57501  0.39508  1.0000
  C   C96       1.0  0.47609  0.63530  0.44382  1.0000
  S   S31       1.0  0.47603  0.55616  0.14233  1.0000
  C   C97       1.0  0.46600  0.50700  0.21873  1.0000
  H   H96       1.0  0.48555  0.52600  0.01113  1.0000
  S   S32       1.0  0.46315  0.56585  0.00912  1.0000
  H   H97       1.0  0.50266  0.42211  0.42787  1.0000
  N   N8        1.0  0.47526  0.51868  0.24490  1.0000
  S   S33       1.0  0.50168  0.57677  0.31926  1.0000
  C   C98       1.0  0.48541  0.51455  0.19634  1.0000
  C   C99       1.0  0.50854  0.50345  0.01755  1.0000
  C   C100      1.0  0.50692  0.47684  0.01726  1.0000
  H   H98       1.0  0.47777  0.50640  0.17527  1.0000
  C   C101      1.0  0.51076  0.42108  0.47199  1.0000
  H   H99       1.0  0.16194  0.67267  0.29316  1.0000
  C   C102      1.0  0.09022  0.57863  0.49555  1.0000
  Fe  Fe15      1.0  0.16807  0.60445  0.87211  1.0000
  S   S34       1.0  0.14793  0.63077  0.88487  1.0000
  S   S35       1.0  0.18352  0.60766  0.82671  1.0000
  Fe  Fe16      1.0  0.17088  0.58866  0.93365  1.0000
  S   S36       1.0  0.15197  0.61452  0.95000  1.0000
  S   S37       1.0  0.17925  0.56051  0.96282  1.0000
  Fe  Fe17      1.0  0.12023  0.59442  0.91438  1.0000
  S   S38       1.0  0.07330  0.56935  0.92897  1.0000
  Fe  Fe18      1.0  0.18162  0.64809  0.91923  1.0000
  S   S39       1.0  0.13833  0.56712  0.89917  1.0000
  S   S40       1.0  0.20276  0.62342  0.90526  1.0000
  Fe  Fe19      1.0  0.42103  0.49161  0.57349  1.0000
  Fe  Fe20      1.0  0.36284  0.49128  0.57905  1.0000
  S   S41       1.0  0.38338  0.53740  0.56705  1.0000
  S   S42       1.0  0.31598  0.46623  0.59361  1.0000
  Fe  Fe21      1.0  0.40605  0.52659  0.53336  1.0000
  Fe  Fe22      1.0  0.41944  0.54379  0.59545  1.0000
  S   S43       1.0  0.38364  0.47948  0.54391  1.0000
  S   S44       1.0  0.39763  0.49824  0.60948  1.0000
  Fe  Fe23      1.0  0.15387  0.51265  0.68479  1.0000
  S   S45       1.0  0.16100  0.47639  0.67181  1.0000
  S   S46       1.0  0.14071  0.51174  0.73076  1.0000
  Fe  Fe24      1.0  0.15251  0.52880  0.62245  1.0000
  S   S47       1.0  0.15886  0.49355  0.60609  1.0000
  S   S48       1.0  0.14542  0.55756  0.59284  1.0000
  Fe  Fe25      1.0  0.12673  0.46688  0.63943  1.0000
  S   S49       1.0  0.08830  0.42350  0.62896  1.0000
  Fe  Fe26      1.0  0.19260  0.50696  0.63983  1.0000
  S   S50       1.0  0.23954  0.52192  0.62855  1.0000
  S   S51       1.0  0.11838  0.50142  0.65356  1.0000
  S   S52       1.0  0.18755  0.54401  0.65498  1.0000
  C   C103      1.0  0.05335  0.41397  0.64064  1.0000
  C   C104      1.0  0.03001  0.38790  0.63161  1.0000
  H   H100      1.0  0.03354  0.37471  0.61677  1.0000
  C   C105      1.0  0.29446  0.48177  0.60225  1.0000
  C   C106      1.0  0.30543  0.51134  0.60110  1.0000
  C   C107      1.0  0.28827  0.52306  0.60934  1.0000
  C   C108      1.0  0.25974  0.50543  0.61838  1.0000
  C   C109      1.0  0.24852  0.47580  0.61906  1.0000
  C   C110      1.0  0.26588  0.46409  0.61120  1.0000
  H   H101      1.0  0.32714  0.52521  0.59388  1.0000
  H   H102      1.0  0.29715  0.54598  0.60858  1.0000
  H   H103      1.0  0.22664  0.46192  0.62598  1.0000
  H   H104      1.0  0.25713  0.44119  0.61215  1.0000
  C   C111      1.0  0.42461  0.53831  0.93257  1.0000
  H   H105      1.0  0.40352  0.52333  0.92443  1.0000
  C   C112      1.0  0.04145  0.56022  0.90980  1.0000
  C   C113      1.0  0.04004  0.57879  0.89019  1.0000
  H   H106      1.0  0.05941  0.59829  0.88444  1.0000
  C   C114      1.0  0.15126  0.57838  0.53921  1.0000
  C   C115      1.0  0.15015  0.55656  0.55607  1.0000
  C   C116      1.0  0.15349  0.53498  0.54340  1.0000
  H   H107      1.0  0.06620  0.45077  0.66721  1.0000
  H   H108      1.0  0.13946  0.54679  0.82606  1.0000
  H   H109      1.0  0.14883  0.59524  0.54884  1.0000
  H   H110      1.0  0.15250  0.51793  0.55598  1.0000
  C   C117      1.0  0.17117  0.58065  0.80033  1.0000
  C   C118      1.0  0.18380  0.58774  0.77339  1.0000
  C   C119      1.0  0.17478  0.56702  0.75179  1.0000
  C   C120      1.0  0.15301  0.53891  0.75696  1.0000
  C   C121      1.0  0.14036  0.53184  0.78389  1.0000
  C   C122      1.0  0.14934  0.55256  0.80547  1.0000
  H   H111      1.0  0.20071  0.60940  0.76919  1.0000
  H   H112      1.0  0.18473  0.57277  0.73122  1.0000
  H   H113      1.0  0.12355  0.51016  0.78814  1.0000
  C   C123      1.0  0.38458  0.55262  0.68881  1.0000
  N   N9        1.0  0.22850  0.55045  0.55216  1.0000
  C   C124      1.0  0.04848  0.43081  0.65983  1.0000
  C   C125      1.0  0.03652  0.39678  0.72588  1.0000
  C   C126      1.0  0.36886  0.56406  0.64457  1.0000
  H   H114      1.0  0.37281  0.56023  0.62243  1.0000
  C   C127      1.0  0.35997  0.49564  0.67314  1.0000
  N   N10       1.0  0.37091  0.54370  0.66341  1.0000
  H   H115      1.0  0.39467  0.57494  0.69494  1.0000
  C   C128      1.0  0.35829  0.51556  0.65570  1.0000
  H   H116      1.0  0.34724  0.50843  0.63572  1.0000
  H   H117      1.0  0.35029  0.47346  0.66651  1.0000
  C   C129      1.0  0.38676  0.53330  0.70679  1.0000
  H   H118      1.0  0.39852  0.54064  0.72647  1.0000
  N   N11       1.0  0.05367  0.39105  0.70894  1.0000
  C   C130      1.0  0.37453  0.50467  0.69876  1.0000
  H   H119      1.0  0.37655  0.48961  0.71228  1.0000
  C   C131      1.0  0.08232  0.41055  0.70626  1.0000
  H   H120      1.0  0.41180  0.52810  0.97617  1.0000
  C   C132      1.0  0.09440  0.43677  0.72043  1.0000
  H   H121      1.0  0.38549  0.58649  0.64952  1.0000
  H   H122      1.0  0.34716  0.56168  0.64616  1.0000
  C   C133      1.0  0.04789  0.42294  0.74015  1.0000
  H   H123      1.0  0.11706  0.45232  0.71816  1.0000
  H   H124      1.0  0.23014  0.51422  0.53570  1.0000
  H   H125      1.0  0.42025  0.42903  0.54574  1.0000
  C   C134      1.0  0.07703  0.44303  0.73735  1.0000
  H   H126      1.0  0.25400  0.53266  0.56479  1.0000
  C   C135      1.0  0.23238  0.52565  0.55584  1.0000
  H   H127      1.0  0.21604  0.51000  0.57065  1.0000
  H   H128      1.0  0.10074  0.49502  0.58587  1.0000
  C   C136      1.0  0.07790  0.48265  0.59042  1.0000
  H   H129      1.0  0.08623  0.46354  0.74811  1.0000
  C   C137      1.0  0.06179  0.45427  0.58158  1.0000
  C   C138      1.0  0.15840  0.53554  0.51423  1.0000
  C   C139      1.0  0.15647  0.57910  0.51010  1.0000
  C   C140      1.0  0.22346  0.56253  0.57524  1.0000
  H   H130      1.0  0.22172  0.55353  0.59602  1.0000
  C   C141      1.0  0.22005  0.58642  0.57239  1.0000
  H   H131      1.0  0.21499  0.59523  0.59065  1.0000
  C   C142      1.0  0.22215  0.59815  0.54575  1.0000
  C   C143      1.0  0.03246  0.43854  0.58802  1.0000
  H   H132      1.0  0.07216  0.44424  0.57056  1.0000
  H   H133      1.0  0.09591  0.40619  0.69262  1.0000
  H   H134      1.0  0.16119  0.51889  0.50466  1.0000
  C   C144      1.0  0.42405  0.38820  0.61206  1.0000
  C   C145      1.0  0.04155  0.36336  0.69453  1.0000
  H   H135      1.0  0.42285  0.59251  0.92275  1.0000
  H   H136      1.0  0.01771  0.43305  0.68744  1.0000
  H   H137      1.0  0.40415  0.38619  0.60430  1.0000
  H   H138      1.0  0.03413  0.42772  0.75301  1.0000
  H   H139      1.0  0.42980  0.39097  0.52863  1.0000
  C   C146      1.0  0.16021  0.55776  0.49750  1.0000
  C   C147      1.0  0.40478  0.59053  0.86975  1.0000
  C   C148      1.0  0.23087  0.56199  0.52597  1.0000
  H   H140      1.0  0.09438  0.57089  0.51566  1.0000
  C   C149      1.0  0.42926  0.54093  0.96188  1.0000
  H   H141      1.0  0.05255  0.36560  0.67403  1.0000
  H   H142      1.0  0.41876  0.35097  0.58985  1.0000
  H   H143      1.0  0.01370  0.38147  0.72772  1.0000
  H   H144      1.0  0.21875  0.61619  0.54314  1.0000
  C   C150      1.0  0.01323  0.57284  0.87908  1.0000
  C   C151      1.0  0.03530  0.47852  0.61199  1.0000
  H   H145      1.0  0.07837  0.59019  0.49988  1.0000
  H   H146      1.0  0.22854  0.59442  0.50142  1.0000
  C   C152      1.0  0.02087  0.42075  0.67123  1.0000
  H   H147      1.0  0.40909  0.58416  0.84881  1.0000
  H   H148      1.0  0.15815  0.59650  0.49759  1.0000
  H   H149      1.0  0.11421  0.55053  0.95692  1.0000
  C   C153      1.0  0.10225  0.52944  0.96751  1.0000
  H   H150      1.0  0.11307  0.51733  0.96115  1.0000
  H   H151      1.0  0.02693  0.60151  0.94891  1.0000
  C   C154      1.0  0.01595  0.53518  0.91726  1.0000
  H   H152      1.0  0.22910  0.65983  0.84916  1.0000
  H   H153      1.0  0.07980  0.51846  0.95958  1.0000
  C   C155      1.0  0.06462  0.49496  0.60563  1.0000
  C   C156      1.0  0.22766  0.58595  0.52235  1.0000
  H   H154      1.0  0.07721  0.51700  0.61278  1.0000
  H   H155      1.0  0.38965  0.59869  0.86731  1.0000
  H   H156      1.0  0.04399  0.34791  0.70793  1.0000
  H   H157      1.0  0.23479  0.55246  0.50760  1.0000
  H   H158      1.0  0.39449  0.57070  0.88266  1.0000
  N   N12       1.0  0.43174  0.61256  0.88242  1.0000
  H   H159      1.0  0.02022  0.41636  0.58138  1.0000
  H   H160      1.0  0.01837  0.35461  0.68977  1.0000
  H   H161      1.0  0.18841  0.66256  0.82851  1.0000
  H   H162      1.0  0.01978  0.56110  0.97865  1.0000
  N   N13       1.0  0.01968  0.45061  0.60336  1.0000
  H   H163      1.0  0.43670  0.42757  0.63426  1.0000
  C   C157      1.0  0.43218  0.36840  0.60403  1.0000
  H   H164      1.0  0.43911  0.52920  0.64777  1.0000
  H   H165      1.0  0.01671  0.52073  0.93251  1.0000
  H   H166      1.0  0.42986  0.48168  0.97484  1.0000
  S   S53       1.0  0.43874  0.57959  0.62763  1.0000
  C   C158      1.0  0.43997  0.42955  0.55152  1.0000
  H   H167      1.0  0.02516  0.48812  0.62409  1.0000
  C   C159      1.0  0.47038  0.40767  0.55015  1.0000
  C   C160      1.0  0.45943  0.45096  0.56963  1.0000
  C   C161      1.0  0.45184  0.53734  0.69106  1.0000
  C   C162      1.0  0.50492  0.39964  0.63697  1.0000
  C   C163      1.0  0.43770  0.61064  0.91007  1.0000
  S   S54       1.0  0.43942  0.55327  0.87734  1.0000
  C   C164      1.0  0.45655  0.59067  0.68277  1.0000
  H   H168      1.0  0.50976  0.42996  0.57366  1.0000
  C   C165      1.0  0.47406  0.57474  0.92444  1.0000
  C   C166      1.0  0.45057  0.63537  0.86646  1.0000
  H   H169      1.0  0.44576  0.63697  0.84457  1.0000
  H   H170      1.0  0.50398  0.37912  0.64214  1.0000
  H   H171      1.0  0.46868  0.62908  0.94375  1.0000
  C   C167      1.0  0.46362  0.63134  0.92211  1.0000
  C   C168      1.0  0.44693  0.55532  0.91376  1.0000
  C   C169      1.0  0.50329  0.57648  0.62120  1.0000
  H   H172      1.0  0.49859  0.51308  0.63718  1.0000
  H   H173      1.0  0.49802  0.58680  0.60454  1.0000
  H   H174      1.0  0.50008  0.46767  0.59099  1.0000
  C   C170      1.0  0.50337  0.53501  0.63973  1.0000
  S   S55       1.0  0.45906  0.59233  0.80551  1.0000
  C   C171      1.0  0.49766  0.54848  0.61775  1.0000
  H   H175      1.0  0.48851  0.53704  0.59821  1.0000
  S   S56       1.0  0.48745  0.67019  0.80365  1.0000
  C   C172      1.0  0.45867  0.37224  0.61292  1.0000
  H   H176      1.0  0.46535  0.35745  0.60547  1.0000
  C   C173      1.0  0.48321  0.65440  0.90581  1.0000
  C   C174      1.0  0.47656  0.65663  0.87788  1.0000
  C   C175      1.0  0.47866  0.57746  0.95372  1.0000
  S   S57       1.0  0.49668  0.56227  0.82072  1.0000
  H   H177      1.0  0.47068  0.59922  0.72619  1.0000
  C   C176      1.0  0.46866  0.41457  0.63752  1.0000
  H   H178      1.0  0.45029  0.51676  0.69404  1.0000
  N   N14       1.0  0.47644  0.39501  0.62959  1.0000
  S   S58       1.0  0.45154  0.47557  0.58655  1.0000
  S   S59       1.0  0.47473  0.37828  0.54046  1.0000
  C   C177      1.0  0.44541  0.40796  0.54191  1.0000
  H   H179      1.0  0.49136  0.58802  0.91017  1.0000
  Fe  Fe27      1.0  0.47337  0.58008  0.84482  1.0000
  H   H180      1.0  0.49964  0.59281  0.96184  1.0000
  C   C178      1.0  0.44232  0.41141  0.62898  1.0000
  C   C179      1.0  0.48487  0.45120  0.57702  1.0000
  Fe  Fe28      1.0  0.48590  0.57843  0.78183  1.0000
  C   C180      1.0  0.49041  0.42979  0.56724  1.0000
  C   C181      1.0  0.45630  0.56068  0.97255  1.0000
  C   C182      1.0  0.46109  0.55708  0.71322  1.0000
  C   C183      1.0  0.44723  0.57079  0.66057  1.0000
  Fe  Fe29      1.0  0.49958  0.63532  0.80911  1.0000
  H   H181      1.0  0.48320  0.43323  0.64978  1.0000
  H   H182      1.0  0.45847  0.61140  0.67958  1.0000
  S   S60       1.0  0.47066  0.54773  0.74509  1.0000
  C   C184      1.0  0.46339  0.58381  0.70915  1.0000
  S   S61       1.0  0.44444  0.53808  0.56068  1.0000
  C   C185      1.0  0.44511  0.54423  0.66483  1.0000
  H   H183      1.0  0.50363  0.67034  0.91467  1.0000
  H   H184      1.0  0.01229  0.58778  0.86460  1.0000
  H   H185      1.0  0.29817  0.73895  0.40125  1.0000
  H   H186      1.0  0.23087  0.71199  0.46265  1.0000
  C   C186      1.0  0.26220  0.72234  0.42987  1.0000
  C   C187      1.0  0.29042  0.74207  0.42122  1.0000
  C   C188      1.0  0.30873  0.76593  0.43808  1.0000
  C   C189      1.0  0.29890  0.77063  0.46374  1.0000
  C   C190      1.0  0.27071  0.75086  0.47243  1.0000
  C   C191      1.0  0.25252  0.72679  0.45573  1.0000
  H   H187      1.0  0.33025  0.78095  0.43101  1.0000
  H   H188      1.0  0.22595  0.71478  0.35747  1.0000
  H   H189      1.0  0.18526  0.71109  0.32937  1.0000
  H   H190      1.0  0.35022  0.77701  0.03341  1.0000
  S   S62       1.0  0.32049  0.80102  0.48542  1.0000
  C   C192      1.0  0.21603  0.69858  0.34115  1.0000
  C   C193      1.0  0.19318  0.69646  0.32541  1.0000
  H   H191      1.0  0.24259  0.68022  0.34948  1.0000
  C   C194      1.0  0.22540  0.67897  0.33651  1.0000
  S   S63       1.0  0.23989  0.69328  0.40701  1.0000
  H   H192      1.0  0.33881  0.79413  0.07714  1.0000
  C   C195      1.0  0.35563  0.78862  0.07715  1.0000
  Fe  Fe30      1.0  0.36837  0.83510  0.48363  1.0000
  H   H193      1.0  0.50826  0.92317  0.37570  1.0000
  H   H194      1.0  0.50008  0.67630  0.37344  1.0000
  H   H195      1.0  0.40995  0.97807  0.00844  1.0000
  H   H196      1.0  0.38898  0.74209  0.02865  1.0000
  C   C196      1.0  0.50900  0.75712  0.26466  1.0000
  H   H197      1.0  0.41431  0.77904  0.02014  1.0000
  C   C197      1.0  0.50770  0.71194  0.27524  1.0000
  C   C198      1.0  0.36230  0.77904  0.05240  1.0000
  H   H198      1.0  0.37792  0.76269  0.00793  1.0000
  H   H199      1.0  0.36675  0.79958  0.12088  1.0000
  C   C199      1.0  0.37116  0.79153  0.10167  1.0000
  H   H200      1.0  0.39634  0.78859  0.32323  1.0000
  C   C200      1.0  0.47782  0.85075  0.38430  1.0000
  H   H201      1.0  0.50090  0.89729  0.11220  1.0000
  C   C201      1.0  0.44101  0.78116  0.36436  1.0000
  C   C202      1.0  0.47645  0.91560  0.34445  1.0000
  H   H202      1.0  0.43983  0.90556  0.31844  1.0000
  H   H203      1.0  0.50413  0.78987  0.33902  1.0000
  S   S64       1.0  0.49932  0.77692  0.24151  1.0000
  C   C203      1.0  0.42885  0.98096  0.99742  1.0000
  C   C204      1.0  0.46042  0.00149  0.45855  1.0000
  C   C205      1.0  0.44865  0.91035  0.33961  1.0000
  H   H204      1.0  0.48822  0.71923  0.23880  1.0000
  C   C206      1.0  0.44070  0.78046  0.31434  1.0000
  S   S65       1.0  0.45905  0.84437  0.43917  1.0000
  C   C207      1.0  0.48253  0.78668  0.33919  1.0000
  C   C208      1.0  0.45287  0.84261  0.07880  1.0000
  H   H205      1.0  0.42187  0.86529  0.12728  1.0000
  C   C209      1.0  0.46819  0.83495  0.09740  1.0000
  H   H206      1.0  0.47979  0.78753  0.38449  1.0000
  Fe  Fe31      1.0  0.47410  0.84989  0.20911  1.0000
  C   C210      1.0  0.50045  0.72854  0.25783  1.0000
  C   C211      1.0  0.43190  0.91003  0.36224  1.0000
  C   C212      1.0  0.39162  0.76367  0.02589  1.0000
  C   C213      1.0  0.46840  0.78429  0.31387  1.0000
  C   C214      1.0  0.46882  0.78516  0.36465  1.0000
  Fe  Fe32      1.0  0.42958  0.85320  0.46638  1.0000
  C   C215      1.0  0.43644  0.85386  0.08968  1.0000
  H   H207      1.0  0.41129  0.83619  0.40472  1.0000
  C   C216      1.0  0.44328  0.91498  0.38949  1.0000
  H   H208      1.0  0.46042  0.00057  0.43580  1.0000
  H   H209      1.0  0.47887  0.78554  0.29395  1.0000
  C   C217      1.0  0.48165  0.92429  0.42289  1.0000
  S   S66       1.0  0.44312  0.84792  0.30740  1.0000
  H   H210      1.0  0.50549  0.93595  0.42340  1.0000
  H   H211      1.0  0.48096  0.82621  0.08911  1.0000
  C   C218      1.0  0.46679  0.83810  0.12672  1.0000
  H   H212      1.0  0.40571  0.78770  0.11996  1.0000
  H   H213      1.0  0.47453  0.93698  0.43555  1.0000
  H   H214      1.0  0.41006  0.90546  0.35883  1.0000
  S   S67       1.0  0.42750  0.94275  0.45582  1.0000
  H   H215      1.0  0.47356  0.90315  0.43306  1.0000
  S   S68       1.0  0.38568  0.84276  0.01580  1.0000
  C   C219      1.0  0.48705  0.92021  0.37201  1.0000
  Fe  Fe33      1.0  0.42851  0.84577  0.00984  1.0000
  H   H216      1.0  0.39226  0.77981  0.35982  1.0000
  H   H217      1.0  0.42998  0.91428  0.40703  1.0000
  Fe  Fe34      1.0  0.47450  0.85128  0.27384  1.0000
  H   H218      1.0  0.40604  0.83880  0.35344  1.0000
  S   S69       1.0  0.45696  0.81572  0.24219  1.0000
  C   C220      1.0  0.39299  0.78475  0.10120  1.0000
  H   H219      1.0  0.41735  0.77183  0.07541  1.0000
  C   C221      1.0  0.39940  0.77569  0.07597  1.0000
  C   C222      1.0  0.39814  0.77447  0.33914  1.0000
  Fe  Fe35      1.0  0.41436  0.89959  0.47583  1.0000
  N   N15       1.0  0.42743  0.77909  0.33937  1.0000
  C   C223      1.0  0.45510  0.84567  0.40248  1.0000
  H   H220      1.0  0.49220  0.85544  0.34097  1.0000
  N   N16       1.0  0.47063  0.92027  0.39404  1.0000
  C   C224      1.0  0.47467  0.85153  0.35491  1.0000
  H   H221      1.0  0.49787  0.85410  0.39298  1.0000
  C   C225      1.0  0.44993  0.84888  0.13761  1.0000
  S   S70       1.0  0.45340  0.83606  0.04239  1.0000
  H   H222      1.0  0.43075  0.78055  0.38426  1.0000
  C   C226      1.0  0.44873  0.84723  0.34376  1.0000
  S   S71       1.0  0.39599  0.86098  0.44724  1.0000
  H   H223      1.0  0.38259  0.75180  0.33397  1.0000
  H   H224      1.0  0.47842  0.83185  0.14088  1.0000
  N   N17       1.0  0.38414  0.77297  0.05201  1.0000
  C   C227      1.0  0.42924  0.84116  0.39112  1.0000
  H   H225      1.0  0.43002  0.77899  0.29453  1.0000
  C   C228      1.0  0.43489  0.85685  0.11898  1.0000
  C   C229      1.0  0.44617  0.97592  0.47408  1.0000
  H   H226      1.0  0.42453  0.85980  0.07556  1.0000
  S   S72       1.0  0.48812  0.88528  0.24085  1.0000
  C   C230      1.0  0.42617  0.84220  0.36196  1.0000
  S   S73       1.0  0.44640  0.85224  0.17419  1.0000
  H   H227      1.0  0.50107  0.69009  0.26955  1.0000
  Fe  Fe36      1.0  0.50094  0.82026  0.24339  1.0000
  S   S74       1.0  0.44946  0.89315  0.49287  1.0000
  H   H228      1.0  0.48918  0.91481  0.32706  1.0000
  C   C231      1.0  0.51010  0.91540  0.12653  1.0000
  H   H229      1.0  0.51100  0.94496  0.09566  1.0000
  H   H230      1.0  0.26276  0.75430  0.49214  1.0000
  H   H231      1.0  0.51169  0.89116  0.16179  1.0000
  C   C232      1.0  0.18018  0.67501  0.30508  1.0000
  S   S75       1.0  0.38615  0.85509  0.94776  1.0000
  H   H232      1.0  0.37039  0.85593  0.60419  1.0000
  C   C233      1.0  0.37283  0.81008  0.59386  1.0000
  H   H233      1.0  0.38423  0.82169  0.61261  1.0000
  C   C234      1.0  0.24325  0.71643  0.94045  1.0000
  C   C235      1.0  0.25723  0.74655  0.94056  1.0000
  C   C236      1.0  0.28576  0.76324  0.95036  1.0000
  C   C237      1.0  0.30051  0.74996  0.96068  1.0000
  C   C238      1.0  0.28647  0.71984  0.96064  1.0000
  C   C239      1.0  0.25812  0.70318  0.95047  1.0000
  H   H234      1.0  0.24589  0.75706  0.93305  1.0000
  H   H235      1.0  0.29611  0.78634  0.95043  1.0000
  H   H236      1.0  0.33207  0.83506  0.59774  1.0000
  Fe  Fe37      1.0  0.37239  0.81649  0.97571  1.0000
  C   C240      1.0  0.34188  0.80349  0.55548  1.0000
  C   C241      1.0  0.35364  0.84267  0.58844  1.0000
  N   N18       1.0  0.35638  0.81828  0.57900  1.0000
  H   H237      1.0  0.35685  0.85704  0.57036  1.0000
  H   H238      1.0  0.32864  0.80985  0.54385  1.0000
  C   C242      1.0  0.37617  0.78734  0.58448  1.0000
  C   C243      1.0  0.36187  0.77246  0.56018  1.0000
  S   S76       1.0  0.20761  0.69646  0.92693  1.0000
  S   S77       1.0  0.33603  0.76955  0.97461  1.0000
  H   H239      1.0  0.24768  0.68007  0.95067  1.0000
  H   H240      1.0  0.38259  0.96338  0.91589  1.0000
  H   H241      1.0  0.39016  0.78169  0.59579  1.0000
  C   C244      1.0  0.34435  0.78034  0.54572  1.0000
  H   H242      1.0  0.33323  0.76910  0.52666  1.0000
  H   H243      1.0  0.36452  0.75501  0.55243  1.0000
  S   S78       1.0  0.38332  0.87473  0.51045  1.0000
  C   C245      1.0  0.22486  0.72858  0.85838  1.0000
  H   H244      1.0  0.22346  0.74769  0.86182  1.0000
  H   H245      1.0  0.26415  0.74442  0.88152  1.0000
  C   C246      1.0  0.24782  0.72655  0.86958  1.0000
  N   N19       1.0  0.24891  0.70190  0.86662  1.0000
  C   C247      1.0  0.20330  0.70542  0.84359  1.0000
  H   H246      1.0  0.18509  0.70644  0.83522  1.0000
  Fe  Fe38      1.0  0.40364  0.88165  0.98735  1.0000
  H   H247      1.0  0.29759  0.70930  0.96865  1.0000
  H   H248      1.0  0.39872  0.80151  0.83952  1.0000
  H   H249      1.0  0.28548  0.69694  0.86280  1.0000
  C   C248      1.0  0.27230  0.69933  0.87944  1.0000
  H   H250      1.0  0.26321  0.68035  0.89349  1.0000
  H   H251      1.0  0.38505  0.94966  0.94991  1.0000
  C   C249      1.0  0.20508  0.68074  0.83993  1.0000
  H   H252      1.0  0.28653  0.71827  0.89263  1.0000
  H   H253      1.0  0.38816  0.91102  0.92641  1.0000
  C   C250      1.0  0.39762  0.96411  0.93226  1.0000
  S   S79       1.0  0.40117  0.82514  0.50153  1.0000
  C   C251      1.0  0.22814  0.67931  0.85170  1.0000
  H   H254      1.0  0.49170  0.67432  0.86485  1.0000
  H   H255      1.0  0.43930  0.77146  0.82569  1.0000
  H   H256      1.0  0.40873  0.82413  0.88708  1.0000
  H   H257      1.0  0.45867  0.00523  0.53986  1.0000
  H   H258      1.0  0.45043  0.99843  0.91207  1.0000
  H   H259      1.0  0.49386  0.84147  0.89202  1.0000
  Fe  Fe39      1.0  0.41775  0.86612  0.52614  1.0000
  S   S80       1.0  0.42600  0.87462  0.57316  1.0000
  H   H260      1.0  0.40960  0.98604  0.94134  1.0000
  H   H261      1.0  0.48355  0.98410  0.89121  1.0000
  C   C252      1.0  0.45954  0.00429  0.51715  1.0000
  C   C253      1.0  0.43083  0.95679  0.98983  1.0000
  C   C254      1.0  0.40882  0.92712  0.91812  1.0000
  N   N20       1.0  0.41728  0.95553  0.92016  1.0000
  C   C255      1.0  0.44619  0.97745  0.50350  1.0000
  C   C256      1.0  0.41870  0.82113  0.84343  1.0000
  H   H262      1.0  0.49877  0.94686  0.68454  1.0000
  H   H263      1.0  0.42042  0.89596  0.90447  1.0000
  C   C257      1.0  0.45542  0.96091  0.97562  1.0000
  S   S81       1.0  0.43332  0.81534  0.78933  1.0000
  H   H264      1.0  0.43606  0.87974  0.63247  1.0000
  H   H265      1.0  0.49540  0.99134  0.95607  1.0000
  C   C258      1.0  0.50470  0.70602  0.79087  1.0000
  H   H266      1.0  0.50759  0.91254  0.59653  1.0000
  S   S82       1.0  0.48328  0.86453  0.72653  1.0000
  Fe  Fe40      1.0  0.49405  0.83634  0.70059  1.0000
  H   H267      1.0  0.50110  0.93985  0.63490  1.0000
  H   H268      1.0  0.43516  0.95798  0.51570  1.0000
  H   H269      1.0  0.45730  0.94267  0.96942  1.0000
  H   H270      1.0  0.46458  0.70564  0.78692  1.0000
  C   C259      1.0  0.49917  0.83161  0.87480  1.0000
  S   S83       1.0  0.45982  0.87447  0.90923  1.0000
  C   C260      1.0  0.46491  0.83201  0.60320  1.0000
  S   S84       1.0  0.41492  0.81806  0.97115  1.0000
  C   C261      1.0  0.44209  0.86038  0.59523  1.0000
  C   C262      1.0  0.48767  0.71838  0.78477  1.0000
  C   C263      1.0  0.46490  0.85869  0.82694  1.0000
  H   H271      1.0  0.46410  0.78131  0.79727  1.0000
  C   C264      1.0  0.42699  0.91846  0.90603  1.0000
  C   C265      1.0  0.45232  0.84296  0.58477  1.0000
  Fe  Fe41      1.0  0.47207  0.83188  0.76068  1.0000
  C   C266      1.0  0.44350  0.97586  0.91002  1.0000
  H   H272      1.0  0.45072  0.83808  0.56250  1.0000
  C   C267      1.0  0.46239  0.96792  0.89826  1.0000
  C   C268      1.0  0.44413  0.86641  0.62422  1.0000
  H   H273      1.0  0.46849  0.93232  0.88770  1.0000
  C   C269      1.0  0.42431  0.83390  0.87031  1.0000
  Fe  Fe42      1.0  0.42936  0.85812  0.94636  1.0000
  C   C270      1.0  0.45403  0.93899  0.89635  1.0000
  N   N21       1.0  0.48376  0.79752  0.83686  1.0000
  C   C271      1.0  0.50017  0.74699  0.77559  1.0000
  C   C272      1.0  0.47729  0.80933  0.85923  1.0000
  C   C273      1.0  0.47046  0.87146  0.85368  1.0000
  H   H274      1.0  0.48671  0.75595  0.77057  1.0000
  H   H275      1.0  0.47314  0.81880  0.59496  1.0000
  C   C274      1.0  0.43925  0.83323  0.82184  1.0000
  C   C275      1.0  0.46086  0.77498  0.81984  1.0000
  C   C276      1.0  0.45043  0.85890  0.87553  1.0000
  H   H276      1.0  0.49064  0.89090  0.85753  1.0000
  H   H277      1.0  0.45514  0.80203  0.86480  1.0000
  S   S85       1.0  0.48502  0.82567  0.65405  1.0000
  H   H278      1.0  0.46100  0.75459  0.82217  1.0000
  H   H279      1.0  0.45835  0.86035  0.66490  1.0000
  C   C277      1.0  0.45666  0.85541  0.64265  1.0000
  S   S86       1.0  0.44717  0.88613  0.98456  1.0000
  C   C278      1.0  0.46731  0.83833  0.63215  1.0000
  H   H280      1.0  0.48057  0.86855  0.81032  1.0000
  S   S87       1.0  0.47833  0.80144  0.73317  1.0000
  C   C279      1.0  0.47705  0.98865  0.96798  1.0000
  S   S88       1.0  0.40092  0.92191  0.99543  1.0000
  Fe  Fe43      1.0  0.54532  0.16856  0.48475  1.0000
  S   S89       1.0  0.83334  0.28947  0.18706  1.0000
  Fe  Fe44      1.0  0.61419  0.09648  0.23954  1.0000
  S   S90       1.0  0.58843  0.11884  0.23998  1.0000
  S   S91       1.0  0.58535  0.05158  0.25740  1.0000
  Fe  Fe45      1.0  0.66821  0.15246  0.22030  1.0000
  S   S92       1.0  0.64536  0.17757  0.21957  1.0000
  S   S93       1.0  0.71645  0.17263  0.21233  1.0000
  Fe  Fe46      1.0  0.62617  0.15545  0.26066  1.0000
  S   S94       1.0  0.62192  0.17992  0.29743  1.0000
  Fe  Fe47      1.0  0.60968  0.13828  0.19885  1.0000
  S   S95       1.0  0.57929  0.13803  0.16576  1.0000
  S   S96       1.0  0.65106  0.13255  0.26297  1.0000
  S   S97       1.0  0.63343  0.11393  0.19678  1.0000
  C   C280      1.0  0.52899  0.12187  0.35706  1.0000
  H   H281      1.0  0.70241  0.20869  0.24939  1.0000
  Fe  Fe48      1.0  0.56748  0.13328  0.45412  1.0000
  S   S98       1.0  0.58186  0.11817  0.41590  1.0000
  C   C281      1.0  0.54662  0.18319  0.05822  1.0000
  S   S99       1.0  0.60530  0.15266  0.03520  1.0000
  C   C282      1.0  0.52215  0.17093  0.07514  1.0000
  S   S100      1.0  0.58974  0.17574  0.47622  1.0000
  H   H282      1.0  0.55462  0.18132  0.13876  1.0000
  C   C283      1.0  0.83276  0.28112  0.11231  1.0000
  C   C284      1.0  0.58641  0.13734  0.12961  1.0000
  C   C285      1.0  0.61440  0.14802  0.11955  1.0000
  C   C286      1.0  0.61983  0.15154  0.09038  1.0000
  C   C287      1.0  0.59732  0.14422  0.07120  1.0000
  C   C288      1.0  0.56921  0.13219  0.08130  1.0000
  C   C289      1.0  0.56381  0.12887  0.11038  1.0000
  H   H283      1.0  0.63198  0.15461  0.13425  1.0000
  H   H284      1.0  0.64163  0.16067  0.08270  1.0000
  H   H285      1.0  0.55168  0.12630  0.06684  1.0000
  H   H286      1.0  0.54208  0.12043  0.11805  1.0000
  C   C290      1.0  0.61252  0.16358  0.33086  1.0000
  C   C291      1.0  0.60628  0.17698  0.35295  1.0000
  C   C292      1.0  0.59748  0.16370  0.37945  1.0000
  C   C293      1.0  0.59518  0.13707  0.38403  1.0000
  C   C294      1.0  0.60232  0.12415  0.36217  1.0000
  C   C295      1.0  0.61078  0.13725  0.33564  1.0000
  H   H287      1.0  0.60769  0.19743  0.34940  1.0000
  H   H288      1.0  0.59207  0.17384  0.39618  1.0000
  H   H289      1.0  0.60067  0.10359  0.36564  1.0000
  H   H290      1.0  0.61579  0.12689  0.31884  1.0000
  C   C296      1.0  0.79934  0.25868  0.19448  1.0000
  C   C297      1.0  0.77275  0.25789  0.19372  1.0000
  C   C298      1.0  0.74672  0.23183  0.19910  1.0000
  C   C299      1.0  0.74732  0.20659  0.20513  1.0000
  C   C300      1.0  0.77391  0.20780  0.20573  1.0000
  C   C301      1.0  0.79949  0.23343  0.20058  1.0000
  H   H291      1.0  0.77226  0.27720  0.18889  1.0000
  H   H292      1.0  0.72633  0.23124  0.19837  1.0000
  H   H293      1.0  0.77481  0.18863  0.21023  1.0000
  H   H294      1.0  0.81969  0.23360  0.20119  1.0000
  H   H295      1.0  0.54154  0.15060  0.32163  1.0000
  H   H296      1.0  0.52038  0.09037  0.38910  1.0000
  S   S101      1.0  0.52232  0.11497  0.01444  1.0000
  H   H297      1.0  0.76941  0.22691  0.13680  1.0000
  C   C302      1.0  0.55252  0.18227  0.11611  1.0000
  H   H298      1.0  0.68180  0.20682  0.31331  1.0000
  H   H299      1.0  0.62015  0.20437  0.09822  1.0000
  C   C303      1.0  0.54402  0.25808  0.49472  1.0000
  H   H300      1.0  0.71148  0.23577  0.27598  1.0000
  Fe  Fe49      1.0  0.85285  0.33610  0.17349  1.0000
  S   S102      1.0  0.54133  0.20821  0.47696  1.0000
  N   N22       1.0  0.57640  0.19411  0.09926  1.0000
  C   C304      1.0  0.82239  0.29765  0.09993  1.0000
  H   H301      1.0  0.55276  0.12030  0.29125  1.0000
  C   C305      1.0  0.60506  0.20732  0.11197  1.0000
  H   H302      1.0  0.82145  0.24286  0.13587  1.0000
  C   C306      1.0  0.52159  0.25173  0.02915  1.0000
  H   H303      1.0  0.53746  0.04787  0.31019  1.0000
  C   C307      1.0  0.78434  0.24648  0.12590  1.0000
  H   H304      1.0  0.60453  0.19720  0.13253  1.0000
  C   C308      1.0  0.53282  0.07971  0.34958  1.0000
  N   N23       1.0  0.54148  0.08793  0.32239  1.0000
  H   H305      1.0  0.52500  0.13553  0.37092  1.0000
  H   H306      1.0  0.57298  0.07860  0.30712  1.0000
  C   C309      1.0  0.58209  0.01775  0.25040  1.0000
  H   H307      1.0  0.59261  0.20369  0.05720  1.0000
  H   H308      1.0  0.75210  0.25697  0.11482  1.0000
  H   H309      1.0  0.54450  0.18352  0.03557  1.0000
  H   H310      1.0  0.79476  0.31637  0.06799  1.0000
  C   C310      1.0  0.78352  0.30694  0.08821  1.0000
  H   H311      1.0  0.73888  0.22957  0.26173  1.0000
  H   H312      1.0  0.69032  0.13683  0.34387  1.0000
  C   C311      1.0  0.81355  0.25534  0.12527  1.0000
  Fe  Fe50      1.0  0.52355  0.32849  0.05421  1.0000
  N   N24       1.0  0.79367  0.28871  0.10046  1.0000
  N   N25       1.0  0.70976  0.19718  0.28971  1.0000
  C   C312      1.0  0.69153  0.19348  0.31151  1.0000
  C   C313      1.0  0.72111  0.17959  0.28693  1.0000
  C   C314      1.0  0.68463  0.17203  0.33153  1.0000
  C   C315      1.0  0.71441  0.15771  0.30638  1.0000
  C   C316      1.0  0.69604  0.15395  0.32882  1.0000
  H   H313      1.0  0.73500  0.18207  0.26924  1.0000
  C   C317      1.0  0.57374  0.19477  0.07065  1.0000
  H   H314      1.0  0.55070  0.26529  0.47335  1.0000
  H   H315      1.0  0.67006  0.16914  0.34870  1.0000
  H   H316      1.0  0.83751  0.31786  0.09020  1.0000
  C   C318      1.0  0.71594  0.21895  0.26824  1.0000
  C   C319      1.0  0.54969  0.07093  0.30465  1.0000
  Fe  Fe51      1.0  0.56929  0.14096  0.00394  1.0000
  C   C320      1.0  0.53821  0.13029  0.32944  1.0000
  H   H317      1.0  0.85563  0.28867  0.11259  1.0000
  S   S103      1.0  0.52315  0.12722  0.45953  1.0000
  H   H318      1.0  0.72300  0.14346  0.30370  1.0000
  H   H319      1.0  0.78817  0.32484  0.10288  1.0000
  C   C321      1.0  0.77473  0.26367  0.11356  1.0000
  H   H320      1.0  0.54170  0.27151  0.03189  1.0000
  H   H321      1.0  0.62163  0.03357  0.22732  1.0000
  H   H322      1.0  0.61344  0.23051  0.11531  1.0000
  C   C322      1.0  0.54452  0.11302  0.31232  1.0000
  C   C323      1.0  0.52504  0.17035  0.10430  1.0000
  H   H323      1.0  0.53178  0.06060  0.35808  1.0000
  C   C324      1.0  0.60279  0.01477  0.23530  1.0000
  H   H324      1.0  0.54547  0.07256  0.28200  1.0000
  H   H325      1.0  0.56308  0.33072  0.00005  1.0000
  C   C325      1.0  0.52145  0.22645  0.02020  1.0000
  C   C326      1.0  0.52623  0.09642  0.36723  1.0000
  H   H326      1.0  0.54148  0.22696  0.01610  1.0000
  H   H327      1.0  0.76012  0.29483  0.08369  1.0000
  S   S104      1.0  0.56509  0.10926  0.49354  1.0000
  C   C327      1.0  0.70365  0.21789  0.78684  1.0000
  S   S105      1.0  0.81966  0.29259  0.64331  1.0000
  Fe  Fe52      1.0  0.64330  0.09383  0.71589  1.0000
  S   S106      1.0  0.60641  0.09772  0.73244  1.0000
  S   S107      1.0  0.63903  0.05221  0.69948  1.0000
  Fe  Fe53      1.0  0.68635  0.15900  0.72304  1.0000
  S   S108      1.0  0.65200  0.16701  0.74029  1.0000
  S   S109      1.0  0.73368  0.19355  0.72685  1.0000
  Fe  Fe54      1.0  0.63713  0.12686  0.76555  1.0000
  S   S110      1.0  0.63120  0.12059  0.81297  1.0000
  Fe  Fe55      1.0  0.62465  0.13731  0.70543  1.0000
  S   S111      1.0  0.59383  0.14419  0.67867  1.0000
  S   S112      1.0  0.67316  0.12045  0.75048  1.0000
  S   S113      1.0  0.65992  0.13171  0.68667  1.0000
  C   C328      1.0  0.85553  0.32314  0.56820  1.0000
  H   H328      1.0  0.72921  0.18824  0.81928  1.0000
  Fe  Fe56      1.0  0.55801  0.14865  0.94214  1.0000
  S   S114      1.0  0.57196  0.16644  0.89790  1.0000
  Fe  Fe57      1.0  0.58300  0.15108  0.51622  1.0000
  S   S115      1.0  0.61906  0.16493  0.54774  1.0000
  H   H329      1.0  0.69423  0.15697  0.81311  1.0000
  C   C329      1.0  0.60308  0.23511  0.52394  1.0000
  H   H330      1.0  0.65177  0.20885  0.84738  1.0000
  H   H331      1.0  0.55554  0.08312  0.65146  1.0000
  C   C330      1.0  0.60156  0.15165  0.64255  1.0000
  C   C331      1.0  0.62839  0.15861  0.63151  1.0000
  C   C332      1.0  0.63353  0.16296  0.60244  1.0000
  C   C333      1.0  0.61176  0.15991  0.58412  1.0000
  C   C334      1.0  0.58496  0.15322  0.59513  1.0000
  C   C335      1.0  0.58006  0.14960  0.62433  1.0000
  H   H332      1.0  0.64533  0.16100  0.64537  1.0000
  H   H333      1.0  0.65443  0.16852  0.59409  1.0000
  H   H334      1.0  0.56802  0.15089  0.58125  1.0000
  H   H335      1.0  0.55928  0.14434  0.63275  1.0000
  C   C336      1.0  0.61536  0.13444  0.83603  1.0000
  C   C337      1.0  0.61560  0.12961  0.86507  1.0000
  C   C338      1.0  0.60252  0.13943  0.88427  1.0000
  C   C339      1.0  0.58938  0.15449  0.87458  1.0000
  C   C340      1.0  0.58985  0.16004  0.84561  1.0000
  C   C341      1.0  0.60264  0.14989  0.82632  1.0000
  H   H336      1.0  0.62570  0.11793  0.87275  1.0000
  H   H337      1.0  0.60267  0.13548  0.90657  1.0000
  H   H338      1.0  0.57983  0.17183  0.83802  1.0000
  H   H339      1.0  0.60250  0.15388  0.80402  1.0000
  C   C342      1.0  0.79534  0.26631  0.66740  1.0000
  C   C343      1.0  0.76825  0.24489  0.65766  1.0000
  C   C344      1.0  0.74870  0.22301  0.67572  1.0000
  C   C345      1.0  0.75632  0.22189  0.70365  1.0000
  C   C346      1.0  0.78339  0.24326  0.71339  1.0000
  C   C347      1.0  0.80267  0.26550  0.69551  1.0000
  H   H340      1.0  0.76233  0.24529  0.63597  1.0000
  H   H341      1.0  0.72794  0.20691  0.66787  1.0000
  H   H342      1.0  0.78961  0.24268  0.73493  1.0000
  H   H343      1.0  0.82343  0.28173  0.70332  1.0000
  H   H344      1.0  0.54538  0.05113  0.92529  1.0000
  H   H345      1.0  0.59144  0.27509  0.54292  1.0000
  H   H346      1.0  0.71834  0.22065  0.76984  1.0000
  H   H347      1.0  0.53640  0.23866  0.94865  1.0000
  H   H348      1.0  0.58434  0.21450  0.51720  1.0000
  N   N26       1.0  0.59896  0.24092  0.55321  1.0000
  C   C348      1.0  0.57482  0.08640  0.61067  1.0000
  H   H349      1.0  0.54714  0.29793  0.50816  1.0000
  C   C349      1.0  0.59411  0.22761  0.60202  1.0000
  C   C350      1.0  0.58683  0.26623  0.58721  1.0000
  C   C351      1.0  0.58743  0.24883  0.60857  1.0000
  C   C352      1.0  0.61386  0.01864  0.71431  1.0000
  C   C353      1.0  0.69157  0.23558  0.78781  1.0000
  C   C354      1.0  0.59283  0.26204  0.55949  1.0000
  H   H350      1.0  0.52916  0.08570  0.91416  1.0000
  H   H351      1.0  0.60456  0.20717  0.56890  1.0000
  H   H352      1.0  0.62283  0.23355  0.52180  1.0000
  H   H353      1.0  0.58088  0.07992  0.91694  1.0000
  H   H354      1.0  0.55340  0.08028  0.81481  1.0000
  H   H355      1.0  0.66308  0.24576  0.81058  1.0000
  N   N27       1.0  0.57123  0.08561  0.58208  1.0000
  C   C355      1.0  0.52574  0.07502  0.61751  1.0000
  Fe  Fe58      1.0  0.51792  0.09242  0.97303  1.0000
  H   H356      1.0  0.59551  0.09195  0.61966  1.0000
  H   H357      1.0  0.57930  0.33765  0.96560  1.0000
  S   S116      1.0  0.53190  0.29050  0.56816  1.0000
  H   H358      1.0  0.84947  0.31321  0.58945  1.0000
  C   C356      1.0  0.54191  0.27660  0.51437  1.0000
  C   C357      1.0  0.67273  0.23230  0.80963  1.0000
  C   C358      1.0  0.66643  0.21166  0.83030  1.0000
  C   C359      1.0  0.54792  0.28177  0.96080  1.0000
  H   H359      1.0  0.61618  0.10598  0.57321  1.0000
  Fe  Fe59      1.0  0.51944  0.14905  0.98940  1.0000
  C   C360      1.0  0.53379  0.08366  0.89234  1.0000
  C   C361      1.0  0.55861  0.32927  0.97709  1.0000
  H   H360      1.0  0.57016  0.06088  0.85254  1.0000
  N   N28       1.0  0.73477  0.13181  0.69639  1.0000
  C   C362      1.0  0.71355  0.10370  0.69747  1.0000
  C   C363      1.0  0.75285  0.14418  0.71880  1.0000
  C   C364      1.0  0.71058  0.08701  0.72111  1.0000
  C   C365      1.0  0.75031  0.12819  0.74288  1.0000
  C   C366      1.0  0.72905  0.09938  0.74394  1.0000
  C   C367      1.0  0.73702  0.14917  0.67180  1.0000
  H   H361      1.0  0.69848  0.09403  0.68018  1.0000
  H   H362      1.0  0.76901  0.16675  0.71837  1.0000
  H   H363      1.0  0.69358  0.06475  0.72192  1.0000
  H   H364      1.0  0.76450  0.13821  0.76068  1.0000
  H   H365      1.0  0.72658  0.08673  0.76256  1.0000
  H   H366      1.0  0.75919  0.16764  0.66932  1.0000
  H   H367      1.0  0.73142  0.13633  0.65211  1.0000
  H   H368      1.0  0.72230  0.15783  0.67439  1.0000
  H   H369      1.0  0.71590  0.17693  0.78393  1.0000
  C   C368      1.0  0.67886  0.19433  0.82864  1.0000
  H   H370      1.0  0.67373  0.17821  0.84469  1.0000
  H   H371      1.0  0.69679  0.25166  0.77167  1.0000
  C   C369      1.0  0.59979  0.22392  0.57403  1.0000
  S   S117      1.0  0.56557  0.11647  0.96427  1.0000
  C   C370      1.0  0.59513  0.09098  0.56337  1.0000
  S   S118      1.0  0.54011  0.14622  0.52610  1.0000
  C   C371      1.0  0.70975  0.17900  0.80579  1.0000
  Fe  Fe60      1.0  0.86006  0.33539  0.65336  1.0000
  C   C372      1.0  0.59704  0.01680  0.73755  1.0000
  C   C373      1.0  0.55219  0.08125  0.62881  1.0000
  N   N29       1.0  0.53811  0.29958  0.96938  1.0000
  H   H372      1.0  0.59429  0.07054  0.55812  1.0000
  H   H373      1.0  0.58239  0.25160  0.63008  1.0000
  H   H374      1.0  0.57080  0.28969  0.95906  1.0000
  N   N30       1.0  0.69676  0.19722  0.80682  1.0000
  H   H375      1.0  0.59914  0.03609  0.74677  1.0000
  C   C374      1.0  0.53767  0.23037  0.50247  1.0000
  C   C375      1.0  0.56130  0.06135  0.90802  1.0000
  S   S119      1.0  0.56654  0.17593  0.98090  1.0000
  C   C376      1.0  0.53301  0.26745  0.54199  1.0000
  H   H376      1.0  0.54201  0.07747  0.54821  1.0000
  H   H377      1.0  0.58087  0.28230  0.59185  1.0000
  N   N31       1.0  0.54964  0.07109  0.88550  1.0000
  C   C377      1.0  0.54704  0.08058  0.83647  1.0000
  H   H378      1.0  0.52349  0.19987  0.53631  1.0000
  H   H379      1.0  0.51911  0.23218  0.57087  1.0000
  H   H380      1.0  0.56688  0.04531  0.90028  1.0000
  C   C378      1.0  0.55645  0.06959  0.85798  1.0000
  C   C379      1.0  0.54513  0.07875  0.57085  1.0000
  Fe  Fe61      1.0  0.53994  0.33602  0.56215  1.0000
  H   H381      1.0  0.59452  0.21380  0.61839  1.0000
  H   H382      1.0  0.81600  0.32745  0.59914  1.0000
  H   H383      1.0  0.59423  0.10143  0.54356  1.0000
  C   C380      1.0  0.52877  0.22121  0.53009  1.0000
  C   C381      1.0  0.53087  0.09344  0.84331  1.0000
  C   C382      1.0  0.52862  0.25295  0.95479  1.0000
  C   C383      1.0  0.52208  0.07356  0.58836  1.0000
  C   C384      1.0  0.52617  0.23955  0.54961  1.0000
  H   H384      1.0  0.60464  0.25184  0.50927  1.0000
  C   C385      1.0  0.52416  0.09500  0.87141  1.0000
  H   H385      1.0  0.85020  0.30580  0.55267  1.0000
  Fe  Fe62      1.0  0.52219  0.10546  0.50035  1.0000
  H   H386      1.0  0.51264  0.10600  0.87717  1.0000
  H   H387      1.0  0.52440  0.10307  0.82698  1.0000
  C   C386      1.0  0.82080  0.33881  0.57924  1.0000
  H   H388      1.0  0.87913  0.33814  0.56820  1.0000
  N   N32       1.0  0.84053  0.33865  0.56109  1.0000
  H   H389      1.0  0.92541  0.59550  0.43622  1.0000
  Fe  Fe63      1.0  0.54295  0.61308  0.30307  1.0000
  S   S120      1.0  0.57057  0.59731  0.28166  1.0000
  H   H390      1.0  0.92343  0.46213  0.31834  1.0000
  S   S121      1.0  0.54887  0.64133  0.34028  1.0000
  Fe  Fe64      1.0  0.63134  0.46835  0.27921  1.0000
  S   S122      1.0  0.67412  0.50559  0.29237  1.0000
  S   S123      1.0  0.61818  0.46819  0.23344  1.0000
  Fe  Fe65      1.0  0.61426  0.45016  0.34127  1.0000
  S   S124      1.0  0.65527  0.48673  0.35769  1.0000
  S   S125      1.0  0.57976  0.41801  0.37054  1.0000
  Fe  Fe66      1.0  0.64800  0.51282  0.32522  1.0000
  S   S126      1.0  0.65061  0.55517  0.33568  1.0000
  Fe  Fe67      1.0  0.67677  0.47533  0.32346  1.0000
  S   S127      1.0  0.70952  0.46114  0.33349  1.0000
  S   S128      1.0  0.60561  0.47693  0.31116  1.0000
  S   S129      1.0  0.63541  0.43743  0.30784  1.0000
  Fe  Fe68      1.0  0.92268  0.50194  0.39471  1.0000
  S   S130      1.0  0.90427  0.45670  0.41004  1.0000
  S   S131      1.0  0.96883  0.52603  0.37876  1.0000
  Fe  Fe69      1.0  0.86225  0.49593  0.39026  1.0000
  S   S132      1.0  0.84017  0.45056  0.40537  1.0000
  S   S133      1.0  0.83981  0.52009  0.37582  1.0000
  Fe  Fe70      1.0  0.87585  0.46609  0.43757  1.0000
  C   C387      1.0  0.56717  0.46092  0.45872  1.0000
  Fe  Fe71      1.0  0.87070  0.44570  0.37661  1.0000
  S   S134      1.0  0.85754  0.40806  0.34733  1.0000
  S   S135      1.0  0.89634  0.51240  0.42418  1.0000
  S   S136      1.0  0.89064  0.49004  0.35957  1.0000
  Fe  Fe72      1.0  0.91167  0.39260  0.16648  1.0000
  S   S137      1.0  0.88952  0.41603  0.15099  1.0000
  S   S138      1.0  0.95826  0.42287  0.17990  1.0000
  H   H391      1.0  0.55018  0.66020  0.40115  1.0000
  Fe  Fe73      1.0  0.86155  0.37680  0.12534  1.0000
  S   S139      1.0  0.84397  0.37253  0.08081  1.0000
  Fe  Fe74      1.0  0.85844  0.39388  0.18635  1.0000
  S   S140      1.0  0.84844  0.42093  0.21565  1.0000
  S   S141      1.0  0.51737  0.34957  0.09265  1.0000
  S   S142      1.0  0.88127  0.37198  0.20284  1.0000
  H   H392      1.0  0.65152  0.40298  0.46546  1.0000
  S   S143      1.0  0.57641  0.40800  0.07289  1.0000
  Fe  Fe75      1.0  0.57668  0.38222  0.03577  1.0000
  H   H393      1.0  0.98916  0.51839  0.00341  1.0000
  Fe  Fe76      1.0  0.56494  0.36925  0.09900  1.0000
  S   S144      1.0  0.58072  0.36841  0.14332  1.0000
  C   C388      1.0  0.85618  0.41261  0.31073  1.0000
  C   C389      1.0  0.85309  0.39077  0.29251  1.0000
  C   C390      1.0  0.85146  0.39346  0.26326  1.0000
  C   C391      1.0  0.85264  0.41792  0.25202  1.0000
  C   C392      1.0  0.85562  0.43975  0.27023  1.0000
  C   C393      1.0  0.85753  0.43718  0.29950  1.0000
  H   H394      1.0  0.85182  0.37161  0.30105  1.0000
  H   H395      1.0  0.84843  0.37619  0.24951  1.0000
  H   H396      1.0  0.85611  0.45854  0.26167  1.0000
  H   H397      1.0  0.85936  0.45391  0.31329  1.0000
  H   H398      1.0  0.98256  0.55913  0.43142  1.0000
  C   C394      1.0  0.91333  0.56960  0.36929  1.0000
  C   C395      1.0  0.84508  0.39158  0.02687  1.0000
  C   C396      1.0  0.85965  0.39742  0.05279  1.0000
  C   C397      1.0  0.88618  0.42256  0.05562  1.0000
  C   C398      1.0  0.89798  0.44156  0.03273  1.0000
  N   N33       1.0  0.93999  0.57370  0.36311  1.0000
  H   H399      1.0  0.82455  0.37221  0.02444  1.0000
  H   H400      1.0  0.89763  0.42731  0.07540  1.0000
  H   H401      1.0  0.91853  0.46087  0.03517  1.0000
  C   C399      1.0  0.74536  0.47846  0.34650  1.0000
  C   C400      1.0  0.76311  0.50822  0.34666  1.0000
  C   C401      1.0  0.79189  0.52067  0.35587  1.0000
  C   C402      1.0  0.80316  0.50358  0.36527  1.0000
  C   C403      1.0  0.78520  0.47386  0.36566  1.0000
  C   C404      1.0  0.75657  0.46141  0.35616  1.0000
  H   H402      1.0  0.75484  0.52163  0.33927  1.0000
  H   H403      1.0  0.80552  0.54369  0.35559  1.0000
  H   H404      1.0  0.79338  0.46054  0.37341  1.0000
  H   H405      1.0  0.74294  0.43839  0.35636  1.0000
  C   C405      1.0  0.58663  0.41984  0.40706  1.0000
  C   C406      1.0  0.56582  0.39942  0.42515  1.0000
  C   C407      1.0  0.57153  0.39961  0.45411  1.0000
  C   C408      1.0  0.59819  0.42015  0.46498  1.0000
  C   C409      1.0  0.61844  0.44116  0.44710  1.0000
  C   C410      1.0  0.61265  0.44105  0.41833  1.0000
  H   H406      1.0  0.54547  0.38306  0.41668  1.0000
  C   C411      1.0  0.51720  0.37495  0.16244  1.0000
  H   H407      1.0  0.63900  0.45728  0.45543  1.0000
  H   H408      1.0  0.62872  0.45705  0.40490  1.0000
  C   C412      1.0  0.61112  0.44146  0.20795  1.0000
  C   C413      1.0  0.60988  0.41575  0.21499  1.0000
  C   C414      1.0  0.60170  0.39405  0.19458  1.0000
  C   C415      1.0  0.59428  0.39764  0.16711  1.0000
  C   C416      1.0  0.59619  0.42362  0.15989  1.0000
  C   C417      1.0  0.60478  0.44549  0.18019  1.0000
  H   H409      1.0  0.61484  0.41244  0.23623  1.0000
  H   H410      1.0  0.60048  0.37408  0.20027  1.0000
  H   H411      1.0  0.59064  0.42670  0.13881  1.0000
  H   H412      1.0  0.60584  0.46537  0.17448  1.0000
  C   C418      1.0  0.51885  0.43054  0.44428  1.0000
  C   C419      1.0  0.99142  0.42770  0.16685  1.0000
  H   H413      1.0  0.77999  0.45470  0.25789  1.0000
  C   C420      1.0  0.92965  0.58977  0.41557  1.0000
  H   H414      1.0  0.97365  0.38735  0.14518  1.0000
  C   C421      1.0  0.58785  0.58206  0.30089  1.0000
  C   C422      1.0  0.60528  0.59616  0.32410  1.0000
  C   C423      1.0  0.62333  0.58678  0.33552  1.0000
  C   C424      1.0  0.62385  0.56298  0.32417  1.0000
  C   C425      1.0  0.60522  0.54793  0.30194  1.0000
  C   C426      1.0  0.58758  0.55763  0.29019  1.0000
  H   H415      1.0  0.60595  0.61517  0.33239  1.0000
  H   H416      1.0  0.63763  0.59860  0.35269  1.0000
  H   H417      1.0  0.60549  0.52972  0.29282  1.0000
  H   H418      1.0  0.57435  0.54665  0.27214  1.0000
  C   C427      1.0  0.92594  0.46030  0.27293  1.0000
  H   H419      1.0  0.81115  0.43320  0.34414  1.0000
  C   C428      1.0  0.53144  0.43182  0.49319  1.0000
  S   S145      1.0  0.53009  0.36473  0.02569  1.0000
  C   C429      1.0  0.52457  0.42239  0.15543  1.0000
  C   C430      1.0  0.78204  0.41659  0.24897  1.0000
  N   N34       1.0  0.66050  0.59086  0.26448  1.0000
  C   C431      1.0  0.64023  0.58984  0.24637  1.0000
  C   C432      1.0  0.66749  0.56973  0.26410  1.0000
  C   C433      1.0  0.62580  0.56679  0.22776  1.0000
  C   C434      1.0  0.65359  0.54650  0.24564  1.0000
  C   C435      1.0  0.63249  0.54494  0.22754  1.0000
  C   C436      1.0  0.67556  0.61531  0.28363  1.0000
  H   H420      1.0  0.63444  0.60643  0.24691  1.0000
  H   H421      1.0  0.68334  0.57036  0.27866  1.0000
  H   H422      1.0  0.60929  0.56574  0.21393  1.0000
  H   H423      1.0  0.78529  0.37849  0.24684  1.0000
  C   C437      1.0  0.53102  0.36116  0.20611  1.0000
  H   H424      1.0  0.68224  0.60894  0.30323  1.0000
  H   H425      1.0  0.69485  0.63267  0.27313  1.0000
  H   H426      1.0  0.77273  0.41043  0.34884  1.0000
  N   N35       1.0  0.78775  0.41364  0.30688  1.0000
  C   C438      1.0  0.78721  0.39296  0.28973  1.0000
  C   C439      1.0  0.78486  0.43542  0.29575  1.0000
  H   H427      1.0  0.62131  0.52662  0.21360  1.0000
  C   C440      1.0  0.78196  0.43722  0.26666  1.0000
  N   N36       1.0  0.52902  0.38249  0.18873  1.0000
  C   C441      1.0  0.79187  0.41299  0.33733  1.0000
  H   H428      1.0  0.78077  0.41818  0.22627  1.0000
  H   H429      1.0  0.78515  0.45176  0.30934  1.0000
  H   H430      1.0  0.54618  0.56108  0.23159  1.0000
  H   H431      1.0  0.89605  0.55986  0.35399  1.0000
  H   H432      1.0  0.52938  0.54111  0.18336  1.0000
  H   H433      1.0  0.98301  0.58979  0.37736  1.0000
  H   H434      1.0  0.69395  0.44511  0.44496  1.0000
  C   C442      1.0  0.55987  0.45173  0.48659  1.0000
  H   H435      1.0  0.58936  0.47633  0.45376  1.0000
  N   N37       1.0  0.54680  0.45008  0.43794  1.0000
  H   H436      1.0  0.92553  0.41783  0.32582  1.0000
  C   C443      1.0  0.78440  0.39415  0.26054  1.0000
  H   H437      1.0  0.60901  0.34449  0.43734  1.0000
  H   H438      1.0  0.58526  0.35744  0.42668  1.0000
  H   H439      1.0  0.55567  0.38338  0.46777  1.0000
  Fe  Fe77      1.0  0.52869  0.38765  0.06508  1.0000
  H   H440      1.0  0.52543  0.47492  0.02301  1.0000
  C   C444      1.0  0.88342  0.43574  0.00680  1.0000
  S   S146      1.0  0.82779  0.35668  0.15939  1.0000
  H   H441      1.0  0.93053  0.39206  0.28445  1.0000
  C   C445      1.0  0.92944  0.41139  0.28148  1.0000
  C   C446      1.0  0.92563  0.45084  0.30042  1.0000
  C   C447      1.0  0.95693  0.59438  0.40889  1.0000
  C   C448      1.0  0.60538  0.36298  0.43821  1.0000
  N   N38       1.0  0.63003  0.38834  0.42599  1.0000
  C   C449      1.0  0.63098  0.39309  0.39759  1.0000
  C   C450      1.0  0.65248  0.40648  0.44288  1.0000
  C   C451      1.0  0.65467  0.41679  0.38550  1.0000
  C   C452      1.0  0.67749  0.43557  0.40257  1.0000
  C   C453      1.0  0.53625  0.42981  0.18246  1.0000
  S   S147      1.0  0.52203  0.63312  0.27770  1.0000
  C   C454      1.0  0.96180  0.58633  0.38233  1.0000
  H   H442      1.0  0.61307  0.37898  0.38419  1.0000
  H   H443      1.0  0.54821  0.47647  0.40420  1.0000
  H   H444      1.0  0.92412  0.47918  0.26978  1.0000
  C   C455      1.0  0.99311  0.40684  0.15082  1.0000
  C   C456      1.0  0.52378  0.54544  0.22779  1.0000
  H   H445      1.0  0.95003  0.46886  0.21400  1.0000
  H   H446      1.0  0.52337  0.43799  0.14196  1.0000
  S   S148      1.0  0.88558  0.35433  0.13823  1.0000
  C   C457      1.0  0.92763  0.45542  0.22166  1.0000
  H   H447      1.0  0.91593  0.46749  0.22047  1.0000
  S   S149      1.0  0.86370  0.45460  0.48375  1.0000
  H   H448      1.0  0.91632  0.43702  0.20704  1.0000
  C   C458      1.0  0.93018  0.42174  0.25432  1.0000
  N   N39       1.0  0.92758  0.44541  0.25033  1.0000
  H   H449      1.0  0.93252  0.41054  0.23639  1.0000
  C   C459      1.0  0.85685  0.41064  0.00398  1.0000
  C   C460      1.0  0.92690  0.42595  0.30463  1.0000
  H   H450      1.0  0.69585  0.45418  0.39341  1.0000
  H   H451      1.0  0.79557  0.39524  0.34350  1.0000
  H   H452      1.0  0.66124  0.62356  0.29040  1.0000
  H   H453      1.0  0.92634  0.54642  0.32709  1.0000
  H   H454      1.0  0.54380  0.44215  0.39373  1.0000
  H   H455      1.0  0.57803  0.46998  0.40508  1.0000
  H   H456      1.0  0.65880  0.52953  0.24551  1.0000
  H   H457      1.0  0.88628  0.57343  0.40061  1.0000
  H   H458      1.0  0.97418  0.60387  0.42424  1.0000
  H   H459      1.0  0.54450  0.45139  0.19031  1.0000
  C   C461      1.0  0.67646  0.43043  0.43146  1.0000
  C   C462      1.0  0.00238  0.56360  0.42122  1.0000
  H   H460      1.0  0.95161  0.50696  0.00609  1.0000
  C   C463      1.0  0.90772  0.57744  0.39562  1.0000
  C   C464      1.0  0.94558  0.56594  0.33515  1.0000
  C   C465      1.0  0.00148  0.54955  0.39610  1.0000
  C   C466      1.0  0.55455  0.46025  0.40887  1.0000
  S   S150      1.0  0.57006  0.34514  0.06269  1.0000
  H   H461      1.0  0.54780  0.41554  0.21977  1.0000
  H   H462      1.0  0.96330  0.56096  0.33594  1.0000
  H   H463      1.0  0.90621  0.43602  0.47887  1.0000
  C   C467      1.0  0.53807  0.40938  0.19904  1.0000
  H   H464      1.0  0.60186  0.36686  0.46053  1.0000
  H   H465      1.0  0.52020  0.64641  0.44809  1.0000
  H   H466      1.0  0.65522  0.42078  0.36304  1.0000
  H   H467      1.0  0.79005  0.37598  0.29840  1.0000
  H   H468      1.0  0.52846  0.52258  0.02317  1.0000
  H   H469      1.0  0.95153  0.58385  0.32024  1.0000
  Fe  Fe78      1.0  0.52314  0.65733  0.31670  1.0000
  H   H470      1.0  0.53882  0.34916  0.19319  1.0000
  H   H471      1.0  0.54666  0.37135  0.22360  1.0000
  S   S151      1.0  0.51561  0.42136  0.07372  1.0000
  S   S152      1.0  0.60951  0.39511  0.00070  1.0000
  C   C468      1.0  0.51468  0.39473  0.14549  1.0000
  C   C469      1.0  0.51442  0.53413  0.20088  1.0000
  H   H472      1.0  0.00864  0.51476  0.44676  1.0000
  N   N40       1.0  0.51316  0.66313  0.41021  1.0000
  S   S153      1.0  0.90090  0.34929  0.62874  1.0000
  H   H473      1.0  0.83784  0.37987  0.50895  1.0000
  S   S154      1.0  0.57568  0.60798  0.83797  1.0000
  H   H474      1.0  0.57309  0.41912  0.98845  1.0000
  H   H475      1.0  0.98501  0.35694  0.63712  1.0000
  Fe  Fe79      1.0  0.62315  0.44046  0.79146  1.0000
  S   S155      1.0  0.65690  0.48448  0.77871  1.0000
  S   S156      1.0  0.60746  0.40363  0.76034  1.0000
  Fe  Fe80      1.0  0.61978  0.46055  0.85110  1.0000
  S   S157      1.0  0.65374  0.50604  0.84217  1.0000
  S   S158      1.0  0.59462  0.45364  0.89138  1.0000
  Fe  Fe81      1.0  0.63023  0.49972  0.80135  1.0000
  S   S159      1.0  0.61485  0.52685  0.77925  1.0000
  Fe  Fe82      1.0  0.67708  0.48608  0.82078  1.0000
  S   S160      1.0  0.72574  0.50465  0.82177  1.0000
  S   S161      1.0  0.59510  0.45528  0.81129  1.0000
  S   S162      1.0  0.64460  0.44093  0.83257  1.0000
  Fe  Fe83      1.0  0.91148  0.50338  0.88690  1.0000
  S   S163      1.0  0.91350  0.46474  0.89948  1.0000
  S   S164      1.0  0.95397  0.54316  0.87540  1.0000
  Fe  Fe84      1.0  0.84514  0.47196  0.89381  1.0000
  S   S165      1.0  0.84422  0.43147  0.90781  1.0000
  S   S166      1.0  0.80058  0.46810  0.89613  1.0000
  Fe  Fe85      1.0  0.88302  0.45991  0.93428  1.0000
  S   S167      1.0  0.89955  0.46052  0.97876  1.0000
  Fe  Fe86      1.0  0.87491  0.44069  0.87172  1.0000
  S   S168      1.0  0.87500  0.40770  0.84214  1.0000
  S   S169      1.0  0.88230  0.49993  0.92261  1.0000
  S   S170      1.0  0.87443  0.47975  0.85661  1.0000
  Fe  Fe87      1.0  0.92471  0.37283  0.66758  1.0000
  S   S171      1.0  0.92561  0.41336  0.65599  1.0000
  S   S172      1.0  0.96649  0.37759  0.68420  1.0000
  S   S173      1.0  0.85739  0.37416  0.64055  1.0000
  Fe  Fe88      1.0  0.89944  0.38913  0.61825  1.0000
  S   S174      1.0  0.91404  0.40316  0.57301  1.0000
  Fe  Fe89      1.0  0.88377  0.39444  0.67966  1.0000
  S   S175      1.0  0.87506  0.42234  0.70926  1.0000
  H   H476      1.0  0.66435  0.49033  0.90859  1.0000
  S   S176      1.0  0.88412  0.35495  0.69366  1.0000
  S   S177      1.0  0.58419  0.37380  0.57000  1.0000
  S   S178      1.0  0.55628  0.41449  0.55915  1.0000
  Fe  Fe90      1.0  0.57432  0.39295  0.53260  1.0000
  C   C470      1.0  0.84650  0.35298  0.53604  1.0000
  Fe  Fe91      1.0  0.56184  0.39171  0.59612  1.0000
  S   S179      1.0  0.57705  0.42088  0.63473  1.0000
  C   C471      1.0  0.87260  0.41054  0.80525  1.0000
  C   C472      1.0  0.86611  0.43027  0.79328  1.0000
  C   C473      1.0  0.86598  0.43300  0.76379  1.0000
  C   C474      1.0  0.87269  0.41630  0.74605  1.0000
  C   C475      1.0  0.87878  0.39632  0.75805  1.0000
  C   C476      1.0  0.87854  0.39332  0.78750  1.0000
  H   H477      1.0  0.86114  0.44340  0.80666  1.0000
  H   H478      1.0  0.86110  0.44842  0.75472  1.0000
  H   H479      1.0  0.88400  0.38335  0.74473  1.0000
  H   H480      1.0  0.88339  0.37787  0.79656  1.0000
  H   H481      1.0  0.65404  0.44088  0.68876  1.0000
  H   H482      1.0  0.70831  0.51779  0.87911  1.0000
  C   C477      1.0  0.91010  0.42253  0.52076  1.0000
  C   C478      1.0  0.90104  0.41915  0.54901  1.0000
  C   C479      1.0  0.88144  0.42768  0.55707  1.0000
  C   C480      1.0  0.87074  0.43911  0.53691  1.0000
  H   H483      1.0  0.56961  0.54144  0.90654  1.0000
  H   H484      1.0  0.92527  0.41600  0.51433  1.0000
  H   H485      1.0  0.87434  0.42527  0.57874  1.0000
  H   H486      1.0  0.85540  0.44545  0.54326  1.0000
  C   C481      1.0  0.74589  0.49151  0.83954  1.0000
  C   C482      1.0  0.77605  0.50676  0.83732  1.0000
  C   C483      1.0  0.79312  0.49874  0.85308  1.0000
  C   C484      1.0  0.78021  0.47548  0.87152  1.0000
  C   C485      1.0  0.74999  0.45980  0.87319  1.0000
  C   C486      1.0  0.73289  0.46750  0.85706  1.0000
  H   H487      1.0  0.78638  0.52539  0.82386  1.0000
  H   H488      1.0  0.81631  0.51127  0.85182  1.0000
  H   H489      1.0  0.73975  0.44185  0.88748  1.0000
  H   H490      1.0  0.70974  0.45552  0.85905  1.0000
  C   C487      1.0  0.59802  0.43580  0.92089  1.0000
  C   C488      1.0  0.58215  0.43341  0.94525  1.0000
  C   C489      1.0  0.58506  0.42040  0.96963  1.0000
  C   C490      1.0  0.60405  0.40986  0.96986  1.0000
  C   C491      1.0  0.61957  0.41175  0.94535  1.0000
  C   C492      1.0  0.61653  0.42464  0.92086  1.0000
  H   H491      1.0  0.56774  0.44193  0.94538  1.0000
  H   H492      1.0  0.52488  0.60805  0.69943  1.0000
  H   H493      1.0  0.63418  0.40345  0.94539  1.0000
  H   H494      1.0  0.62865  0.42615  0.90210  1.0000
  C   C493      1.0  0.59815  0.40811  0.72566  1.0000
  C   C494      1.0  0.59992  0.43375  0.71729  1.0000
  C   C495      1.0  0.59336  0.43714  0.68938  1.0000
  C   C496      1.0  0.58490  0.41500  0.66951  1.0000
  C   C497      1.0  0.58313  0.38933  0.67783  1.0000
  C   C498      1.0  0.58978  0.38595  0.70580  1.0000
  H   H495      1.0  0.60639  0.45102  0.73230  1.0000
  H   H496      1.0  0.59484  0.45710  0.68316  1.0000
  H   H497      1.0  0.57667  0.37213  0.66275  1.0000
  H   H498      1.0  0.58838  0.36605  0.71208  1.0000
  C   C499      1.0  0.71174  0.47904  0.94586  1.0000
  C   C500      1.0  0.00533  0.58432  0.95352  1.0000
  C   C501      1.0  0.68591  0.47786  0.93884  1.0000
  C   C502      1.0  0.83254  0.36796  0.52855  1.0000
  S   S180      1.0  0.51800  0.35288  0.59089  1.0000
  C   C503      1.0  0.58673  0.58567  0.82139  1.0000
  C   C504      1.0  0.60642  0.57984  0.83503  1.0000
  C   C505      1.0  0.61470  0.56126  0.82278  1.0000
  C   C506      1.0  0.60414  0.54921  0.79628  1.0000
  C   C507      1.0  0.58479  0.55539  0.78249  1.0000
  C   C508      1.0  0.57573  0.57314  0.79516  1.0000
  H   H499      1.0  0.61507  0.58953  0.85528  1.0000
  H   H500      1.0  0.62981  0.55687  0.83348  1.0000
  H   H501      1.0  0.57670  0.54633  0.76190  1.0000
  H   H502      1.0  0.56064  0.57754  0.78443  1.0000
  H   H503      1.0  0.51834  0.61222  0.64944  1.0000
  C   C509      1.0  0.98762  0.54824  0.88729  1.0000
  C   C510      1.0  0.00242  0.37793  0.64289  1.0000
  H   H504      1.0  0.66701  0.46605  0.95197  1.0000
  H   H505      1.0  0.79189  0.35480  0.58752  1.0000
  N   N41       1.0  0.69120  0.45071  0.74918  1.0000
  C   C511      1.0  0.71033  0.47943  0.74726  1.0000
  C   C512      1.0  0.67190  0.43679  0.72800  1.0000
  C   C513      1.0  0.70924  0.49525  0.72447  1.0000
  C   C514      1.0  0.67019  0.45192  0.70493  1.0000
  C   C515      1.0  0.68881  0.48139  0.70335  1.0000
  C   C516      1.0  0.69175  0.43452  0.77368  1.0000
  H   H506      1.0  0.72600  0.49043  0.76380  1.0000
  H   H507      1.0  0.65707  0.41392  0.72926  1.0000
  C   C517      1.0  0.95415  0.56107  0.94612  1.0000
  H   H508      1.0  0.96988  0.51035  0.91288  1.0000
  H   H509      1.0  0.55846  0.48306  0.80044  1.0000
  H   H510      1.0  0.75898  0.47248  0.93649  1.0000
  H   H511      1.0  0.84542  0.40588  0.98418  1.0000
  C   C518      1.0  0.89937  0.43391  0.50060  1.0000
  N   N42       1.0  0.94251  0.46509  0.81114  1.0000
  C   C519      1.0  0.94298  0.48841  0.82306  1.0000
  C   C520      1.0  0.93863  0.46042  0.78274  1.0000
  C   C521      1.0  0.93826  0.50711  0.80662  1.0000
  C   C522      1.0  0.93390  0.47872  0.76564  1.0000
  C   C523      1.0  0.93345  0.50205  0.77777  1.0000
  H   H512      1.0  0.78024  0.50764  0.92250  1.0000
  H   H513      1.0  0.94671  0.49251  0.84546  1.0000
  C   C524      1.0  0.56358  0.49489  0.85507  1.0000
  H   H514      1.0  0.92953  0.47414  0.74332  1.0000
  H   H515      1.0  0.92915  0.51602  0.76487  1.0000
  Fe  Fe92      1.0  0.51398  0.37490  0.55241  1.0000
  C   C525      1.0  0.57146  0.50941  0.88083  1.0000
  S   S181      1.0  0.60805  0.41931  0.50011  1.0000
  H   H516      1.0  0.57622  0.45965  0.50289  1.0000
  C   C526      1.0  0.99789  0.39394  0.66336  1.0000
  N   N43       1.0  0.97402  0.53876  0.97494  1.0000
  H   H517      1.0  0.70449  0.42404  0.76880  1.0000
  Fe  Fe93      1.0  0.53473  0.60636  0.82337  1.0000
  H   H518      1.0  0.57026  0.47941  0.85048  1.0000
  H   H519      1.0  0.68725  0.49343  0.68586  1.0000
  C   C527      1.0  0.53225  0.59256  0.69481  1.0000
  H   H520      1.0  0.92931  0.52025  0.96624  1.0000
  H   H521      1.0  0.76922  0.50337  0.95880  1.0000
  H   H522      1.0  0.55607  0.60422  0.69362  1.0000
  H   H523      1.0  0.52535  0.42464  0.51468  1.0000
  C   C528      1.0  0.54659  0.53440  0.86756  1.0000
  H   H524      1.0  0.72378  0.51818  0.72356  1.0000
  H   H525      1.0  0.98519  0.43731  0.63246  1.0000
  C   C529      1.0  0.98925  0.52918  0.90606  1.0000
  C   C530      1.0  0.68451  0.49172  0.91464  1.0000
  H   H526      1.0  0.93809  0.52524  0.81636  1.0000
  H   H527      1.0  0.66952  0.41796  0.77973  1.0000
  H   H528      1.0  0.51884  0.53914  0.68217  1.0000
  N   N44       1.0  0.73571  0.49414  0.92956  1.0000
  H   H529      1.0  0.93896  0.44449  0.85041  1.0000
  C   C531      1.0  0.94741  0.44569  0.82874  1.0000
  H   H530      1.0  0.52526  0.57758  0.71299  1.0000
  C   C532      1.0  0.00111  0.56131  0.97036  1.0000
  H   H531      1.0  0.54054  0.55047  0.87174  1.0000
  H   H532      1.0  0.70132  0.44865  0.79236  1.0000
  H   H533      1.0  0.71245  0.46765  0.96437  1.0000
  N   N45       1.0  0.51991  0.57720  0.66835  1.0000
  N   N46       1.0  0.54806  0.50040  0.83584  1.0000
  H   H534      1.0  0.58419  0.50519  0.89571  1.0000
  C   C533      1.0  0.96981  0.51385  0.99108  1.0000
  C   C534      1.0  0.54020  0.48497  0.80893  1.0000
  H   H535      1.0  0.93572  0.56021  0.93585  1.0000
  H   H536      1.0  0.86271  0.35350  0.52203  1.0000
  S   S182      1.0  0.52575  0.62178  0.78245  1.0000
  C   C535      1.0  0.76231  0.49454  0.93727  1.0000
  H   H537      1.0  0.93815  0.44190  0.77325  1.0000
  H   H538      1.0  0.75365  0.52023  0.89305  1.0000
  C   C536      1.0  0.56309  0.52948  0.88696  1.0000
  H   H539      1.0  0.96442  0.49568  0.97649  1.0000
  C   C537      1.0  0.53908  0.51945  0.84200  1.0000
  H   H540      1.0  0.98468  0.60109  0.92707  1.0000
  C   C538      1.0  0.51464  0.59068  0.64674  1.0000
  C   C539      1.0  0.51473  0.54983  0.66502  1.0000
  H   H541      1.0  0.97071  0.45310  0.82983  1.0000
  C   C540      1.0  0.70910  0.50716  0.89819  1.0000
  C   C541      1.0  0.87949  0.44212  0.50856  1.0000
  H   H542      1.0  0.93554  0.42346  0.82036  1.0000
  C   C542      1.0  0.81289  0.36878  0.54718  1.0000
  C   C543      1.0  0.73475  0.50842  0.90619  1.0000
  S   S183      1.0  0.53160  0.35435  0.52311  1.0000
  H   H543      1.0  0.97650  0.44038  0.59623  1.0000
  C   C544      1.0  0.95070  0.53843  0.96309  1.0000
  H   H544      1.0  0.80277  0.38124  0.54200  1.0000
  H   H545      1.0  0.98024  0.41058  0.60743  1.0000
  H   H546      1.0  0.52134  0.46325  0.81181  1.0000
  C   C545      1.0  0.98895  0.43397  0.61010  1.0000
  C   C546      1.0  0.98166  0.58408  0.94125  1.0000
  H   H547      1.0  0.53521  0.49664  0.79270  1.0000
  S   S184      1.0  0.51205  0.62363  0.85038  1.0000
  H   H548      1.0  0.52687  0.52398  0.82678  1.0000
  H   H549      1.0  0.51989  0.40966  0.61896  1.0000
  C   C547      1.0  0.80691  0.35410  0.57270  1.0000
  H   H550      1.0  0.51421  0.41384  0.65561  1.0000
  H   H551      1.0  0.55009  0.34371  0.97200  1.0000
  C   C548      1.0  0.55788  0.99305  0.26084  1.0000
  S   S185      1.0  0.57138  0.92854  0.23488  1.0000
  N   N47       1.0  0.53343  0.96180  0.16325  1.0000
  H   H552      1.0  0.55711  0.69373  0.41674  1.0000
  H   H553      1.0  0.53312  0.93282  0.19397  1.0000
  C   C549      1.0  0.52816  0.93561  0.17246  1.0000
  Fe  Fe94      1.0  0.53000  0.88600  0.24137  1.0000
  C   C550      1.0  0.57501  0.96264  0.24121  1.0000
  C   C551      1.0  0.59935  0.98734  0.23095  1.0000
  C   C552      1.0  0.55420  0.96564  0.25606  1.0000
  H   H554      1.0  0.61565  0.98525  0.21954  1.0000
  H   H555      1.0  0.53547  0.94688  0.26422  1.0000
  C   C553      1.0  0.54336  0.67655  0.40166  1.0000
  H   H556      1.0  0.54498  0.76179  0.32543  1.0000
  C   C554      1.0  0.53227  0.75230  0.30669  1.0000
  S   S186      1.0  0.51764  0.85427  0.27732  1.0000
  C   C555      1.0  0.52498  0.76891  0.28927  1.0000
  C   C556      1.0  0.51627  0.91201  0.15430  1.0000
  H   H557      1.0  0.54181  0.99513  0.27266  1.0000
  H   H558      1.0  0.53230  0.79100  0.29451  1.0000
  S   S187      1.0  0.53382  0.70380  0.32237  1.0000
  C   C557      1.0  0.52770  0.96538  0.13595  1.0000
  S   S188      1.0  0.51692  0.85223  0.20748  1.0000
  C   C558      1.0  0.52379  0.72375  0.29977  1.0000
  H   H559      1.0  0.53728  0.98009  0.20388  1.0000
  C   C559      1.0  0.51580  0.94221  0.11724  1.0000
  H   H560      1.0  0.54701  0.68615  0.38026  1.0000
  H   H561      1.0  0.53230  0.98622  0.12849  1.0000
  H   H562      1.0  0.57011  0.99475  0.18370  1.0000
  C   C560      1.0  0.54661  0.98639  0.18242  1.0000
  H   H563      1.0  0.54301  0.00397  0.17545  1.0000
  C   C561      1.0  0.61090  0.99326  0.70276  1.0000
  S   S189      1.0  0.54981  0.93157  0.75381  1.0000
  H   H564      1.0  0.53696  0.96389  0.69172  1.0000
  C   C562      1.0  0.54709  0.75160  0.77913  1.0000
  S   S190      1.0  0.54023  0.85767  0.71490  1.0000
  C   C563      1.0  0.53453  0.72277  0.78781  1.0000
  H   H565      1.0  0.54798  0.71369  0.79253  1.0000
  C   C564      1.0  0.57470  0.96456  0.73779  1.0000
  C   C565      1.0  0.59143  0.96633  0.71442  1.0000
  H   H566      1.0  0.54764  0.88287  0.65510  1.0000
  H   H567      1.0  0.58994  0.94711  0.70575  1.0000
  H   H568      1.0  0.55630  0.83646  0.83900  1.0000
  S   S191      1.0  0.54686  0.80077  0.76349  1.0000
  C   C566      1.0  0.53002  0.76391  0.77296  1.0000
  H   H569      1.0  0.53092  0.88375  0.60669  1.0000
  C   C567      1.0  0.52778  0.84158  0.86750  1.0000
  Fe  Fe95      1.0  0.52851  0.88397  0.74299  1.0000
  H   H570      1.0  0.57020  0.76446  0.77720  1.0000
  C   C568      1.0  0.57766  0.98995  0.74922  1.0000
  H   H571      1.0  0.56494  0.98884  0.76736  1.0000
  H   H572      1.0  0.62398  0.99446  0.68490  1.0000
  C   C569      1.0  0.53418  0.82890  0.84511  1.0000
  C   C570      1.0  0.53814  0.89600  0.65040  1.0000
  H   H573      1.0  0.54493  0.85920  0.87906  1.0000
  C   C571      1.0  0.52883  0.89657  0.62315  1.0000
  Fe  Fe96      1.0  0.52351  0.82422  0.74930  1.0000
  C   C572      1.0  0.53393  0.91140  0.67177  1.0000
  H   H574      1.0  0.54097  0.91066  0.69298  1.0000
  N   N48       1.0  0.52057  0.92672  0.66619  1.0000
  S   S192      1.0  0.51638  0.85270  0.77887  1.0000
  H   H575      1.0  0.51684  0.79707  0.81258  1.0000
  C   C573      1.0  0.51684  0.94303  0.68891  1.0000
  C   C574      1.0  0.51565  0.91264  0.61751  1.0000
  C   C575      1.0  0.51175  0.92777  0.63941  1.0000
  H   H576      1.0  0.51185  0.93115  0.70917  1.0000
  C   C576      1.0  0.51175  0.80662  0.83010  1.0000
