data_image0
_chemical_formula_structural       HSCHSHFeSFeSCSH2FeSH2SH2FeH2FeH2C6H4CHSHC2FeSH2C5HC2H2CHCSCH2C2SCH4C5N2HC2NHC2HC3HNS2CH3CHCHC2HCHFeSH2C2FeS4H2SC3HC6H4CH2CFeCHSCHCNHFeSH2CHSH2CH2CSH3C3SCHCHC4HCSFeH2NCFeHCHC3HFeCH3CHCH2SFeHSHC3H2S2NHC2SCFeSCSFeHSH2C4FeNHS2H2C6FeH5C2HFeH4SCSHSCH2CSC2H2C3HNHCH2SFeSH3CSCFeS2FeSFeSN2FeSHSC3HC5H2C3S2HCHC6H3C3HC2HCNSHC2HCH2C2HS2C2HCHSH2CH4CH4CH4FeHCFeS2FeS2FeSFeS3H2CSCFeSFeS2HCSHCSHC4SHCHCHC6HCH2C6H4C2H2C2HFeSHNC3H2FeSC4NC3HFeH2CHC2H4CHCH3CHCH2CH6SCH3FeS2FeS2FeSFeS3NSCSHFeSC6H7C3HFeCHCNHCHCH2C5H5C2SC2H4CH4C2FeHNCH2CHCSCH2CHC2HC4HCH2C3HC2H2C2H2C4SCFeS2FeS2FeSFeS4H6N2C7H3C2H2C2FeHCHC6H4C4HCH4NCH2SH2FeCH3C2SC7H2CHCHCSC2H2FeHNH2C4SHCH3CNSC2H2N2CHFeHC2H6SCH2CSHS2H2CSCFeS2FeS2FeSFe2S3C6H4CHC2H2C6H4CHC2NFeH2NC4NCHCHCH3CHCH4SHSHC2HC3FeSHC3HCHCNHC2H2NC2HCHCHSC3H4FeHC2HFeSH2CH2CHCH2CH2Fe2SFeHS2C2HS2C3H2NH2C7H3C2SH2FeH2CH6CH3S2C2H2CH2CHSCFeNHC2HNC5HCNFeHSHCHCHCSCHSH2CH2CH2CHC2H2CSH3FeHSHCSCH4CSHCH3CHCNC5HCHC2H2NCSCHSH3CNS3C3HCH3SFe2C4Fe2SHSHSCH2C3HS2HSC6H4C2H3C2SH2CFeCHCFeH2C2SC2H2CHCHC3HFeCH2FeS2FeHCHSH3CSHCHCH2SCH5C2HCHC6H5NH2CSNFeHFeCHSCSC2HC3HCHCSCHC2HC3FeC2HNHCSC3HCHC2H2FeHC2H2SH3SHFe2NC
_chemical_formula_sum              "H480 S160 C480 Fe80 N40"
_cell_length_a       36.3004
_cell_length_b       36.3352
_cell_length_c       33.7138
_cell_angle_alpha    89.783
_cell_angle_beta     89.9993
_cell_angle_gamma    89.9448

_space_group_name_H-M_alt    "P 1"
_space_group_IT_number       1

loop_
  _space_group_symop_operation_xyz
  'x, y, z'

loop_
  _atom_site_type_symbol
  _atom_site_label
  _atom_site_symmetry_multiplicity
  _atom_site_fract_x
  _atom_site_fract_y
  _atom_site_fract_z
  _atom_site_occupancy
  H   H1        1.0  0.08673  0.43357  0.46466  1.0000
  S   S1        1.0  0.10589  0.33601  0.13732  1.0000
  C   C1        1.0  0.21583  0.47454  0.14920  1.0000
  H   H2        1.0  0.20252  0.28238  0.09790  1.0000
  S   S2        1.0  0.05883  0.31460  0.21699  1.0000
  H   H3        1.0  0.09915  0.32080  0.01176  1.0000
  Fe  Fe1       1.0  0.08586  0.36525  0.19174  1.0000
  S   S3        1.0  0.11522  0.41382  0.21833  1.0000
  Fe  Fe2       1.0  0.07311  0.28750  0.15885  1.0000
  S   S4        1.0  0.09809  0.23061  0.15319  1.0000
  C   C2        1.0  0.10963  0.12836  0.43770  1.0000
  S   S5        1.0  0.20344  0.46559  0.02201  1.0000
  H   H4        1.0  0.12081  0.40645  0.43990  1.0000
  H   H5        1.0  0.23582  0.49959  0.09554  1.0000
  Fe  Fe3       1.0  0.20835  0.45738  0.40919  1.0000
  S   S6        1.0  0.18561  0.40279  0.38953  1.0000
  H   H6        1.0  0.07221  0.44785  0.31624  1.0000
  H   H7        1.0  0.11106  0.10050  0.42412  1.0000
  S   S7        1.0  0.25115  0.46370  0.45714  1.0000
  H   H8        1.0  0.17732  0.39154  0.47233  1.0000
  H   H9        1.0  0.16986  0.43585  0.09163  1.0000
  Fe  Fe4       1.0  0.21301  0.50683  0.48107  1.0000
  H   H10       1.0  0.18776  0.45329  0.20097  1.0000
  H   H11       1.0  0.06768  0.15941  0.21953  1.0000
  Fe  Fe5       1.0  0.27315  0.50921  0.41857  1.0000
  H   H12       1.0  0.06862  0.26263  0.07086  1.0000
  H   H13       1.0  0.10887  0.14939  0.41376  1.0000
  C   C3        1.0  0.16418  0.40577  0.34278  1.0000
  C   C4        1.0  0.15069  0.37397  0.32433  1.0000
  C   C5        1.0  0.13486  0.37608  0.28629  1.0000
  C   C6        1.0  0.13292  0.40997  0.26659  1.0000
  C   C7        1.0  0.14567  0.44180  0.28538  1.0000
  C   C8        1.0  0.16082  0.43976  0.32354  1.0000
  H   H14       1.0  0.15304  0.34763  0.33918  1.0000
  H   H15       1.0  0.12498  0.35142  0.27192  1.0000
  H   H16       1.0  0.14394  0.46814  0.27045  1.0000
  H   H17       1.0  0.17017  0.46453  0.33787  1.0000
  C   C9        1.0  0.07395  0.19452  0.12965  1.0000
  H   H18       1.0  0.15431  0.36039  0.01698  1.0000
  S   S8        1.0  0.16817  0.49614  0.43722  1.0000
  H   H19       1.0  0.08967  0.38481  0.47479  1.0000
  C   C10       1.0  0.07148  0.12995  0.10966  1.0000
  C   C11       1.0  0.09115  0.16016  0.12495  1.0000
  Fe  Fe6       1.0  0.05289  0.35473  0.11018  1.0000
  S   S9        1.0  0.23366  0.49929  0.36819  1.0000
  H   H20       1.0  0.08455  0.10324  0.10744  1.0000
  H   H21       1.0  0.11947  0.15652  0.13420  1.0000
  C   C12       1.0  0.09348  0.40723  0.04230  1.0000
  C   C13       1.0  0.11747  0.41399  0.07388  1.0000
  C   C14       1.0  0.15099  0.43204  0.06725  1.0000
  C   C15       1.0  0.24757  0.04134  0.49316  1.0000
  C   C16       1.0  0.10599  0.41005  0.46851  1.0000
  H   H22       1.0  0.11044  0.40523  0.10351  1.0000
  C   C17       1.0  0.18223  0.32396  0.05756  1.0000
  C   C18       1.0  0.36123  0.46099  0.44380  1.0000
  H   H23       1.0  0.13131  0.49000  0.18885  1.0000
  H   H24       1.0  0.09514  0.22585  0.04944  1.0000
  C   C19       1.0  0.15317  0.33444  0.03295  1.0000
  H   H25       1.0  0.08338  0.12974  0.45473  1.0000
  C   C20       1.0  0.04678  0.50806  0.28301  1.0000
  S   S10       1.0  0.05348  0.05384  0.46812  1.0000
  C   C21       1.0  0.12224  0.31167  0.02976  1.0000
  H   H26       1.0  0.33349  0.45024  0.44307  1.0000
  H   H27       1.0  0.07636  0.50486  0.27943  1.0000
  C   C22       1.0  0.18036  0.29064  0.07818  1.0000
  C   C23       1.0  0.14937  0.26816  0.07367  1.0000
  S   S11       1.0  0.05352  0.38079  0.04960  1.0000
  C   C24       1.0  0.21302  0.49804  0.11630  1.0000
  H   H28       1.0  0.05038  0.44718  0.09796  1.0000
  H   H29       1.0  0.20593  0.34189  0.06091  1.0000
  H   H30       1.0  0.14799  0.24241  0.09005  1.0000
  H   H31       1.0  0.24066  0.45855  0.15414  1.0000
  C   C25       1.0  0.04544  0.48923  0.14215  1.0000
  C   C26       1.0  0.16736  0.40512  0.49885  1.0000
  C   C27       1.0  0.18619  0.47150  0.17536  1.0000
  C   C28       1.0  0.15239  0.51507  0.13523  1.0000
  C   C29       1.0  0.16035  0.44445  0.02922  1.0000
  N   N1        1.0  0.18160  0.51807  0.10984  1.0000
  N   N2        1.0  0.12094  0.27870  0.04949  1.0000
  H   H32       1.0  0.15823  0.53029  0.05377  1.0000
  C   C30       1.0  0.15428  0.49188  0.16838  1.0000
  C   C31       1.0  0.27475  0.04114  0.46353  1.0000
  N   N3        1.0  0.13160  0.41684  0.50129  1.0000
  H   H33       1.0  0.06828  0.47891  0.15975  1.0000
  C   C32       1.0  0.20657  0.12904  0.47542  1.0000
  C   C33       1.0  0.08800  0.25555  0.04663  1.0000
  H   H34       1.0  0.28496  0.03743  0.40079  1.0000
  C   C34       1.0  0.03519  0.47132  0.10717  1.0000
  C   C35       1.0  0.17558  0.12268  0.45174  1.0000
  C   C36       1.0  0.26422  0.03753  0.42385  1.0000
  H   H35       1.0  0.07378  0.25937  0.01772  1.0000
  N   N4        1.0  0.14154  0.13465  0.46341  1.0000
  S   S12       1.0  0.33308  0.52479  0.41064  1.0000
  S   S13       1.0  0.32140  0.04437  0.47770  1.0000
  C   C37       1.0  0.04306  0.44427  0.30697  1.0000
  H   H36       1.0  0.17883  0.10770  0.42415  1.0000
  H   H37       1.0  0.23345  0.11893  0.46631  1.0000
  H   H38       1.0  0.12754  0.53099  0.13010  1.0000
  C   C38       1.0  0.13749  0.15402  0.49786  1.0000
  H   H39       1.0  0.16116  0.53365  0.23878  1.0000
  C   C39       1.0  0.21017  0.03725  0.48335  1.0000
  H   H40       1.0  0.04229  0.42583  0.28071  1.0000
  C   C40       1.0  0.03736  0.19886  0.11757  1.0000
  C   C41       1.0  0.03879  0.16379  0.21266  1.0000
  H   H41       1.0  0.04040  0.22130  0.22666  1.0000
  C   C42       1.0  0.10222  0.42051  0.00443  1.0000
  H   H42       1.0  0.18012  0.53407  0.30949  1.0000
  Fe  Fe7       1.0  0.21731  0.48627  0.96057  1.0000
  S   S14       1.0  0.27145  0.47208  0.93217  1.0000
  H   H43       1.0  0.10446  0.12356  0.59784  1.0000
  H   H44       1.0  0.13248  0.45266  0.59375  1.0000
  C   C43       1.0  0.32338  0.08056  0.83248  1.0000
  C   C44       1.0  0.10177  0.43370  0.78665  1.0000
  Fe  Fe8       1.0  0.23867  0.46639  0.87612  1.0000
  S   S15       1.0  0.24512  0.41807  0.83538  1.0000
  S   S16       1.0  0.05901  0.40597  0.65445  1.0000
  S   S17       1.0  0.04932  0.04034  0.99796  1.0000
  S   S18       1.0  0.18453  0.47476  0.90595  1.0000
  H   H45       1.0  0.06254  0.25370  0.59126  1.0000
  H   H46       1.0  0.08357  0.41576  0.97994  1.0000
  S   S19       1.0  0.15534  0.43480  0.67554  1.0000
  C   C45       1.0  0.06603  0.44361  0.77578  1.0000
  C   C46       1.0  0.13079  0.53244  0.53823  1.0000
  C   C47       1.0  0.36238  0.51591  0.96827  1.0000
  H   H47       1.0  0.29970  0.07142  0.89028  1.0000
  C   C48       1.0  0.21980  0.42275  0.79120  1.0000
  C   C49       1.0  0.20831  0.45744  0.77798  1.0000
  C   C50       1.0  0.18879  0.46095  0.74228  1.0000
  C   C51       1.0  0.17993  0.42970  0.72005  1.0000
  C   C52       1.0  0.19065  0.39489  0.73363  1.0000
  C   C53       1.0  0.21096  0.39148  0.76894  1.0000
  H   H48       1.0  0.21479  0.48168  0.79497  1.0000
  H   H49       1.0  0.18019  0.48790  0.73230  1.0000
  H   H50       1.0  0.18409  0.37066  0.71649  1.0000
  H   H51       1.0  0.21977  0.36457  0.77905  1.0000
  C   C54       1.0  0.11283  0.17902  0.61940  1.0000
  H   H52       1.0  0.22021  0.40193  0.52814  1.0000
  H   H53       1.0  0.32098  0.40604  0.86376  1.0000
  C   C55       1.0  0.12321  0.52921  0.66688  1.0000
  Fe  Fe9       1.0  0.11740  0.38768  0.66210  1.0000
  C   C56       1.0  0.13557  0.43923  0.99794  1.0000
  H   H54       1.0  0.11696  0.41371  0.76926  1.0000
  S   S20       1.0  0.10362  0.34134  0.70328  1.0000
  C   C57       1.0  0.09767  0.47502  0.84236  1.0000
  H   H55       1.0  0.34264  0.08192  0.77203  1.0000
  C   C58       1.0  0.07176  0.22544  0.59289  1.0000
  N   N5        1.0  0.06278  0.48492  0.83124  1.0000
  H   H56       1.0  0.30925  0.46855  0.83690  1.0000
  Fe  Fe10      1.0  0.27403  0.53201  0.91620  1.0000
  S   S21       1.0  0.11810  0.35212  0.60778  1.0000
  H   H57       1.0  0.25558  0.04423  0.52391  1.0000
  H   H58       1.0  0.34457  0.09907  0.84324  1.0000
  C   C59       1.0  0.17909  0.42773  0.56488  1.0000
  H   H59       1.0  0.22636  0.15288  0.52983  1.0000
  S   S22       1.0  0.11607  0.04444  0.53920  1.0000
  H   H60       1.0  0.14553  0.44183  0.82896  1.0000
  H   H61       1.0  0.36297  0.47127  0.54486  1.0000
  C   C60       1.0  0.05410  0.19835  0.57020  1.0000
  H   H62       1.0  0.12020  0.51478  0.63803  1.0000
  H   H63       1.0  0.33595  0.50269  0.97186  1.0000
  C   C61       1.0  0.10095  0.21583  0.61787  1.0000
  S   S23       1.0  0.04223  0.12891  0.54281  1.0000
  H   H64       1.0  0.11018  0.48701  0.86851  1.0000
  H   H65       1.0  0.35446  0.51866  0.84937  1.0000
  H   H66       1.0  0.13537  0.17140  0.63878  1.0000
  C   C62       1.0  0.32219  0.07102  0.79246  1.0000
  C   C63       1.0  0.09534  0.15190  0.59635  1.0000
  C   C64       1.0  0.06179  0.25986  0.74489  1.0000
  S   S24       1.0  0.24511  0.52522  0.85743  1.0000
  C   C65       1.0  0.35997  0.49088  0.85982  1.0000
  H   H67       1.0  0.18538  0.49873  0.64057  1.0000
  C   C66       1.0  0.11776  0.44945  0.82016  1.0000
  H   H68       1.0  0.06214  0.24381  0.77296  1.0000
  C   C67       1.0  0.04180  0.51083  0.85573  1.0000
  C   C68       1.0  0.20256  0.14801  0.51107  1.0000
  C   C69       1.0  0.34107  0.42776  0.86836  1.0000
  C   C70       1.0  0.04671  0.46927  0.79868  1.0000
  H   H69       1.0  0.19761  0.43245  0.58961  1.0000
  C   C71       1.0  0.18986  0.52409  0.65672  1.0000
  S   S25       1.0  0.12152  0.24875  0.64915  1.0000
  Fe  Fe11      1.0  0.09861  0.30678  0.64823  1.0000
  H   H70       1.0  0.29539  0.03801  0.74843  1.0000
  H   H71       1.0  0.14220  0.44903  0.96864  1.0000
  N   N6        1.0  0.03675  0.24262  0.71638  1.0000
  C   C72       1.0  0.16784  0.16079  0.52235  1.0000
  Fe  Fe12      1.0  0.06000  0.06995  0.53216  1.0000
  H   H72       1.0  0.07442  0.19925  0.70323  1.0000
  C   C73       1.0  0.14251  0.43922  0.56722  1.0000
  H   H73       1.0  0.12934  0.50977  0.51767  1.0000
  C   C74       1.0  0.29539  0.04622  0.77933  1.0000
  C   C75       1.0  0.33444  0.46292  0.85321  1.0000
  C   C76       1.0  0.29814  0.06506  0.85890  1.0000
  H   H74       1.0  0.11721  0.50937  0.69119  1.0000
  Fe  Fe13      1.0  0.05815  0.36682  0.60336  1.0000
  C   C77       1.0  0.06566  0.16153  0.57196  1.0000
  H   H75       1.0  0.09069  0.44247  0.53713  1.0000
  H   H76       1.0  0.05326  0.43116  0.75001  1.0000
  H   H77       1.0  0.05340  0.28862  0.75171  1.0000
  C   C78       1.0  0.04731  0.21089  0.69784  1.0000
  H   H78       1.0  0.16436  0.17590  0.54984  1.0000
  C   C79       1.0  0.19172  0.41065  0.53045  1.0000
  H   H79       1.0  0.24872  0.52160  0.64881  1.0000
  H   H80       1.0  0.18964  0.03716  0.50649  1.0000
  S   S26       1.0  0.20437  0.51615  0.54621  1.0000
  Fe  Fe14      1.0  0.04493  0.35675  0.69143  1.0000
  H   H81       1.0  0.06031  0.53155  0.86956  1.0000
  S   S27       1.0  0.03850  0.31865  0.63971  1.0000
  H   H82       1.0  0.33184  0.52179  0.50868  1.0000
  C   C80       1.0  0.11900  0.43341  0.53503  1.0000
  C   C81       1.0  0.36030  0.52523  0.51786  1.0000
  C   C82       1.0  0.27169  0.04038  0.84477  1.0000
  H   H83       1.0  0.09020  0.26105  0.73251  1.0000
  H   H84       1.0  0.11064  0.16430  0.50658  1.0000
  S   S28       1.0  0.03486  0.37884  0.54281  1.0000
  S   S29       1.0  0.10977  0.57902  0.19441  1.0000
  N   N7        1.0  0.09262  0.61943  0.48383  1.0000
  H   H85       1.0  0.25376  0.94397  0.40377  1.0000
  C   C83       1.0  0.19962  0.03329  0.44373  1.0000
  C   C84       1.0  0.28463  0.90865  0.00966  1.0000
  S   S30       1.0  0.07025  0.00257  0.08503  1.0000
  C   C85       1.0  0.05544  0.62177  0.49002  1.0000
  Fe  Fe15      1.0  0.07239  0.62705  0.18012  1.0000
  S   S31       1.0  0.15158  0.00033  0.01486  1.0000
  C   C86       1.0  0.21983  0.94478  0.45647  1.0000
  S   S32       1.0  0.15919  0.58270  0.37462  1.0000
  Fe  Fe16      1.0  0.19609  0.53863  0.39956  1.0000
  H   H86       1.0  0.12307  0.66912  0.48134  1.0000
  S   S33       1.0  0.23770  0.55287  0.44610  1.0000
  H   H87       1.0  0.20501  0.54507  0.05905  1.0000
  H   H88       1.0  0.11366  0.82548  0.09741  1.0000
  C   C87       1.0  0.08440  0.82815  0.10282  1.0000
  C   C88       1.0  0.06730  0.86273  0.09841  1.0000
  C   C89       1.0  0.10673  0.59307  0.45927  1.0000
  C   C90       1.0  0.08353  0.56746  0.44104  1.0000
  Fe  Fe17      1.0  0.05777  0.70538  0.14919  1.0000
  N   N8        1.0  0.05317  0.79940  0.22218  1.0000
  H   H89       1.0  0.13616  0.59157  0.45388  1.0000
  S   S34       1.0  0.07618  0.68276  0.20811  1.0000
  S   S35       1.0  0.08728  0.75520  0.12380  1.0000
  H   H90       1.0  0.31223  0.95154  0.44129  1.0000
  H   H91       1.0  0.08340  0.88655  0.08994  1.0000
  C   C91       1.0  0.12374  0.57946  0.24451  1.0000
  C   C92       1.0  0.14924  0.55353  0.25873  1.0000
  C   C93       1.0  0.16009  0.55378  0.29881  1.0000
  C   C94       1.0  0.14563  0.58018  0.32464  1.0000
  C   C95       1.0  0.11974  0.60560  0.31053  1.0000
  C   C96       1.0  0.10878  0.60517  0.27071  1.0000
  Fe  Fe18      1.0  0.10791  0.02526  0.47671  1.0000
  H   H92       1.0  0.36576  0.61271  0.49862  1.0000
  H   H93       1.0  0.10821  0.62588  0.33044  1.0000
  H   H94       1.0  0.08837  0.62459  0.26059  1.0000
  H   H95       1.0  0.21875  0.03088  0.38323  1.0000
  H   H96       1.0  0.04170  0.74754  0.24962  1.0000
  C   C97       1.0  0.11747  0.64614  0.50231  1.0000
  C   C98       1.0  0.28615  0.94959  0.45695  1.0000
  H   H97       1.0  0.10721  0.79978  0.24610  1.0000
  Fe  Fe19      1.0  0.08907  0.99756  0.02124  1.0000
  H   H98       1.0  0.10476  0.80743  0.19293  1.0000
  H   H99       1.0  0.04703  0.56441  0.26216  1.0000
  H   H100      1.0  0.09782  0.76245  0.21211  1.0000
  H   H101      1.0  0.16214  0.96189  0.50015  1.0000
  S   S36       1.0  0.15293  0.02802  0.43021  1.0000
  C   C99       1.0  0.17836  0.54216  0.07502  1.0000
  S   S37       1.0  0.05150  0.94988  0.00753  1.0000
  H   H102      1.0  0.09501  0.54682  0.42141  1.0000
  S   S38       1.0  0.06002  0.64989  0.11942  1.0000
  C   C100      1.0  0.06406  0.79724  0.11500  1.0000
  H   H103      1.0  0.16908  0.57008  0.08402  1.0000
  H   H104      1.0  0.22577  0.91497  0.01070  1.0000
  C   C101      1.0  0.03925  0.83268  0.21028  1.0000
  S   S39       1.0  0.08074  0.97196  0.49322  1.0000
  C   C102      1.0  0.36156  0.58552  0.48444  1.0000
  C   C103      1.0  0.09272  0.79203  0.21840  1.0000
  H   H105      1.0  0.19433  0.94269  0.43979  1.0000
  H   H106      1.0  0.33140  0.58085  0.48134  1.0000
  C   C104      1.0  0.25333  0.94546  0.43591  1.0000
  C   C105      1.0  0.28518  0.95247  0.49818  1.0000
  C   C106      1.0  0.04567  0.56896  0.44816  1.0000
  H   H107      1.0  0.28887  0.92471  0.03632  1.0000
  N   N9        1.0  0.21910  0.94821  0.49688  1.0000
  H   H108      1.0  0.05699  0.85313  0.19656  1.0000
  C   C107      1.0  0.22672  0.03376  0.41400  1.0000
  H   H109      1.0  0.26942  0.98175  0.94726  1.0000
  H   H110      1.0  0.25970  0.58069  0.68438  1.0000
  S   S40       1.0  0.14027  0.56053  0.86893  1.0000
  Fe  Fe20      1.0  0.31453  0.94733  0.87375  1.0000
  S   S41       1.0  0.25202  0.94543  0.87259  1.0000
  H   H111      1.0  0.10404  0.91047  0.53288  1.0000
  H   H112      1.0  0.23324  0.01112  0.76157  1.0000
  H   H113      1.0  0.13332  0.96941  0.93721  1.0000
  C   C108      1.0  0.18365  0.94739  0.51774  1.0000
  S   S42       1.0  0.08310  0.74520  0.68610  1.0000
  C   C109      1.0  0.31465  0.89348  0.98964  1.0000
  Fe  Fe21      1.0  0.07063  0.65651  0.62319  1.0000
  S   S43       1.0  0.12390  0.68734  0.62540  1.0000
  S   S44       1.0  0.06016  0.60543  0.58747  1.0000
  Fe  Fe22      1.0  0.11219  0.69050  0.69076  1.0000
  S   S45       1.0  0.15966  0.67810  0.73173  1.0000
  Fe  Fe23      1.0  0.08984  0.73870  0.62039  1.0000
  S   S46       1.0  0.10037  0.78179  0.57320  1.0000
  N   N10       1.0  0.16067  0.54364  0.67141  1.0000
  N   N11       1.0  0.24355  0.88353  0.96082  1.0000
  Fe  Fe24      1.0  0.08536  0.99247  0.55546  1.0000
  S   S47       1.0  0.10249  0.95395  0.60526  1.0000
  H   H114      1.0  0.26856  0.85346  0.91370  1.0000
  S   S48       1.0  0.03732  0.70728  0.61233  1.0000
  C   C110      1.0  0.27284  0.86868  0.94095  1.0000
  C   C111      1.0  0.10450  0.90600  0.59644  1.0000
  C   C112      1.0  0.10423  0.89206  0.55787  1.0000
  H   H115      1.0  0.07766  0.61777  0.88972  1.0000
  C   C113      1.0  0.10384  0.82925  0.58341  1.0000
  C   C114      1.0  0.10493  0.84296  0.62214  1.0000
  C   C115      1.0  0.10551  0.88128  0.62859  1.0000
  C   C116      1.0  0.10410  0.85395  0.55140  1.0000
  C   C117      1.0  0.16459  0.54227  0.55506  1.0000
  H   H116      1.0  0.10524  0.82412  0.64705  1.0000
  H   H117      1.0  0.10613  0.89179  0.65857  1.0000
  C   C118      1.0  0.10033  0.58101  0.57533  1.0000
  C   C119      1.0  0.13426  0.59120  0.59143  1.0000
  C   C120      1.0  0.16630  0.57196  0.58123  1.0000
  S   S49       1.0  0.34739  0.89623  0.86076  1.0000
  S   S50       1.0  0.32720  0.56492  0.91833  1.0000
  H   H118      1.0  0.13586  0.61341  0.61238  1.0000
  C   C121      1.0  0.09857  0.55146  0.54881  1.0000
  H   H119      1.0  0.20433  0.59937  0.83938  1.0000
  C   C122      1.0  0.14604  0.59251  0.83031  1.0000
  C   C123      1.0  0.18059  0.60759  0.82207  1.0000
  C   C124      1.0  0.18432  0.63418  0.79203  1.0000
  C   C125      1.0  0.15364  0.64549  0.76987  1.0000
  C   C126      1.0  0.11912  0.63010  0.77791  1.0000
  C   C127      1.0  0.11533  0.60366  0.80809  1.0000
  H   H120      1.0  0.21107  0.64614  0.78611  1.0000
  H   H121      1.0  0.09528  0.63893  0.76136  1.0000
  H   H122      1.0  0.08856  0.59193  0.81431  1.0000
  C   C128      1.0  0.22429  0.96349  0.91094  1.0000
  C   C129      1.0  0.23984  0.97925  0.94475  1.0000
  C   C130      1.0  0.16643  0.57592  0.69129  1.0000
  H   H123      1.0  0.18587  0.89616  0.95968  1.0000
  C   C131      1.0  0.16293  0.97230  0.93936  1.0000
  C   C132      1.0  0.18578  0.96065  0.90804  1.0000
  H   H124      1.0  0.25795  0.97650  0.78990  1.0000
  C   C133      1.0  0.17853  0.98722  0.97362  1.0000
  N   N12       1.0  0.27040  0.03149  0.80536  1.0000
  S   S51       1.0  0.06078  0.65617  0.68869  1.0000
  H   H125      1.0  0.20495  0.88150  0.91348  1.0000
  C   C134      1.0  0.21700  0.99102  0.97595  1.0000
  C   C135      1.0  0.20613  0.87696  0.94612  1.0000
  H   H126      1.0  0.17352  0.94864  0.88185  1.0000
  C   C136      1.0  0.24899  0.90303  0.99499  1.0000
  H   H127      1.0  0.19759  0.84830  0.95299  1.0000
  H   H128      1.0  0.19247  0.58002  0.59384  1.0000
  C   C137      1.0  0.30874  0.87315  0.95524  1.0000
  C   C138      1.0  0.20209  0.58977  0.69603  1.0000
  H   H129      1.0  0.14343  0.59148  0.70317  1.0000
  S   S52       1.0  0.34396  0.97970  0.82693  1.0000
  S   S53       1.0  0.35099  0.96716  0.92312  1.0000
  C   C139      1.0  0.05126  0.66255  0.85845  1.0000
  C   C140      1.0  0.05302  0.63465  0.88698  1.0000
  H   H130      1.0  0.20650  0.61573  0.71114  1.0000
  C   C141      1.0  0.22587  0.53702  0.66116  1.0000
  H   H131      1.0  0.07449  0.66755  0.83887  1.0000
  S   S54       1.0  0.22192  0.54698  0.94887  1.0000
  H   H132      1.0  0.10243  0.55173  0.66707  1.0000
  H   H133      1.0  0.22021  0.00112  0.81183  1.0000
  C   C142      1.0  0.24413  0.00381  0.79137  1.0000
  H   H134      1.0  0.17495  0.91845  0.52286  1.0000
  H   H135      1.0  0.25071  0.95399  0.54987  1.0000
  H   H136      1.0  0.10346  0.84353  0.52138  1.0000
  H   H137      1.0  0.10544  0.65746  0.53007  1.0000
  C   C143      1.0  0.36542  0.54760  0.94494  1.0000
  H   H138      1.0  0.33192  0.86102  0.93968  1.0000
  H   H139      1.0  0.07233  0.54344  0.53625  1.0000
  H   H140      1.0  0.04419  0.64270  0.50941  1.0000
  H   H141      1.0  0.18513  0.96158  0.54689  1.0000
  C   C144      1.0  0.23195  0.57012  0.68092  1.0000
  H   H142      1.0  0.25277  0.02772  0.86568  1.0000
  H   H143      1.0  0.14397  0.63284  0.51071  1.0000
  H   H144      1.0  0.22919  0.00278  0.00231  1.0000
  H   H145      1.0  0.34253  0.89745  0.00057  1.0000
  Fe  Fe25      1.0  0.19278  0.53441  0.89160  1.0000
  H   H146      1.0  0.31054  0.95667  0.51460  1.0000
  C   C145      1.0  0.25123  0.95138  0.51785  1.0000
  Fe  Fe26      1.0  0.63567  0.17595  0.11607  1.0000
  S   S55       1.0  0.64481  0.23149  0.14354  1.0000
  S   S56       1.0  0.67431  0.15328  0.07006  1.0000
  Fe  Fe27      1.0  0.57317  0.15572  0.17229  1.0000
  S   S57       1.0  0.57621  0.20990  0.20387  1.0000
  S   S58       1.0  0.54060  0.10528  0.19066  1.0000
  Fe  Fe28      1.0  0.58308  0.23520  0.14314  1.0000
  S   S59       1.0  0.55099  0.28735  0.12953  1.0000
  Fe  Fe29      1.0  0.63720  0.20185  0.20136  1.0000
  S   S60       1.0  0.46049  0.42795  0.48602  1.0000
  S   S61       1.0  0.57421  0.18131  0.11136  1.0000
  S   S62       1.0  0.63401  0.14615  0.17409  1.0000
  H   H147      1.0  0.63091  0.12274  0.41162  1.0000
  H   H148      1.0  0.68375  0.28490  0.22336  1.0000
  C   C146      1.0  0.54286  0.12934  0.37869  1.0000
  S   S63       1.0  0.54511  0.50787  0.07476  1.0000
  C   C147      1.0  0.52908  0.09698  0.39530  1.0000
  Fe  Fe30      1.0  0.59558  0.48361  0.04694  1.0000
  S   S64       1.0  0.62792  0.43226  0.06337  1.0000
  Fe  Fe31      1.0  0.42491  0.07280  0.37794  1.0000
  S   S65       1.0  0.37029  0.04517  0.36827  1.0000
  S   S66       1.0  0.44321  0.12409  0.34548  1.0000
  H   H149      1.0  0.38403  0.41291  0.47248  1.0000
  C   C148      1.0  0.55243  0.07416  0.41738  1.0000
  S   S67       1.0  0.63392  0.49551  0.44501  1.0000
  H   H150      1.0  0.51367  0.36960  0.49304  1.0000
  C   C149      1.0  0.66041  0.30267  0.21683  1.0000
  S   S68       1.0  0.53587  0.51152  0.48988  1.0000
  H   H151      1.0  0.45957  0.06878  0.17028  1.0000
  C   C150      1.0  0.42586  0.45396  0.46232  1.0000
  C   C151      1.0  0.38990  0.43990  0.46040  1.0000
  C   C152      1.0  0.61238  0.05998  0.44751  1.0000
  C   C153      1.0  0.68015  0.48248  0.45331  1.0000
  S   S69       1.0  0.42078  0.07071  0.44450  1.0000
  H   H152      1.0  0.69170  0.34094  0.18129  1.0000
  C   C154      1.0  0.69079  0.12018  0.32708  1.0000
  H   H153      1.0  0.54295  0.33018  0.24573  1.0000
  C   C155      1.0  0.63282  0.14972  0.28228  1.0000
  H   H154      1.0  0.46102  0.49956  0.44723  1.0000
  C   C156      1.0  0.51495  0.11078  0.23462  1.0000
  C   C157      1.0  0.50241  0.07961  0.25513  1.0000
  C   C158      1.0  0.48052  0.08339  0.28921  1.0000
  C   C159      1.0  0.47105  0.11837  0.30310  1.0000
  C   C160      1.0  0.48383  0.14953  0.28275  1.0000
  C   C161      1.0  0.50567  0.14575  0.24860  1.0000
  H   H155      1.0  0.59094  0.16350  0.37135  1.0000
  C   C162      1.0  0.63438  0.35611  0.18468  1.0000
  H   H156      1.0  0.47637  0.17670  0.29308  1.0000
  H   H157      1.0  0.51433  0.16996  0.23252  1.0000
  C   C163      1.0  0.57218  0.32654  0.10820  1.0000
  C   C164      1.0  0.55154  0.35902  0.10365  1.0000
  C   C165      1.0  0.56805  0.39143  0.08912  1.0000
  C   C166      1.0  0.60545  0.39162  0.07920  1.0000
  C   C167      1.0  0.62599  0.35903  0.08324  1.0000
  C   C168      1.0  0.60942  0.32657  0.09754  1.0000
  H   H158      1.0  0.52269  0.35920  0.11173  1.0000
  H   H159      1.0  0.55195  0.41635  0.08608  1.0000
  H   H160      1.0  0.65493  0.35894  0.07556  1.0000
  H   H161      1.0  0.62559  0.30175  0.10076  1.0000
  C   C169      1.0  0.65762  0.11587  0.04293  1.0000
  C   C170      1.0  0.65699  0.10182  0.32533  1.0000
  H   H162      1.0  0.57593  0.36261  0.19113  1.0000
  H   H163      1.0  0.60025  0.12993  0.04906  1.0000
  C   C171      1.0  0.69546  0.15364  0.30656  1.0000
  C   C172      1.0  0.55895  0.30538  0.23713  1.0000
  H   H164      1.0  0.62228  0.26922  0.24940  1.0000
  Fe  Fe32      1.0  0.59145  0.48373  0.49273  1.0000
  S   S70       1.0  0.64998  0.05967  0.34949  1.0000
  H   H165      1.0  0.56051  0.28699  0.26349  1.0000
  N   N13       1.0  0.59570  0.31564  0.22283  1.0000
  C   C173      1.0  0.59973  0.34619  0.19938  1.0000
  C   C174      1.0  0.62544  0.29384  0.23143  1.0000
  C   C175      1.0  0.63729  0.05124  0.23353  1.0000
  H   H166      1.0  0.61290  0.07037  0.47844  1.0000
  H   H167      1.0  0.47022  0.05918  0.30395  1.0000
  Fe  Fe33      1.0  0.52513  0.51678  0.01224  1.0000
  S   S71       1.0  0.67295  0.20808  0.25504  1.0000
  C   C176      1.0  0.61987  0.11075  0.03671  1.0000
  C   C177      1.0  0.57967  0.13876  0.38476  1.0000
  C   C178      1.0  0.42339  0.05514  0.21885  1.0000
  C   C179      1.0  0.68288  0.09098  0.02681  1.0000
  N   N14       1.0  0.58854  0.08348  0.42305  1.0000
  C   C180      1.0  0.44385  0.04719  0.18487  1.0000
  C   C181      1.0  0.60416  0.05849  0.12018  1.0000
  C   C182      1.0  0.60216  0.11556  0.40754  1.0000
  H   H168      1.0  0.54818  0.03973  0.12610  1.0000
  Fe  Fe34      1.0  0.36898  0.03772  0.43452  1.0000
  H   H169      1.0  0.50886  0.05243  0.24428  1.0000
  H   H170      1.0  0.61036  0.16074  0.26485  1.0000
  C   C183      1.0  0.40484  0.50943  0.42895  1.0000
  H   H171      1.0  0.60159  0.10291  0.30229  1.0000
  C   C184      1.0  0.66484  0.33403  0.19329  1.0000
  C   C185      1.0  0.62787  0.11696  0.30351  1.0000
  H   H172      1.0  0.52498  0.14693  0.36107  1.0000
  H   H173      1.0  0.39102  0.47628  0.00458  1.0000
  H   H174      1.0  0.57839  0.07787  0.00769  1.0000
  H   H175      1.0  0.64095  0.05958  0.43566  1.0000
  C   C186      1.0  0.66662  0.16811  0.28363  1.0000
  H   H176      1.0  0.50046  0.08959  0.39100  1.0000
  C   C187      1.0  0.43332  0.48871  0.44633  1.0000
  H   H177      1.0  0.42290  0.08294  0.23061  1.0000
  H   H178      1.0  0.54374  0.29080  0.21329  1.0000
  H   H179      1.0  0.66168  0.06929  0.11148  1.0000
  C   C188      1.0  0.69153  0.46852  0.49001  1.0000
  H   H180      1.0  0.59765  0.08665  0.12818  1.0000
  C   C189      1.0  0.64028  0.04846  0.11051  1.0000
  H   H181      1.0  0.69773  0.49898  0.39483  1.0000
  H   H182      1.0  0.61729  0.07428  0.23002  1.0000
  C   C190      1.0  0.60753  0.08134  0.01327  1.0000
  H   H183      1.0  0.63731  0.38015  0.16568  1.0000
  H   H184      1.0  0.44995  0.34589  0.49594  1.0000
  H   H185      1.0  0.64839  0.04364  0.20403  1.0000
  H   H186      1.0  0.54153  0.04885  0.42967  1.0000
  H   H187      1.0  0.66027  0.06172  0.25214  1.0000
  H   H188      1.0  0.47216  0.53221  0.11101  1.0000
  S   S72       1.0  0.56742  0.42761  0.50303  1.0000
  C   C191      1.0  0.36861  0.49596  0.42830  1.0000
  H   H189      1.0  0.43819  0.28334  0.52410  1.0000
  H   H190      1.0  0.42361  0.12100  0.83312  1.0000
  H   H191      1.0  0.46319  0.53396  0.54469  1.0000
  Fe  Fe35      1.0  0.51100  0.20445  0.65946  1.0000
  S   S73       1.0  0.56997  0.18676  0.66789  1.0000
  S   S74       1.0  0.49017  0.25906  0.63586  1.0000
  Fe  Fe36      1.0  0.48073  0.12946  0.68382  1.0000
  S   S75       1.0  0.53675  0.10612  0.69412  1.0000
  S   S76       1.0  0.43571  0.08823  0.69274  1.0000
  Fe  Fe37      1.0  0.54876  0.15971  0.72366  1.0000
  S   S77       1.0  0.57269  0.15687  0.78520  1.0000
  Fe  Fe38      1.0  0.55175  0.13465  0.63755  1.0000
  S   S78       1.0  0.58498  0.10147  0.59411  1.0000
  S   S79       1.0  0.49110  0.18125  0.71764  1.0000
  S   S80       1.0  0.49459  0.15416  0.62485  1.0000
  N   N15       1.0  0.39851  0.44851  0.89582  1.0000
  S   S81       1.0  0.60068  0.49569  0.55733  1.0000
  C   C192      1.0  0.67077  0.07869  0.79218  1.0000
  S   S82       1.0  0.51605  0.46629  0.57184  1.0000
  H   H192      1.0  0.66771  0.12954  0.94980  1.0000
  Fe  Fe39      1.0  0.57225  0.44125  0.56753  1.0000
  S   S83       1.0  0.59386  0.39737  0.60915  1.0000
  C   C193      1.0  0.51869  0.29826  0.63245  1.0000
  C   C194      1.0  0.50456  0.33025  0.61464  1.0000
  C   C195      1.0  0.52736  0.36081  0.60758  1.0000
  C   C196      1.0  0.56436  0.35987  0.61902  1.0000
  C   C197      1.0  0.57828  0.32828  0.63795  1.0000
  C   C198      1.0  0.55556  0.29745  0.64450  1.0000
  H   H193      1.0  0.47602  0.33114  0.60543  1.0000
  H   H194      1.0  0.51630  0.38501  0.59314  1.0000
  H   H195      1.0  0.60684  0.32750  0.64710  1.0000
  H   H196      1.0  0.56668  0.27301  0.65846  1.0000
  H   H197      1.0  0.67893  0.09161  0.73030  1.0000
  H   H198      1.0  0.61577  0.05971  0.67820  1.0000
  H   H199      1.0  0.54644  0.07133  0.90696  1.0000
  C   C199      1.0  0.56148  0.26444  0.55038  1.0000
  C   C200      1.0  0.41733  0.06270  0.82373  1.0000
  C   C201      1.0  0.54717  0.06516  0.87549  1.0000
  H   H200      1.0  0.41162  0.50516  0.88643  1.0000
  Fe  Fe40      1.0  0.54351  0.51958  0.55535  1.0000
  C   C202      1.0  0.49569  0.27295  0.53624  1.0000
  H   H201      1.0  0.55218  0.24542  0.57434  1.0000
  C   C203      1.0  0.42832  0.51759  0.98227  1.0000
  N   N16       1.0  0.52730  0.08587  0.84907  1.0000
  H   H202      1.0  0.49785  0.13608  0.83933  1.0000
  C   C204      1.0  0.42423  0.09896  0.81165  1.0000
  H   H203      1.0  0.69647  0.16073  0.97735  1.0000
  C   C205      1.0  0.39217  0.48310  0.88110  1.0000
  H   H204      1.0  0.43830  0.04088  0.57453  1.0000
  H   H205      1.0  0.47825  0.06879  0.51045  1.0000
  C   C206      1.0  0.64999  0.08629  0.82613  1.0000
  C   C207      1.0  0.62077  0.11153  0.82414  1.0000
  C   C208      1.0  0.61114  0.12780  0.78786  1.0000
  C   C209      1.0  0.63185  0.12017  0.75393  1.0000
  C   C210      1.0  0.66225  0.09642  0.75636  1.0000
  H   H206      1.0  0.65639  0.07279  0.85389  1.0000
  H   H207      1.0  0.60500  0.11775  0.85049  1.0000
  H   H208      1.0  0.62486  0.13319  0.72598  1.0000
  H   H209      1.0  0.55074  0.04331  0.76372  1.0000
  H   H210      1.0  0.49029  0.24606  0.54910  1.0000
  C   C211      1.0  0.37775  0.49648  0.53828  1.0000
  C   C212      1.0  0.55988  0.07409  0.56061  1.0000
  S   S84       1.0  0.57433  0.48902  0.98473  1.0000
  C   C213      1.0  0.43091  0.10692  0.77147  1.0000
  C   C214      1.0  0.42958  0.07876  0.74326  1.0000
  H   H211      1.0  0.51181  0.09392  0.78856  1.0000
  H   H212      1.0  0.68318  0.52466  0.98994  1.0000
  H   H213      1.0  0.43570  0.13501  0.76212  1.0000
  H   H214      1.0  0.57356  0.24810  0.52589  1.0000
  C   C215      1.0  0.52441  0.08373  0.54767  1.0000
  H   H215      1.0  0.63068  0.47704  0.91837  1.0000
  H   H216      1.0  0.51188  0.10896  0.55775  1.0000
  H   H217      1.0  0.44686  0.41671  0.90618  1.0000
  H   H218      1.0  0.67149  0.46356  0.51317  1.0000
  C   C216      1.0  0.68929  0.15110  0.94698  1.0000
  C   C217      1.0  0.50546  0.06112  0.52060  1.0000
  Fe  Fe41      1.0  0.51262  0.45635  0.50640  1.0000
  H   H219      1.0  0.42922  0.47696  0.56248  1.0000
  N   N17       1.0  0.53075  0.28679  0.53551  1.0000
  C   C218      1.0  0.65769  0.46483  0.92262  1.0000
  H   H220      1.0  0.46586  0.06043  0.61348  1.0000
  H   H221      1.0  0.58315  0.28217  0.56369  1.0000
  C   C219      1.0  0.39367  0.50103  0.98685  1.0000
  H   H222      1.0  0.64540  0.44331  0.98088  1.0000
  C   C220      1.0  0.52773  0.07761  0.80950  1.0000
  S   S85       1.0  0.40612  0.05278  0.87334  1.0000
  C   C221      1.0  0.46606  0.29394  0.52220  1.0000
  H   H223      1.0  0.56515  0.33218  0.51957  1.0000
  H   H224      1.0  0.42466  0.43459  0.95021  1.0000
  C   C222      1.0  0.37335  0.42104  0.88992  1.0000
  H   H225      1.0  0.67767  0.17507  0.93067  1.0000
  C   C223      1.0  0.57616  0.04182  0.54643  1.0000
  C   C224      1.0  0.66603  0.44623  0.95778  1.0000
  H   H226      1.0  0.51981  0.13229  0.88647  1.0000
  C   C225      1.0  0.41494  0.49965  0.54810  1.0000
  C   C226      1.0  0.53746  0.32092  0.51979  1.0000
  C   C227      1.0  0.50468  0.11637  0.86362  1.0000
  C   C228      1.0  0.43194  0.44065  0.91882  1.0000
  H   H227      1.0  0.45128  0.46439  0.91911  1.0000
  C   C229      1.0  0.42283  0.04260  0.75540  1.0000
  H   H228      1.0  0.47868  0.10545  0.87654  1.0000
  H   H229      1.0  0.37811  0.39375  0.90203  1.0000
  C   C230      1.0  0.47260  0.32894  0.50656  1.0000
  C   C231      1.0  0.43411  0.53151  0.53780  1.0000
  C   C232      1.0  0.63298  0.05719  0.99610  1.0000
  H   H230      1.0  0.42266  0.03830  0.62501  1.0000
  C   C233      1.0  0.44749  0.03706  0.60573  1.0000
  C   C234      1.0  0.68490  0.46890  0.89356  1.0000
  H   H231      1.0  0.67845  0.48417  0.86673  1.0000
  H   H232      1.0  0.60374  0.03434  0.55570  1.0000
  C   C235      1.0  0.54972  0.04893  0.79525  1.0000
  C   C236      1.0  0.56936  0.03621  0.86229  1.0000
  H   H233      1.0  0.69704  0.14247  0.86896  1.0000
  H   H234      1.0  0.69032  0.04237  0.99159  1.0000
  C   C237      1.0  0.67059  0.06162  0.00360  1.0000
  C   C238      1.0  0.70138  0.43217  0.96359  1.0000
  C   C239      1.0  0.41748  0.03453  0.79558  1.0000
  C   C240      1.0  0.50850  0.34239  0.50503  1.0000
  S   S86       1.0  0.46687  0.49552  0.00361  1.0000
  C   C241      1.0  0.69993  0.53416  0.96554  1.0000
  Fe  Fe42      1.0  0.52755  0.90027  0.12824  1.0000
  S   S87       1.0  0.50851  0.84607  0.15290  1.0000
  S   S88       1.0  0.49260  0.94380  0.09914  1.0000
  Fe  Fe43      1.0  0.60719  0.88843  0.15424  1.0000
  S   S89       1.0  0.59549  0.83230  0.17939  1.0000
  S   S90       1.0  0.65880  0.92240  0.16021  1.0000
  Fe  Fe44      1.0  0.56050  0.82363  0.12499  1.0000
  S   S91       1.0  0.56073  0.77644  0.08062  1.0000
  Fe  Fe45      1.0  0.54513  0.85956  0.20492  1.0000
  S   S92       1.0  0.53538  0.86057  0.27092  1.0000
  S   S93       1.0  0.57709  0.87788  0.09736  1.0000
  S   S94       1.0  0.55891  0.91569  0.18243  1.0000
  S   S95       1.0  0.57152  0.60501  0.11709  1.0000
  H   H235      1.0  0.64637  0.72014  0.08911  1.0000
  H   H236      1.0  0.52024  0.90636  0.33849  1.0000
  H   H237      1.0  0.46504  0.94190  0.35818  1.0000
  H   H238      1.0  0.58418  0.92779  0.48740  1.0000
  H   H239      1.0  0.39051  0.96974  0.23816  1.0000
  H   H240      1.0  0.40906  0.90520  0.25342  1.0000
  N   N18       1.0  0.64828  0.01315  0.09931  1.0000
  N   N19       1.0  0.64674  0.69751  0.03072  1.0000
  C   C242      1.0  0.40546  0.99134  0.22285  1.0000
  C   C243      1.0  0.49645  0.88660  0.28396  1.0000
  C   C244      1.0  0.46528  0.88697  0.25961  1.0000
  C   C245      1.0  0.43369  0.90641  0.27133  1.0000
  C   C246      1.0  0.43366  0.92679  0.30654  1.0000
  C   C247      1.0  0.46507  0.92689  0.33056  1.0000
  C   C248      1.0  0.49628  0.90651  0.31949  1.0000
  H   H241      1.0  0.46505  0.87110  0.23253  1.0000
  H   H242      1.0  0.66190  0.60807  0.00799  1.0000
  H   H243      1.0  0.68670  0.99329  0.05714  1.0000
  C   C249      1.0  0.67844  0.91730  0.20769  1.0000
  C   C250      1.0  0.45565  0.58620  0.06401  1.0000
  H   H244      1.0  0.62583  0.75264  0.03195  1.0000
  H   H245      1.0  0.44831  0.97832  0.03861  1.0000
  C   C251      1.0  0.67597  0.87305  0.43226  1.0000
  C   C252      1.0  0.67117  0.88593  0.23049  1.0000
  Fe  Fe46      1.0  0.57228  0.56311  0.06738  1.0000
  H   H246      1.0  0.42317  0.94639  0.14073  1.0000
  C   C253      1.0  0.44978  0.94916  0.03243  1.0000
  H   H247      1.0  0.65416  0.86432  0.21875  1.0000
  C   C254      1.0  0.56771  0.65259  0.10676  1.0000
  C   C255      1.0  0.56965  0.67792  0.13808  1.0000
  C   C256      1.0  0.56692  0.71603  0.13077  1.0000
  C   C257      1.0  0.56193  0.72899  0.09205  1.0000
  C   C258      1.0  0.55931  0.70359  0.06085  1.0000
  C   C259      1.0  0.56244  0.66558  0.06809  1.0000
  H   H248      1.0  0.57366  0.66808  0.16812  1.0000
  H   H249      1.0  0.56902  0.73537  0.15502  1.0000
  H   H250      1.0  0.55529  0.71343  0.03082  1.0000
  H   H251      1.0  0.56083  0.64642  0.04375  1.0000
  C   C260      1.0  0.47002  0.92586  0.05750  1.0000
  C   C261      1.0  0.47214  0.88827  0.04920  1.0000
  C   C262      1.0  0.57568  0.85265  0.41861  1.0000
  C   C263      1.0  0.40448  0.02698  0.23834  1.0000
  H   H252      1.0  0.48787  0.87012  0.06826  1.0000
  C   C264      1.0  0.62110  0.98716  0.09779  1.0000
  H   H253      1.0  0.60200  0.85786  0.32197  1.0000
  H   H254      1.0  0.56343  0.97542  0.10634  1.0000
  H   H255      1.0  0.66844  0.00247  0.28268  1.0000
  H   H256      1.0  0.60258  0.03100  0.44774  1.0000
  N   N20       1.0  0.42498  0.98387  0.18908  1.0000
  C   C265      1.0  0.58478  0.99620  0.10759  1.0000
  H   H257      1.0  0.63996  0.96429  0.47031  1.0000
  H   H258      1.0  0.64073  0.56449  0.48881  1.0000
  S   S96       1.0  0.39834  0.98315  0.43374  1.0000
  H   H259      1.0  0.57525  0.93068  0.29432  1.0000
  H   H260      1.0  0.68040  0.85467  0.45826  1.0000
  Fe  Fe47      1.0  0.45000  0.01677  0.43918  1.0000
  C   C266      1.0  0.63996  0.99613  0.27574  1.0000
  H   H261      1.0  0.54646  0.84651  0.36313  1.0000
  H   H262      1.0  0.50629  0.55826  0.13721  1.0000
  H   H263      1.0  0.45508  0.67560  0.03363  1.0000
  C   C267      1.0  0.63777  0.86525  0.37268  1.0000
  C   C268      1.0  0.44950  0.61670  0.03939  1.0000
  S   S97       1.0  0.49890  0.99797  0.47509  1.0000
  C   C269      1.0  0.47463  0.65592  0.09020  1.0000
  C   C270      1.0  0.47723  0.55864  0.12666  1.0000
  C   C271      1.0  0.44447  0.01111  0.17040  1.0000
  C   C272      1.0  0.48035  0.62484  0.11405  1.0000
  C   C273      1.0  0.60399  0.85840  0.35413  1.0000
  C   C274      1.0  0.63939  0.94811  0.49725  1.0000
  C   C275      1.0  0.60999  0.85924  0.43616  1.0000
  H   H264      1.0  0.66593  0.60396  0.08168  1.0000
  H   H265      1.0  0.65835  0.66038  0.12213  1.0000
  C   C276      1.0  0.42641  0.94627  0.17353  1.0000
  H   H266      1.0  0.62754  0.95910  0.08923  1.0000
  C   C277      1.0  0.57278  0.85200  0.37730  1.0000
  H   H267      1.0  0.61203  0.85942  0.46831  1.0000
  C   C278      1.0  0.45348  0.87385  0.01637  1.0000
  S   S98       1.0  0.45835  0.02134  0.37360  1.0000
  C   C279      1.0  0.66113  0.63029  0.06727  1.0000
  C   C280      1.0  0.69580  0.57854  0.44190  1.0000
  H   H268      1.0  0.44812  0.55905  0.05347  1.0000
  H   H269      1.0  0.66182  0.87024  0.35445  1.0000
  Fe  Fe48      1.0  0.40391  0.99318  0.36831  1.0000
  H   H270      1.0  0.66886  0.58467  0.42957  1.0000
  N   N21       1.0  0.61975  0.01914  0.25199  1.0000
  H   H271      1.0  0.46060  0.00496  0.14411  1.0000
  H   H272      1.0  0.68189  0.85686  0.28500  1.0000
  C   C281      1.0  0.56712  0.97951  0.25892  1.0000
  C   C282      1.0  0.62426  0.96412  0.29151  1.0000
  C   C283      1.0  0.58765  0.95572  0.28284  1.0000
  C   C284      1.0  0.45925  0.65173  0.05258  1.0000
  S   S99       1.0  0.39417  0.95203  0.31975  1.0000
  H   H273      1.0  0.40407  0.92877  0.18582  1.0000
  C   C285      1.0  0.68597  0.00268  0.08849  1.0000
  H   H274      1.0  0.45859  0.56002  0.15273  1.0000
  H   H275      1.0  0.64061  0.94586  0.30999  1.0000
  H   H276      1.0  0.49320  0.62818  0.14290  1.0000
  C   C286      1.0  0.65856  0.63256  0.02604  1.0000
  N   N22       1.0  0.47113  0.59055  0.10073  1.0000
  S   S100      1.0  0.68410  0.97464  0.39644  1.0000
  C   C287      1.0  0.68704  0.88169  0.26811  1.0000
  C   C288      1.0  0.65710  0.66203  0.09001  1.0000
  H   H277      1.0  0.45337  0.93343  0.18101  1.0000
  H   H278      1.0  0.38944  0.03254  0.26554  1.0000
  N   N23       1.0  0.64052  0.86522  0.41319  1.0000
  N   N24       1.0  0.69920  0.56739  0.48056  1.0000
  C   C289      1.0  0.65016  0.69569  0.07113  1.0000
  H   H279      1.0  0.53862  0.97310  0.25212  1.0000
  Fe  Fe49      1.0  0.69944  0.03078  0.37462  1.0000
  H   H280      1.0  0.48291  0.68296  0.10056  1.0000
  C   C290      1.0  0.63943  0.73297  0.01132  1.0000
  C   C291      1.0  0.58385  0.01110  0.24325  1.0000
  H   H281      1.0  0.69566  0.97986  0.10802  1.0000
  H   H282      1.0  0.67660  0.90202  0.44253  1.0000
  H   H283      1.0  0.45489  0.84463  0.01033  1.0000
  H   H284      1.0  0.43732  0.61313  0.01027  1.0000
  H   H285      1.0  0.37318  0.58603  0.45391  1.0000
  H   H286      1.0  0.56810  0.02914  0.22394  1.0000
  S   S101      1.0  0.62512  0.53800  0.04610  1.0000
  C   C292      1.0  0.57629  0.03215  0.11875  1.0000
  H   H287      1.0  0.41081  0.53628  0.41658  1.0000
  H   H288      1.0  0.55156  0.84804  0.43703  1.0000
  C   C293      1.0  0.65137  0.66660  0.00813  1.0000
  S   S102      1.0  0.54915  0.57368  0.00669  1.0000
  H   H289      1.0  0.69949  0.86891  0.41152  1.0000
  S   S103      1.0  0.61824  0.02261  0.96371  1.0000
  S   S104      1.0  0.63692  0.56735  0.93610  1.0000
  H   H290      1.0  0.53516  0.58898  0.67908  1.0000
  H   H291      1.0  0.50431  0.93184  0.55948  1.0000
  C   C294      1.0  0.68670  0.95983  0.71509  1.0000
  S   S105      1.0  0.42195  0.94806  0.86409  1.0000
  C   C295      1.0  0.69007  0.86434  0.74148  1.0000
  Fe  Fe50      1.0  0.56282  0.80802  0.68344  1.0000
  S   S106      1.0  0.61731  0.77929  0.68931  1.0000
  S   S107      1.0  0.52570  0.80178  0.73649  1.0000
  Fe  Fe51      1.0  0.58238  0.84029  0.60326  1.0000
  S   S108      1.0  0.63802  0.81371  0.60269  1.0000
  S   S109      1.0  0.56821  0.87937  0.55348  1.0000
  Fe  Fe52      1.0  0.60889  0.76356  0.62568  1.0000
  S   S110      1.0  0.62863  0.70785  0.60469  1.0000
  Fe  Fe53      1.0  0.64082  0.83189  0.66594  1.0000
  Fe  Fe54      1.0  0.38055  0.93082  0.81868  1.0000
  S   S111      1.0  0.55227  0.78848  0.62111  1.0000
  S   S112      1.0  0.58716  0.86209  0.66514  1.0000
  S   S113      1.0  0.52200  0.57185  0.58353  1.0000
  C   C296      1.0  0.59783  0.67172  0.59442  1.0000
  C   C297      1.0  0.55992  0.67544  0.60055  1.0000
  C   C298      1.0  0.53663  0.64487  0.59569  1.0000
  C   C299      1.0  0.55112  0.61057  0.58457  1.0000
  C   C300      1.0  0.58886  0.60719  0.57720  1.0000
  C   C301      1.0  0.61214  0.63769  0.58225  1.0000
  H   H292      1.0  0.54868  0.70161  0.60976  1.0000
  H   H293      1.0  0.50742  0.64763  0.60131  1.0000
  H   H294      1.0  0.60021  0.58084  0.56879  1.0000
  H   H295      1.0  0.64148  0.63477  0.57772  1.0000
  C   C302      1.0  0.60683  0.90661  0.54200  1.0000
  H   H296      1.0  0.56397  0.94583  0.97641  1.0000
  C   C303      1.0  0.51176  0.89839  0.91325  1.0000
  C   C304      1.0  0.60399  0.01067  0.64477  1.0000
  H   H297      1.0  0.64032  0.83282  0.74916  1.0000
  H   H298      1.0  0.56946  0.99359  0.51049  1.0000
  C   C305      1.0  0.43490  0.88782  0.75129  1.0000
  C   C306      1.0  0.44530  0.86548  0.78324  1.0000
  C   C307      1.0  0.47333  0.83920  0.77844  1.0000
  C   C308      1.0  0.49156  0.83572  0.74197  1.0000
  C   C309      1.0  0.48177  0.85866  0.71026  1.0000
  C   C310      1.0  0.45316  0.88438  0.71482  1.0000
  H   H299      1.0  0.43097  0.86774  0.81127  1.0000
  H   H300      1.0  0.48060  0.82120  0.80286  1.0000
  H   H301      1.0  0.49544  0.85576  0.68194  1.0000
  H   H302      1.0  0.44474  0.90127  0.68994  1.0000
  C   C311      1.0  0.66122  0.85212  0.80515  1.0000
  H   H303      1.0  0.43128  0.58399  0.50868  1.0000
  C   C312      1.0  0.63710  0.90708  0.56760  1.0000
  C   C313      1.0  0.64966  0.01362  0.69660  1.0000
  N   N25       1.0  0.65878  0.97761  0.69019  1.0000
  Fe  Fe55      1.0  0.60087  0.54492  0.98560  1.0000
  H   H304      1.0  0.48534  0.90107  0.92802  1.0000
  H   H305      1.0  0.60552  0.88662  0.86088  1.0000
  N   N26       1.0  0.37942  0.55631  0.50766  1.0000
  C   C314      1.0  0.52166  0.02840  0.50733  1.0000
  C   C315      1.0  0.39995  0.56480  0.94114  1.0000
  C   C316      1.0  0.68808  0.87338  0.82412  1.0000
  C   C317      1.0  0.43142  0.54974  0.95961  1.0000
  N   N27       1.0  0.46699  0.00211  0.61165  1.0000
  C   C318      1.0  0.60780  0.92757  0.50702  1.0000
  H   H306      1.0  0.69169  0.92795  0.57817  1.0000
  C   C319      1.0  0.49643  0.94828  0.58502  1.0000
  H   H307      1.0  0.67302  0.94346  0.73874  1.0000
  C   C320      1.0  0.47641  0.99141  0.64927  1.0000
  H   H308      1.0  0.59918  0.95800  0.61595  1.0000
  H   H309      1.0  0.54800  0.86623  0.82695  1.0000
  H   H310      1.0  0.50934  0.64886  0.70035  1.0000
  C   C321      1.0  0.54674  0.87861  0.85624  1.0000
  H   H311      1.0  0.40248  0.58933  0.92303  1.0000
  C   C322      1.0  0.68446  0.55611  0.93575  1.0000
  H   H312      1.0  0.61660  0.69615  0.69929  1.0000
  H   H313      1.0  0.56451  0.72668  0.73376  1.0000
  H   H314      1.0  0.54193  0.72822  0.68612  1.0000
  H   H315      1.0  0.60248  0.58262  0.66861  1.0000
  S   S114      1.0  0.68526  0.88126  0.87533  1.0000
  H   H316      1.0  0.58861  0.00643  0.81117  1.0000
  S   S115      1.0  0.69014  0.86175  0.68952  1.0000
  H   H317      1.0  0.51906  0.70872  0.72873  1.0000
  C   C323      1.0  0.47637  0.98082  0.57982  1.0000
  C   C324      1.0  0.55333  0.61200  0.68525  1.0000
  H   H318      1.0  0.52114  0.91146  0.62751  1.0000
  C   C325      1.0  0.57681  0.90554  0.91309  1.0000
  C   C326      1.0  0.61410  0.63877  0.68492  1.0000
  C   C327      1.0  0.54178  0.92519  0.97161  1.0000
  Fe  Fe56      1.0  0.66749  0.00367  0.92908  1.0000
  S   S116      1.0  0.41010  0.87794  0.95062  1.0000
  H   H319      1.0  0.64334  0.63686  0.67862  1.0000
  C   C328      1.0  0.53891  0.64600  0.69701  1.0000
  C   C329      1.0  0.50607  0.93702  0.62322  1.0000
  C   C330      1.0  0.43149  0.93477  0.99919  1.0000
  H   H320      1.0  0.63649  0.89152  0.59490  1.0000
  C   C331      1.0  0.59875  0.67235  0.69660  1.0000
  H   H321      1.0  0.63956  0.83925  0.82228  1.0000
  C   C332      1.0  0.54600  0.71139  0.71334  1.0000
  N   N28       1.0  0.54343  0.90993  0.93142  1.0000
  H   H322      1.0  0.54463  0.90269  0.99387  1.0000
  C   C333      1.0  0.59118  0.60844  0.67921  1.0000
  C   C334      1.0  0.62239  0.03084  0.67377  1.0000
  H   H323      1.0  0.60213  0.91385  0.92772  1.0000
  H   H324      1.0  0.46858  0.00824  0.67450  1.0000
  N   N29       1.0  0.56165  0.67550  0.70294  1.0000
  C   C335      1.0  0.57894  0.89004  0.87520  1.0000
  C   C336      1.0  0.64076  0.95753  0.66196  1.0000
  H   H325      1.0  0.50251  0.94965  0.68560  1.0000
  C   C337      1.0  0.51289  0.88280  0.87537  1.0000
  H   H326      1.0  0.66732  0.54039  0.52485  1.0000
  C   C338      1.0  0.66834  0.92795  0.55820  1.0000
  H   H327      1.0  0.48764  0.87380  0.86113  1.0000
  S   S117      1.0  0.66001  0.98007  0.86863  1.0000
  C   C339      1.0  0.61314  0.97378  0.63872  1.0000
  C   C340      1.0  0.66984  0.94805  0.52277  1.0000
  C   C341      1.0  0.43303  0.89700  0.99145  1.0000
  H   H328      1.0  0.41331  0.00634  0.80450  1.0000
  H   H329      1.0  0.69522  0.58516  0.88107  1.0000
  H   H330      1.0  0.41601  0.95284  0.97983  1.0000
  H   H331      1.0  0.66569  0.59033  0.52571  1.0000
  Fe  Fe57      1.0  0.38358  0.99520  0.87482  1.0000
  H   H332      1.0  0.46827  0.98884  0.55012  1.0000
  C   C342      1.0  0.66180  0.84821  0.76375  1.0000
  C   C343      1.0  0.49583  0.95856  0.65567  1.0000
  H   H333      1.0  0.58569  0.02047  0.88333  1.0000
  Fe  Fe58      1.0  0.38585  0.91816  0.90727  1.0000
  S   S118      1.0  0.39873  0.91969  0.75603  1.0000
  H   H334      1.0  0.64925  0.66799  0.97604  1.0000
  H   H335      1.0  0.42192  0.02064  0.73382  1.0000
  C   C344      1.0  0.57085  0.02828  0.82185  1.0000
  H   H336      1.0  0.64789  0.92880  0.65726  1.0000
  H   H337      1.0  0.51510  0.93944  0.97695  1.0000
  C   C345      1.0  0.55685  0.01879  0.52061  1.0000
  H   H338      1.0  0.66370  0.02913  0.71938  1.0000
  C   C346      1.0  0.41585  0.55972  0.51740  1.0000
  H   H339      1.0  0.45809  0.56253  0.95563  1.0000
  H   H340      1.0  0.58282  0.02378  0.62694  1.0000
  C   C347      1.0  0.66669  0.56575  0.50632  1.0000
  H   H341      1.0  0.62040  0.72948  0.98579  1.0000
  H   H342      1.0  0.66566  0.74530  0.00074  1.0000
  Fe  Fe59      1.0  0.91869  0.45547  0.39634  1.0000
  Fe  Fe60      1.0  0.00885  0.33432  0.18400  1.0000
  S   S119      1.0  0.95714  0.40897  0.38130  1.0000
  Fe  Fe61      1.0  0.84872  0.48250  0.43963  1.0000
  H   H343      1.0  0.98181  0.43858  0.05545  1.0000
  S   S120      1.0  0.80246  0.46157  0.47877  1.0000
  S   S121      1.0  0.94266  0.51200  0.39237  1.0000
  C   C348      1.0  0.90589  0.04900  0.42827  1.0000
  C   C349      1.0  0.01767  0.16867  0.10259  1.0000
  H   H344      1.0  0.98895  0.17189  0.09468  1.0000
  S   S122      1.0  0.86207  0.47120  0.37560  1.0000
  S   S123      1.0  0.90323  0.46102  0.46003  1.0000
  C   C350      1.0  0.75547  0.46836  0.46749  1.0000
  C   C351      1.0  0.02316  0.19883  0.21653  1.0000
  C   C352      1.0  0.74402  0.48139  0.43041  1.0000
  H   H345      1.0  0.80157  0.07423  0.47925  1.0000
  H   H346      1.0  0.00541  0.33313  0.27468  1.0000
  N   N30       1.0  0.90388  0.37914  0.50153  1.0000
  H   H347      1.0  0.71203  0.09437  0.03239  1.0000
  H   H348      1.0  0.98305  0.47199  0.45516  1.0000
  C   C353      1.0  0.95309  0.35665  0.25848  1.0000
  C   C354      1.0  0.98295  0.35055  0.28384  1.0000
  C   C355      1.0  0.98335  0.36611  0.32177  1.0000
  C   C356      1.0  0.95437  0.38869  0.33424  1.0000
  C   C357      1.0  0.92448  0.39511  0.30895  1.0000
  C   C358      1.0  0.92363  0.37865  0.27125  1.0000
  C   C359      1.0  0.99190  0.46613  0.48511  1.0000
  H   H349      1.0  0.71338  0.10856  0.34395  1.0000
  H   H350      1.0  0.90196  0.41249  0.31844  1.0000
  H   H351      1.0  0.72171  0.16771  0.30748  1.0000
  C   C360      1.0  0.96626  0.17695  0.19110  1.0000
  C   C361      1.0  0.86235  0.36244  0.43461  1.0000
  S   S124      1.0  0.95239  0.33657  0.21109  1.0000
  H   H352      1.0  0.00943  0.41120  0.47084  1.0000
  H   H353      1.0  0.90534  0.07858  0.42445  1.0000
  Fe  Fe62      1.0  0.02866  0.04261  0.06076  1.0000
  H   H354      1.0  0.00642  0.36088  0.34135  1.0000
  H   H355      1.0  0.95063  0.36241  0.46752  1.0000
  C   C362      1.0  0.02583  0.52026  0.15430  1.0000
  H   H356      1.0  0.02860  0.43059  0.33210  1.0000
  H   H357      1.0  0.93815  0.18202  0.18163  1.0000
  H   H358      1.0  0.02149  0.45792  0.03086  1.0000
  H   H359      1.0  0.94166  0.52035  0.29497  1.0000
  H   H360      1.0  0.97164  0.46107  0.31184  1.0000
  H   H361      1.0  0.90042  0.38338  0.25174  1.0000
  C   C363      1.0  0.03439  0.13394  0.09928  1.0000
  H   H362      1.0  0.96502  0.11977  0.17315  1.0000
  H   H363      1.0  0.02367  0.22498  0.12116  1.0000
  H   H364      1.0  0.98753  0.25999  0.22918  1.0000
  S   S125      1.0  0.02122  0.30414  0.12746  1.0000
  S   S126      1.0  0.83456  0.05088  0.40132  1.0000
  C   C364      1.0  0.72906  0.46144  0.49701  1.0000
  C   C365      1.0  0.01760  0.13509  0.19748  1.0000
  H   H365      1.0  0.94285  0.24114  0.22071  1.0000
  H   H366      1.0  0.96203  0.52242  0.08086  1.0000
  C   C366      1.0  0.98841  0.48364  0.30102  1.0000
  H   H367      1.0  0.91399  0.34624  0.40834  1.0000
  H   H368      1.0  0.02981  0.10819  0.19251  1.0000
  C   C367      1.0  0.90030  0.35644  0.43475  1.0000
  H   H369      1.0  0.97087  0.25520  0.17916  1.0000
  S   S127      1.0  0.00655  0.09570  0.08744  1.0000
  C   C368      1.0  0.82551  0.07154  0.49967  1.0000
  Fe  Fe63      1.0  0.92381  0.51849  0.45510  1.0000
  N   N31       1.0  0.98718  0.20491  0.20622  1.0000
  H   H370      1.0  0.97852  0.48187  0.02878  1.0000
  C   C369      1.0  0.00700  0.43163  0.49400  1.0000
  C   C370      1.0  0.98111  0.14163  0.18659  1.0000
  H   H371      1.0  0.76412  0.48649  0.40734  1.0000
  N   N32       1.0  0.00624  0.48387  0.08496  1.0000
  C   C371      1.0  0.99636  0.46467  0.04829  1.0000
  C   C372      1.0  0.97144  0.24201  0.20894  1.0000
  C   C373      1.0  0.99555  0.53214  0.13216  1.0000
  C   C374      1.0  0.98581  0.51322  0.09763  1.0000
  C   C375      1.0  0.92087  0.36545  0.46846  1.0000
  H   H372      1.0  0.84631  0.35675  0.40817  1.0000
  C   C376      1.0  0.70643  0.48839  0.42337  1.0000
  N   N33       1.0  0.02577  0.47968  0.29731  1.0000
  Fe  Fe64      1.0  0.88514  0.52885  0.37665  1.0000
  H   H373      1.0  0.84919  0.08428  0.48380  1.0000
  S   S128      1.0  0.73209  0.04461  0.42901  1.0000
  H   H374      1.0  0.81598  0.38274  0.46804  1.0000
  C   C377      1.0  0.84534  0.37687  0.46822  1.0000
  H   H375      1.0  0.96113  0.04831  0.45244  1.0000
  C   C378      1.0  0.97126  0.51704  0.29144  1.0000
  H   H376      1.0  0.86257  0.03481  0.00987  1.0000
  C   C379      1.0  0.86664  0.38525  0.50158  1.0000
  S   S129      1.0  0.03460  0.38658  0.16295  1.0000
  C   C380      1.0  0.92605  0.39016  0.53584  1.0000
  H   H377      1.0  0.93386  0.41963  0.53295  1.0000
  S   S130      1.0  0.91819  0.50669  0.76035  1.0000
  H   H378      1.0  0.99758  0.50532  0.57623  1.0000
  H   H379      1.0  0.03134  0.20602  0.55113  1.0000
  C   C381      1.0  0.72796  0.43669  0.93385  1.0000
  H   H380      1.0  0.03289  0.16909  0.65517  1.0000
  H   H381      1.0  0.95176  0.37356  0.53805  1.0000
  C   C382      1.0  0.01809  0.42327  0.53271  1.0000
  H   H382      1.0  0.77521  0.45173  0.87853  1.0000
  H   H383      1.0  0.74905  0.11341  0.83347  1.0000
  C   C383      1.0  0.98970  0.20930  0.66224  1.0000
  H   H384      1.0  0.01875  0.47647  0.79028  1.0000
  C   C384      1.0  0.94772  0.44210  0.78965  1.0000
  C   C385      1.0  0.02398  0.19374  0.67056  1.0000
  H   H385      1.0  0.95200  0.47175  0.69397  1.0000
  H   H386      1.0  0.75083  0.12395  0.97964  1.0000
  C   C386      1.0  0.75076  0.12272  0.94749  1.0000
  S   S131      1.0  0.00734  0.35776  0.74438  1.0000
  H   H387      1.0  0.98622  0.41324  0.68697  1.0000
  H   H388      1.0  0.95224  0.25369  0.67567  1.0000
  H   H389      1.0  0.80285  0.08966  0.87173  1.0000
  Fe  Fe65      1.0  0.90486  0.52721  0.82171  1.0000
  H   H390      1.0  0.73770  0.45104  0.52567  1.0000
  S   S132      1.0  0.96258  0.53298  0.50473  1.0000
  H   H391      1.0  0.97136  0.39127  0.81120  1.0000
  C   C387      1.0  0.72081  0.13310  0.88576  1.0000
  S   S133      1.0  0.89882  0.49727  0.87977  1.0000
  C   C388      1.0  0.73690  0.52291  0.96296  1.0000
  H   H392      1.0  0.94341  0.52627  0.61649  1.0000
  H   H393      1.0  0.97179  0.19666  0.64041  1.0000
  H   H394      1.0  0.99407  0.28242  0.72433  1.0000
  H   H395      1.0  0.80342  0.09486  0.94516  1.0000
  C   C389      1.0  0.00031  0.48489  0.55322  1.0000
  S   S134      1.0  0.80281  0.51290  0.92541  1.0000
  H   H396      1.0  0.02406  0.44412  0.59208  1.0000
  C   C390      1.0  0.78035  0.10340  0.88689  1.0000
  H   H397      1.0  0.75564  0.42644  0.93895  1.0000
  H   H398      1.0  0.74012  0.44048  0.84258  1.0000
  H   H399      1.0  0.93674  0.44991  0.81820  1.0000
  C   C391      1.0  0.96720  0.40886  0.78561  1.0000
  H   H400      1.0  0.02715  0.49572  0.87974  1.0000
  C   C392      1.0  0.00271  0.25750  0.70929  1.0000
  N   N34       1.0  0.72144  0.13605  0.92625  1.0000
  C   C393      1.0  0.94222  0.46486  0.75660  1.0000
  C   C394      1.0  0.95634  0.45437  0.71966  1.0000
  C   C395      1.0  0.97601  0.42135  0.71571  1.0000
  C   C396      1.0  0.98154  0.39855  0.74867  1.0000
  C   C397      1.0  0.75024  0.11683  0.86546  1.0000
  H   H401      1.0  0.74829  0.48774  0.85738  1.0000
  C   C398      1.0  0.78069  0.10638  0.92815  1.0000
  H   H402      1.0  0.81982  0.08693  0.52735  1.0000
  C   C399      1.0  0.97882  0.24129  0.68186  1.0000
  C   C400      1.0  0.98745  0.49247  0.51488  1.0000
  H   H403      1.0  0.85330  0.39796  0.52688  1.0000
  H   H404      1.0  0.74819  0.50493  0.98556  1.0000
  N   N35       1.0  0.71947  0.45485  0.89937  1.0000
  C   C401      1.0  0.01536  0.45017  0.56222  1.0000
  S   S135      1.0  0.70687  0.04653  0.79382  1.0000
  C   C402      1.0  0.74705  0.45870  0.86783  1.0000
  H   H405      1.0  0.91061  0.38625  0.56398  1.0000
  S   S136      1.0  0.71200  0.04216  0.90995  1.0000
  H   H406      1.0  0.89071  0.04139  0.51677  1.0000
  H   H407      1.0  0.70819  0.41845  0.99131  1.0000
  H   H408      1.0  0.02115  0.52617  0.83781  1.0000
  C   C403      1.0  0.75899  0.53369  0.93081  1.0000
  N   N36       1.0  0.92911  0.91035  0.00802  1.0000
  S   S137      1.0  0.99753  0.70275  0.16415  1.0000
  S   S138      1.0  0.95403  0.62320  0.10244  1.0000
  S   S139      1.0  0.99519  0.68466  0.28214  1.0000
  C   C404      1.0  0.03066  0.77362  0.23924  1.0000
  C   C405      1.0  0.72685  0.58098  0.41737  1.0000
  C   C406      1.0  0.88527  0.94006  0.05072  1.0000
  H   H409      1.0  0.94132  0.92862  0.06669  1.0000
  C   C407      1.0  0.00163  0.84033  0.21405  1.0000
  H   H410      1.0  0.90825  0.94315  0.44147  1.0000
  H   H411      1.0  0.02726  0.54897  0.43485  1.0000
  H   H412      1.0  0.83113  0.94872  0.02584  1.0000
  S   S140      1.0  0.98664  0.99808  0.05160  1.0000
  Fe  Fe66      1.0  0.73513  0.95654  0.36508  1.0000
  Fe  Fe67      1.0  0.78034  0.02032  0.39610  1.0000
  C   C408      1.0  0.03047  0.54180  0.27314  1.0000
  C   C409      1.0  0.00605  0.57149  0.01159  1.0000
  C   C410      1.0  0.92063  0.92618  0.04365  1.0000
  C   C411      1.0  0.99967  0.59218  0.04609  1.0000
  Fe  Fe68      1.0  0.02696  0.00257  0.49163  1.0000
  Fe  Fe69      1.0  0.00090  0.64589  0.13818  1.0000
  S   S141      1.0  0.87485  0.56440  0.32327  1.0000
  H   H413      1.0  0.90615  0.58710  0.04863  1.0000
  S   S142      1.0  0.77120  0.96293  0.41876  1.0000
  H   H414      1.0  0.99063  0.86637  0.20337  1.0000
  S   S143      1.0  0.86801  0.54132  0.43946  1.0000
  C   C412      1.0  0.85842  0.93719  0.02129  1.0000
  H   H415      1.0  0.87896  0.95342  0.07862  1.0000
  H   H416      1.0  0.01021  0.77733  0.13081  1.0000
  C   C413      1.0  0.93843  0.99370  0.44909  1.0000
  C   C414      1.0  0.90768  0.97275  0.43787  1.0000
  C   C415      1.0  0.87589  0.98987  0.42263  1.0000
  H   H417      1.0  0.00212  0.59771  0.47847  1.0000
  S   S144      1.0  0.97645  0.97121  0.47123  1.0000
  S   S145      1.0  0.01339  0.61837  0.19611  1.0000
  H   H418      1.0  0.85234  0.97343  0.41440  1.0000
  S   S146      1.0  0.74826  0.01202  0.33938  1.0000
  C   C416      1.0  0.96167  0.65148  0.29398  1.0000
  C   C417      1.0  0.95955  0.63687  0.33249  1.0000
  C   C418      1.0  0.93332  0.60967  0.34170  1.0000
  C   C419      1.0  0.90848  0.59783  0.31267  1.0000
  C   C420      1.0  0.91048  0.61266  0.27431  1.0000
  C   C421      1.0  0.93731  0.63904  0.26483  1.0000
  H   H419      1.0  0.97842  0.64637  0.35507  1.0000
  H   H420      1.0  0.93182  0.59843  0.37140  1.0000
  H   H421      1.0  0.89131  0.60360  0.25177  1.0000
  H   H422      1.0  0.93868  0.65026  0.23508  1.0000
  C   C422      1.0  0.76147  0.57205  0.43266  1.0000
  C   C423      1.0  0.96357  0.59833  0.05916  1.0000
  H   H423      1.0  0.78567  0.57302  0.41372  1.0000
  H   H424      1.0  0.98452  0.89907  0.02668  1.0000
  H   H425      1.0  0.98005  0.83828  0.12364  1.0000
  C   C424      1.0  0.71669  0.94093  0.26118  1.0000
  C   C425      1.0  0.00918  0.83552  0.11753  1.0000
  S   S147      1.0  0.00821  0.91023  0.10676  1.0000
  H   H426      1.0  0.73466  0.96201  0.27271  1.0000
  H   H427      1.0  0.97969  0.55597  0.14148  1.0000
  C   C426      1.0  0.76465  0.56084  0.47215  1.0000
  Fe  Fe70      1.0  0.03028  0.95757  0.06944  1.0000
  C   C427      1.0  0.73306  0.55875  0.49584  1.0000
  H   H428      1.0  0.02259  0.60347  0.06239  1.0000
  C   C428      1.0  0.93409  0.58302  0.03824  1.0000
  Fe  Fe71      1.0  0.72091  0.98650  0.44768  1.0000
  H   H429      1.0  0.97971  0.57249  0.27051  1.0000
  H   H430      1.0  0.97510  0.75939  0.25626  1.0000
  C   C429      1.0  0.93753  0.03192  0.44405  1.0000
  C   C430      1.0  0.99289  0.78028  0.24332  1.0000
  S   S148      1.0  0.72767  0.90377  0.33178  1.0000
  C   C431      1.0  0.70952  0.90931  0.28376  1.0000
  C   C432      1.0  0.02623  0.80092  0.12170  1.0000
  H   H431      1.0  0.70758  0.96891  0.20538  1.0000
  H   H432      1.0  0.94900  0.81914  0.23307  1.0000
  C   C433      1.0  0.97831  0.81380  0.23044  1.0000
  H   H433      1.0  0.79124  0.55262  0.48399  1.0000
  C   C434      1.0  0.87478  0.02810  0.41797  1.0000
  H   H434      1.0  0.70556  0.02601  0.09137  1.0000
  C   C435      1.0  0.99255  0.54631  0.27765  1.0000
  C   C436      1.0  0.03149  0.59638  0.47264  1.0000
  C   C437      1.0  0.02973  0.86663  0.10651  1.0000
  H   H435      1.0  0.72398  0.58902  0.38650  1.0000
  Fe  Fe72      1.0  0.01601  0.67530  0.22039  1.0000
  C   C438      1.0  0.70151  0.94472  0.22298  1.0000
  H   H436      1.0  0.03395  0.53495  0.18086  1.0000
  H   H437      1.0  0.77669  0.01678  0.50362  1.0000
  Fe  Fe73      1.0  0.89466  0.60177  0.85835  1.0000
  S   S149      1.0  0.97771  0.73002  0.69967  1.0000
  S   S150      1.0  0.89537  0.66277  0.84841  1.0000
  Fe  Fe74      1.0  0.75142  0.99685  0.92618  1.0000
  H   H438      1.0  0.83921  0.98077  0.89961  1.0000
  C   C439      1.0  0.86721  0.92065  0.98525  1.0000
  H   H439      1.0  0.96545  0.69454  0.87860  1.0000
  S   S151      1.0  0.88675  0.57923  0.91960  1.0000
  H   H440      1.0  0.95455  0.64740  0.68174  1.0000
  H   H441      1.0  0.98781  0.80342  0.64306  1.0000
  H   H442      1.0  0.93399  0.59172  0.74773  1.0000
  C   C440      1.0  0.80466  0.00805  0.50996  1.0000
  S   S152      1.0  0.96966  0.98349  0.93946  1.0000
  H   H443      1.0  0.98587  0.63655  0.61762  1.0000
  C   C441      1.0  0.71629  0.88949  0.80184  1.0000
  H   H444      1.0  0.96819  0.65586  0.96616  1.0000
  C   C442      1.0  0.89677  0.98355  0.91640  1.0000
  H   H445      1.0  0.91355  0.53752  0.68146  1.0000
  H   H446      1.0  0.98009  0.57590  0.58442  1.0000
  S   S153      1.0  0.75101  0.97166  0.86526  1.0000
  C   C443      1.0  0.96963  0.61487  0.63126  1.0000
  H   H447      1.0  0.91012  0.89624  0.95023  1.0000
  H   H448      1.0  0.73566  0.54920  0.52622  1.0000
  H   H449      1.0  0.01270  0.80471  0.55843  1.0000
  H   H450      1.0  0.73744  0.90539  0.81640  1.0000
  H   H451      1.0  0.90400  0.97623  0.53207  1.0000
  C   C444      1.0  0.71772  0.88432  0.76070  1.0000
  C   C445      1.0  0.01017  0.86061  0.53750  1.0000
  H   H452      1.0  0.01674  0.88693  0.64798  1.0000
  C   C446      1.0  0.96648  0.58076  0.61268  1.0000
  H   H453      1.0  0.88924  0.58228  0.72743  1.0000
  C   C447      1.0  0.91916  0.67972  0.80678  1.0000
  C   C448      1.0  0.95023  0.66188  0.79116  1.0000
  C   C449      1.0  0.96933  0.67740  0.75877  1.0000
  C   C450      1.0  0.95672  0.71028  0.74157  1.0000
  C   C451      1.0  0.92574  0.72782  0.75727  1.0000
  C   C452      1.0  0.90739  0.71290  0.79004  1.0000
  H   H454      1.0  0.95997  0.63664  0.80448  1.0000
  H   H455      1.0  0.99347  0.66386  0.74696  1.0000
  H   H456      1.0  0.91591  0.75324  0.74416  1.0000
  H   H457      1.0  0.88363  0.72697  0.80215  1.0000
  H   H458      1.0  0.91751  0.54987  0.98874  1.0000
  N   N37       1.0  0.01434  0.84300  0.60619  1.0000
  H   H459      1.0  0.02842  0.82411  0.66457  1.0000
  H   H460      1.0  0.85280  0.93060  0.53300  1.0000
  C   C453      1.0  0.01280  0.90712  0.58826  1.0000
  S   S154      1.0  0.02986  0.02012  0.55522  1.0000
  N   N38       1.0  0.99191  0.65011  0.90893  1.0000
  Fe  Fe75      1.0  0.00957  0.99316  0.99053  1.0000
  H   H461      1.0  0.95583  0.61445  0.94013  1.0000
  Fe  Fe76      1.0  0.93416  0.54219  0.90474  1.0000
  C   C454      1.0  0.91443  0.59938  0.72374  1.0000
  H   H462      1.0  0.84676  0.91921  0.96182  1.0000
  S   S155      1.0  0.71017  0.97275  0.51161  1.0000
  C   C455      1.0  0.01953  0.68410  0.85535  1.0000
  S   S156      1.0  0.94473  0.56841  0.84573  1.0000
  C   C456      1.0  0.85875  0.99022  0.92154  1.0000
  C   C457      1.0  0.97631  0.55716  0.99011  1.0000
  H   H463      1.0  0.96522  0.86667  0.99257  1.0000
  C   C458      1.0  0.96134  0.64426  0.93662  1.0000
  C   C459      1.0  0.87195  0.02053  0.98363  1.0000
  C   C460      1.0  0.90303  0.90770  0.97890  1.0000
  H   H464      1.0  0.73992  0.89642  0.74368  1.0000
  C   C461      1.0  0.92242  0.99479  0.94520  1.0000
  H   H465      1.0  0.01009  0.91898  0.52562  1.0000
  C   C462      1.0  0.99003  0.67763  0.88118  1.0000
  S   S157      1.0  0.85459  0.56259  0.83039  1.0000
  C   C463      1.0  0.90980  0.01379  0.97852  1.0000
  H   H466      1.0  0.76078  0.56534  0.87673  1.0000
  C   C464      1.0  0.87582  0.98499  0.52670  1.0000
  C   C465      1.0  0.95196  0.62072  0.66761  1.0000
  H   H467      1.0  0.90604  0.62863  0.72751  1.0000
  C   C466      1.0  0.01434  0.87927  0.61703  1.0000
  C   C467      1.0  0.01067  0.89765  0.54826  1.0000
  C   C468      1.0  0.92898  0.55953  0.66730  1.0000
  Fe  Fe77      1.0  0.85136  0.53631  0.89092  1.0000
  C   C469      1.0  0.01203  0.83347  0.56703  1.0000
  C   C470      1.0  0.84621  0.00828  0.95557  1.0000
  H   H468      1.0  0.93533  0.65704  0.92575  1.0000
  N   N39       1.0  0.93167  0.59329  0.68497  1.0000
  H   H469      1.0  0.90629  0.96908  0.89034  1.0000
  C   C471      1.0  0.70686  0.56798  0.90418  1.0000
  S   S158      1.0  0.79878  0.01459  0.96569  1.0000
  C   C472      1.0  0.84718  0.95939  0.52688  1.0000
  C   C473      1.0  0.02289  0.62878  0.91214  1.0000
  C   C474      1.0  0.01590  0.81402  0.63657  1.0000
  H   H470      1.0  0.97909  0.91196  0.97559  1.0000
  C   C475      1.0  0.94047  0.56221  0.00408  1.0000
  H   H471      1.0  0.78869  0.95143  0.51899  1.0000
  C   C476      1.0  0.94600  0.55288  0.63074  1.0000
  C   C477      1.0  0.81130  0.97099  0.51880  1.0000
  H   H472      1.0  0.01763  0.70562  0.83300  1.0000
  H   H473      1.0  0.01444  0.93584  0.59683  1.0000
  Fe  Fe78      1.0  0.70826  0.01457  0.85107  1.0000
  H   H474      1.0  0.02438  0.60708  0.93430  1.0000
  C   C478      1.0  0.74407  0.55693  0.90175  1.0000
  C   C479      1.0  0.86816  0.02185  0.51778  1.0000
  H   H475      1.0  0.03340  0.79079  0.62639  1.0000
  H   H476      1.0  0.70426  0.94115  0.69709  1.0000
  S   S159      1.0  0.70648  0.96034  0.95043  1.0000
  H   H477      1.0  0.70528  0.98020  0.72941  1.0000
  H   H478      1.0  0.92917  0.02344  0.00042  1.0000
  H   H479      1.0  0.03392  0.56733  0.00114  1.0000
  S   S160      1.0  0.98372  0.53513  0.94454  1.0000
  H   H480      1.0  0.00916  0.85303  0.50644  1.0000
  Fe  Fe79      1.0  0.03262  0.71025  0.67835  1.0000
  Fe  Fe80      1.0  0.70249  0.93919  0.88811  1.0000
  N   N40       1.0  0.83303  0.03278  0.50882  1.0000
  C   C480      1.0  0.96629  0.89629  0.00039  1.0000
