data_image0
_chemical_formula_structural       SH5SHC3H2FeC2HC2HNH2SNC3SH2CH2CH3CHFeSC3HCHCHSH3CHC2SHFeH2CFeNH2C2HC2HS2H2NHCFeH3CHSHCH3C2HFeSCHCH2CFeS2C2HSH2CHFeC3HC6HC3SC2SHC2H2C2H4CSFeHNCHCSHSCHCHC6SHC2SCHSC3HCH2SC2H2FeCSNHC2SFeSFeSHFeSFeCS2FeHSFeHSC2FeSCSCHCH2SCHCH2S2CS2C3H2CH3C6H4SCH2CFeHNHNCH2C2H3CH2C2HC4S2CSH2SCHC2HCNHC2H2CSC2HNC6H8C3FeH2C2HC6HCHC2HCSCH2C3NHFeCFeC3FeC2SCSH3C2HFeSHNHCS2H2SHC3FeHSHSHC3H2C2FeCSHCH2C2H2FeH2NH4CH2C2NH3CH2CNHCH2CH4C2HFeS3HC3SH4NSHCH2CSHC5SHC2HSH3CHSHFeH3CFeC2FeHCFeH2C4H2C6H4C6H3C3HSHCNHC2NCSC3H4S2C2HSHFeH2CFeC2HS2CHCS4H2C3Fe2SCHCH2FeH2CNHCHFe2HCSH3C4HC4HCH3NHCSHCH2SC3Fe2HCSCH3CSCFeCH2CSH3SC2HFeS2FeSFe2SFeS4FeSFe2S2C6H4C2HC4H3SH2SH2NC3HCH2CHCH2C2NC6H8NC4HCH4FeHFeHSC2HC2H2SH2SCH2CFeC2FeC2SHC2HCHNSC2SCSHC2HS2H2C3HC5SH4C2H2FeSCHFeHSHFeCH3FeCHCHCH4CNCH2CHSHCHSHSC3SCHCSC3HFeHCFeC2HFeH2SC5SHCSC2H2C2SH2S2H2CH2CH2NSC2H4C2H2C2HC2HFeCSHCHCSC3H5NHSCSH3CSFeS2CFeS2H2NS2CFeHCFeS2FeS2FeSFeS3HC3S2H3NC3H2C2HC6H2CHC6H4C6H4CHC6H3CH2C2HC2HSCNSHCNC2HC4H5SCHCHC3H3SHCH2NC3SH2C3HCFeC4HCH3CH3CHSH3C2HCH2C3HNCHC2HFeC3HCH2FeHC2H3FeCH3CHCFeH2SH2SH2SCNHSHCH3NHFeH4CHNSHC2HC2SHFeC2FeS3CFeS2FeS2FeSFeS2CSHC4H2C6H2C6H4C6H3SC6H4NC5H3CHSHNCNC6H8NC2HFeSHCSFeSHN2C2H4CSC2SNH3SHCH4C2HFe2HFeHC2SFeS2H2SFeHNC3HSCHC3HFeC2H2SFeH4CNFeCSHCHCH3C2H2C2SCHC2FeSH2C2H2CSH2CHC3FeC3SHCSH3SC2H2CH3Fe2C2NH2C2SCHNH3C2HCH2CH3CFeH3S2CHCHCSCHFeCFeC2FeC2HSHCHCS2NCH2SH2NSC3H3CH3FeH6CH3CH2CH2CHNCH6C2H2SCHC3SFeSHCH4CSHCSCNC2SCHC3SCHCHCNH2CSNC4H2CHSHSC3H2C3FeCSFe2HFeH2SH2CHSCSC2HCHCH2FeH2C2H2CH4SCHCH5CSFeCHNFeC2H2CHCHC2FeC3H2C2HCH3SH2SCH2C2SHFeCHCSCH2C2SCSHSFeC2HCSHSCHCHC2H2C2NSC2HCHCSHFeC2HFeH4C3H3C2HCHCHCH4CNCS2CHS
_chemical_formula_sum              "S224 H672 C672 Fe112 N56"
_cell_length_a       36.2772
_cell_length_b       36.1893
_cell_length_c       87.8786
_cell_angle_alpha    78.0046
_cell_angle_beta     79.0382
_cell_angle_gamma    100.461

_space_group_name_H-M_alt    "P 1"
_space_group_IT_number       1

loop_
  _space_group_symop_operation_xyz
  'x, y, z'

loop_
  _atom_site_type_symbol
  _atom_site_label
  _atom_site_symmetry_multiplicity
  _atom_site_fract_x
  _atom_site_fract_y
  _atom_site_fract_z
  _atom_site_occupancy
  S   S1        1.0  0.21936  0.47837  0.19561  1.0000
  H   H1        1.0  0.14137  0.45695  0.18968  1.0000
  H   H2        1.0  0.13172  0.45290  0.14076  1.0000
  H   H3        1.0  0.17235  0.37985  0.16104  1.0000
  H   H4        1.0  0.07617  0.46855  0.19162  1.0000
  H   H5        1.0  0.46690  0.03098  0.15017  1.0000
  S   S2        1.0  0.08608  0.47905  0.29614  1.0000
  H   H6        1.0  0.19145  0.43112  0.17494  1.0000
  C   C1        1.0  0.03648  0.45334  0.14995  1.0000
  C   C2        1.0  0.15051  0.39083  0.16785  1.0000
  C   C3        1.0  0.11155  0.37658  0.16875  1.0000
  H   H7        1.0  0.00429  0.34653  0.99676  1.0000
  H   H8        1.0  0.43618  0.46981  0.16027  1.0000
  Fe  Fe1       1.0  0.02501  0.45693  0.31088  1.0000
  C   C4        1.0  0.10576  0.46189  0.14522  1.0000
  C   C5        1.0  0.16123  0.41972  0.17553  1.0000
  H   H9        1.0  0.10284  0.35499  0.16241  1.0000
  C   C6        1.0  0.43441  0.01047  0.31308  1.0000
  C   C7        1.0  0.13272  0.43434  0.18385  1.0000
  H   H10       1.0  0.05369  0.38154  0.17730  1.0000
  N   N1        1.0  0.48807  0.47459  0.14281  1.0000
  H   H11       1.0  0.47844  0.01109  0.17716  1.0000
  H   H12       1.0  0.28746  0.46954  0.20673  1.0000
  S   S3        1.0  0.06733  0.39874  0.13751  1.0000
  N   N2        1.0  0.09463  0.42091  0.18434  1.0000
  C   C8        1.0  0.06991  0.44136  0.14430  1.0000
  C   C9        1.0  0.08379  0.39184  0.17720  1.0000
  C   C10       1.0  0.49032  0.04832  0.15353  1.0000
  S   S4        1.0  0.43246  0.47899  0.19690  1.0000
  H   H13       1.0  0.39511  0.02794  0.29888  1.0000
  H   H14       1.0  0.47481  0.45383  0.16802  1.0000
  C   C11       1.0  0.06527  0.43698  0.19297  1.0000
  H   H15       1.0  0.35683  0.49251  0.19307  1.0000
  H   H16       1.0  0.05707  0.42177  0.20588  1.0000
  C   C12       1.0  0.46010  0.45482  0.15800  1.0000
  H   H17       1.0  0.03917  0.43443  0.18801  1.0000
  H   H18       1.0  0.44696  0.42466  0.15793  1.0000
  H   H19       1.0  0.44953  0.04018  0.31173  1.0000
  C   C13       1.0  0.40362  0.00374  0.30577  1.0000
  H   H20       1.0  0.00867  0.43756  0.14936  1.0000
  Fe  Fe2       1.0  0.01020  0.37507  0.13260  1.0000
  S   S5        1.0  0.00593  0.33499  0.11621  1.0000
  C   C14       1.0  0.03892  0.48526  0.15681  1.0000
  C   C15       1.0  0.29605  0.48430  0.19413  1.0000
  C   C16       1.0  0.26804  0.49126  0.18564  1.0000
  H   H21       1.0  0.99596  0.29248  0.02053  1.0000
  C   C17       1.0  0.10810  0.49340  0.15226  1.0000
  H   H22       1.0  0.16469  0.49322  0.25928  1.0000
  C   C18       1.0  0.33527  0.49725  0.18640  1.0000
  H   H23       1.0  0.01295  0.49412  0.16138  1.0000
  S   S6        1.0  0.00858  0.45978  0.33651  1.0000
  H   H24       1.0  0.44452  0.16539  0.63889  1.0000
  H   H25       1.0  0.42146  0.10127  0.63388  1.0000
  H   H26       1.0  0.46848  0.06296  0.62578  1.0000
  C   C19       1.0  0.45215  0.11323  0.63197  1.0000
  H   H27       1.0  0.48773  0.01832  0.32880  1.0000
  C   C20       1.0  0.46537  0.14939  0.63481  1.0000
  C   C21       1.0  0.47863  0.09169  0.62743  1.0000
  S   S7        1.0  0.06675  0.33743  0.81925  1.0000
  H   H28       1.0  0.13143  0.25372  0.71903  1.0000
  Fe  Fe3       1.0  0.42657  0.06550  0.75280  1.0000
  H   H29       1.0  0.10325  0.19065  0.71438  1.0000
  H   H30       1.0  0.03034  0.30740  0.85361  1.0000
  C   C22       1.0  0.02539  0.44978  0.81445  1.0000
  Fe  Fe4       1.0  0.46438  0.02817  0.77743  1.0000
  N   N3        1.0  0.18262  0.23707  0.72355  1.0000
  H   H31       1.0  0.28838  0.09031  0.76286  1.0000
  H   H32       1.0  0.25824  0.03522  0.71497  1.0000
  C   C23       1.0  0.99907  0.29417  0.85570  1.0000
  C   C24       1.0  0.45533  0.04472  0.66467  1.0000
  H   H33       1.0  0.13943  0.13822  0.71634  1.0000
  C   C25       1.0  0.05789  0.44627  0.82054  1.0000
  C   C26       1.0  0.07003  0.41133  0.82242  1.0000
  H   H34       1.0  0.03738  0.26026  0.83584  1.0000
  S   S8        1.0  0.05649  0.25083  0.79869  1.0000
  S   S9        1.0  0.04168  0.33260  0.77854  1.0000
  H   H35       1.0  0.07396  0.47062  0.82368  1.0000
  H   H36       1.0  0.09523  0.40871  0.82709  1.0000
  N   N4        1.0  0.05275  0.05733  0.80889  1.0000
  H   H37       1.0  0.21638  0.27000  0.73570  1.0000
  C   C27       1.0  0.00510  0.41842  0.81016  1.0000
  Fe  Fe5       1.0  0.16659  0.04137  0.79047  1.0000
  H   H38       1.0  0.02930  0.21331  0.75424  1.0000
  H   H39       1.0  0.46446  0.09551  0.71261  1.0000
  H   H40       1.0  0.23076  0.21314  0.72749  1.0000
  C   C28       1.0  0.37932  0.12965  0.73978  1.0000
  H   H41       1.0  0.30931  0.02112  0.75553  1.0000
  S   S10       1.0  0.42633  0.12276  0.73750  1.0000
  H   H42       1.0  0.46625  0.20096  0.73254  1.0000
  C   C29       1.0  0.39143  0.05740  0.66867  1.0000
  H   H43       1.0  0.02557  0.06334  0.71419  1.0000
  H   H44       1.0  0.32833  0.18922  0.72234  1.0000
  H   H45       1.0  0.10773  0.07429  0.81397  1.0000
  C   C30       1.0  0.11342  0.16237  0.75784  1.0000
  C   C31       1.0  0.06932  0.04073  0.72420  1.0000
  H   H46       1.0  0.38614  0.10973  0.67617  1.0000
  Fe  Fe6       1.0  0.03966  0.30411  0.80397  1.0000
  S   S11       1.0  0.25668  0.14608  0.74359  1.0000
  C   C32       1.0  0.13169  0.19573  0.71683  1.0000
  H   H47       1.0  0.21632  0.29486  0.71555  1.0000
  C   C33       1.0  0.31143  0.10956  0.75335  1.0000
  H   H48       1.0  0.01205  0.36187  0.96625  1.0000
  H   H49       1.0  0.11256  0.14461  0.80403  1.0000
  C   C34       1.0  0.01489  0.23979  0.84532  1.0000
  Fe  Fe7       1.0  0.12316  0.07300  0.76640  1.0000
  S   S12       1.0  0.46166  0.14533  0.67852  1.0000
  S   S13       1.0  0.21549  0.03605  0.77174  1.0000
  C   C35       1.0  0.40855  0.06497  0.71195  1.0000
  C   C36       1.0  0.11922  0.20220  0.75663  1.0000
  H   H50       1.0  0.14717  0.21869  0.75672  1.0000
  S   S14       1.0  0.16787  0.07053  0.74566  1.0000
  H   H51       1.0  0.44852  0.16176  0.76063  1.0000
  H   H52       1.0  0.39486  0.08820  0.71420  1.0000
  C   C37       1.0  0.34919  0.10424  0.75188  1.0000
  H   H53       1.0  0.13737  0.14883  0.75808  1.0000
  Fe  Fe8       1.0  0.05263  0.27668  0.77374  1.0000
  C   C38       1.0  0.47587  0.18299  0.75623  1.0000
  C   C39       1.0  0.19847  0.27412  0.72680  1.0000
  C   C40       1.0  0.14782  0.23136  0.71946  1.0000
  H   H54       1.0  0.01829  0.14201  0.75768  1.0000
  C   C41       1.0  0.48568  0.20510  0.74035  1.0000
  C   C42       1.0  0.02481  0.10907  0.79792  1.0000
  C   C43       1.0  0.05265  0.19902  0.75549  1.0000
  C   C44       1.0  0.38739  0.03164  0.70934  1.0000
  C   C45       1.0  0.20302  0.20868  0.72435  1.0000
  C   C46       1.0  0.04655  0.15883  0.75721  1.0000
  H   H55       1.0  0.20406  0.15035  0.72248  1.0000
  C   C47       1.0  0.15189  0.16630  0.71799  1.0000
  C   C48       1.0  0.18799  0.17295  0.72156  1.0000
  C   C49       1.0  0.28646  0.03303  0.73454  1.0000
  S   S15       1.0  0.06912  0.09005  0.76189  1.0000
  C   C50       1.0  0.08899  0.22063  0.75527  1.0000
  C   C51       1.0  0.07694  0.14047  0.75854  1.0000
  S   S16       1.0  0.09675  0.27051  0.75349  1.0000
  H   H56       1.0  0.29698  0.06426  0.73186  1.0000
  C   C52       1.0  0.03185  0.04546  0.72449  1.0000
  C   C53       1.0  0.37182  0.16045  0.72924  1.0000
  H   H57       1.0  0.02551  0.19050  0.83633  1.0000
  H   H58       1.0  0.35494  0.08071  0.76022  1.0000
  C   C54       1.0  0.33409  0.16562  0.73065  1.0000
  C   C55       1.0  0.30381  0.13999  0.74261  1.0000
  H   H59       1.0  0.17495  0.28697  0.73206  1.0000
  H   H60       1.0  0.47477  0.02673  0.66138  1.0000
  H   H61       1.0  0.09250  0.05486  0.71366  1.0000
  H   H62       1.0  0.36140  0.04943  0.66835  1.0000
  C   C56       1.0  0.44806  0.06895  0.71105  1.0000
  S   S17       1.0  0.16549  0.10173  0.77841  1.0000
  Fe  Fe9       1.0  0.21040  0.09454  0.75856  1.0000
  H   H63       1.0  0.47833  0.13303  0.78300  1.0000
  N   N5        1.0  0.46587  0.04033  0.70780  1.0000
  C   C57       1.0  0.40549  0.09158  0.67299  1.0000
  H   H64       1.0  0.39508  0.18002  0.71982  1.0000
  C   C58       1.0  0.01713  0.48231  0.76979  1.0000
  S   S18       1.0  0.01196  0.49428  0.81157  1.0000
  H   H65       1.0  0.05889  0.16702  0.79370  1.0000
  S   S19       1.0  0.41344  0.05519  0.77936  1.0000
  C   C59       1.0  0.02306  0.06950  0.80337  1.0000
  H   H66       1.0  0.00334  0.36031  0.80762  1.0000
  C   C60       1.0  0.46908  0.07833  0.66931  1.0000
  H   H67       1.0  0.35692  0.02844  0.70977  1.0000
  C   C61       1.0  0.05712  0.13628  0.79815  1.0000
  C   C62       1.0  0.08712  0.12368  0.80395  1.0000
  C   C63       1.0  0.44445  0.10219  0.67327  1.0000
  C   C64       1.0  0.41659  0.03431  0.66427  1.0000
  C   C65       1.0  0.01808  0.38395  0.81151  1.0000
  C   C66       1.0  0.05040  0.38034  0.81772  1.0000
  S   S20       1.0  0.48021  0.04289  0.75064  1.0000
  H   H68       1.0  0.02320  0.45908  0.77821  1.0000
  C   C67       1.0  0.08430  0.08384  0.80944  1.0000
  C   C68       1.0  0.00217  0.02598  0.73801  1.0000
  S   S21       1.0  0.38844  0.00975  0.75273  1.0000
  C   C69       1.0  0.00864  0.20032  0.84563  1.0000
  H   H69       1.0  0.46677  0.17439  0.78983  1.0000
  S   S22       1.0  0.15931  0.02231  0.81694  1.0000
  C   C70       1.0  0.26490  0.01681  0.72503  1.0000
  C   C71       1.0  0.44558  0.00819  0.70468  1.0000
  C   C72       1.0  0.07674  0.01715  0.73744  1.0000
  H   H70       1.0  0.99795  0.04860  0.80300  1.0000
  C   C73       1.0  0.48948  0.16406  0.78261  1.0000
  H   H71       1.0  0.10569  0.01305  0.73736  1.0000
  H   H72       1.0  0.00143  0.11873  0.79339  1.0000
  S   S23       1.0  0.11960  0.01323  0.78047  1.0000
  C   C74       1.0  0.29357  0.00890  0.74773  1.0000
  C   C75       1.0  0.04971  0.01565  0.81484  1.0000
  H   H73       1.0  0.14380  0.00784  0.70929  1.0000
  H   H74       1.0  0.07815  0.00937  0.81582  1.0000
  Fe  Fe10      1.0  0.16822  0.01289  0.76077  1.0000
  C   C76       1.0  0.40604  0.00315  0.70556  1.0000
  S   S24       1.0  0.21908  0.00352  0.69319  1.0000
  N   N6        1.0  0.00954  0.00183  0.75072  1.0000
  H   H75       1.0  0.02970  0.00460  0.82688  1.0000
  C   C77       1.0  0.26727  0.70440  0.16037  1.0000
  C   C78       1.0  0.29750  0.73578  0.15138  1.0000
  S   S25       1.0  0.44451  0.68151  0.24693  1.0000
  Fe  Fe11      1.0  0.15999  0.58616  0.20361  1.0000
  S   S26       1.0  0.15078  0.61974  0.18066  1.0000
  Fe  Fe12      1.0  0.19451  0.52932  0.18802  1.0000
  S   S27       1.0  0.19010  0.55783  0.16348  1.0000
  H   H76       1.0  0.38828  0.79725  0.31800  1.0000
  Fe  Fe13      1.0  0.21021  0.61395  0.16988  1.0000
  S   S28       1.0  0.25841  0.66213  0.15342  1.0000
  Fe  Fe14      1.0  0.13119  0.56094  0.17615  1.0000
  C   C79       1.0  0.40701  0.65759  0.21057  1.0000
  S   S29       1.0  0.22071  0.58458  0.19310  1.0000
  S   S30       1.0  0.13452  0.52819  0.20032  1.0000
  Fe  Fe15      1.0  0.43685  0.52011  0.21278  1.0000
  H   H77       1.0  0.48498  0.76583  0.22018  1.0000
  S   S31       1.0  0.40130  0.51308  0.23748  1.0000
  Fe  Fe16      1.0  0.43145  0.53137  0.17828  1.0000
  H   H78       1.0  0.48975  0.82506  0.26204  1.0000
  S   S32       1.0  0.39522  0.53280  0.16035  1.0000
  C   C80       1.0  0.26246  0.52293  0.25142  1.0000
  C   C81       1.0  0.45881  0.90890  0.23953  1.0000
  Fe  Fe17      1.0  0.49463  0.58398  0.18723  1.0000
  S   S33       1.0  0.27766  0.68773  0.30787  1.0000
  C   C82       1.0  0.15014  0.58909  0.30616  1.0000
  S   S34       1.0  0.43011  0.57056  0.19477  1.0000
  C   C83       1.0  0.44427  0.75575  0.30383  1.0000
  H   H79       1.0  0.37398  0.86456  0.26500  1.0000
  C   C84       1.0  0.20341  0.51077  0.23583  1.0000
  H   H80       1.0  0.46710  0.52650  0.14000  1.0000
  H   H81       1.0  0.21784  0.50335  0.27333  1.0000
  S   S35       1.0  0.17283  0.63419  0.30841  1.0000
  C   C85       1.0  0.47113  0.72714  0.15733  1.0000
  H   H82       1.0  0.38945  0.53618  0.27935  1.0000
  C   C86       1.0  0.03729  0.58818  0.29383  1.0000
  H   H83       1.0  0.17050  0.64101  0.27214  1.0000
  H   H84       1.0  0.25752  0.51601  0.16279  1.0000
  S   S36       1.0  0.38999  0.78501  0.18478  1.0000
  S   S37       1.0  0.44488  0.75785  0.14858  1.0000
  C   C87       1.0  0.30304  0.81285  0.21871  1.0000
  S   S38       1.0  0.27428  0.61204  0.29192  1.0000
  S   S39       1.0  0.49391  0.98595  0.23079  1.0000
  C   C88       1.0  0.38465  0.96564  0.30705  1.0000
  C   C89       1.0  0.31830  0.52209  0.16150  1.0000
  C   C90       1.0  0.34638  0.51588  0.17005  1.0000
  H   H85       1.0  0.32263  0.57379  0.22768  1.0000
  H   H86       1.0  0.48973  0.78814  0.31167  1.0000
  C   C91       1.0  0.41226  0.54530  0.28509  1.0000
  H   H87       1.0  0.32683  0.53648  0.14886  1.0000
  H   H88       1.0  0.49102  0.58885  0.31869  1.0000
  H   H89       1.0  0.46254  0.90131  0.19610  1.0000
  C   C92       1.0  0.43295  0.63288  0.24638  1.0000
  C   C93       1.0  0.46194  0.61560  0.24022  1.0000
  C   C94       1.0  0.45216  0.57845  0.23774  1.0000
  C   C95       1.0  0.41359  0.55800  0.24193  1.0000
  C   C96       1.0  0.38485  0.57441  0.24898  1.0000
  C   C97       1.0  0.39455  0.61199  0.25111  1.0000
  H   H90       1.0  0.48501  0.78461  0.19937  1.0000
  H   H91       1.0  0.47457  0.56565  0.23262  1.0000
  H   H92       1.0  0.35505  0.55865  0.25240  1.0000
  H   H93       1.0  0.37232  0.62513  0.25622  1.0000
  S   S40       1.0  0.32143  0.79019  0.27465  1.0000
  C   C98       1.0  0.47285  0.69177  0.20692  1.0000
  H   H94       1.0  0.28627  0.71458  0.22872  1.0000
  H   H95       1.0  0.23756  0.74166  0.19193  1.0000
  C   C99       1.0  0.25463  0.73997  0.18069  1.0000
  Fe  Fe18      1.0  0.29870  0.65579  0.26827  1.0000
  H   H96       1.0  0.22195  0.68276  0.18191  1.0000
  N   N7        1.0  0.46085  0.72447  0.20890  1.0000
  H   H97       1.0  0.36445  0.69051  0.21579  1.0000
  N   N8        1.0  0.47081  0.56920  0.29966  1.0000
  C   C100      1.0  0.47951  0.55773  0.28578  1.0000
  H   H98       1.0  0.10723  0.59222  0.26144  1.0000
  H   H99       1.0  0.49171  0.63160  0.23656  1.0000
  C   C101      1.0  0.45851  0.67364  0.29352  1.0000
  C   C102      1.0  0.22429  0.50905  0.26038  1.0000
  H   H100      1.0  0.45665  0.91116  0.25166  1.0000
  H   H101      1.0  0.42638  0.57766  0.31747  1.0000
  H   H102      1.0  0.15338  0.68487  0.26841  1.0000
  C   C103      1.0  0.41870  0.65822  0.29754  1.0000
  H   H103      1.0  0.28533  0.52823  0.25760  1.0000
  H   H104      1.0  0.41268  0.74937  0.21443  1.0000
  C   C104      1.0  0.49363  0.80984  0.28652  1.0000
  C   C105      1.0  0.19456  0.50319  0.25250  1.0000
  H   H105      1.0  0.06253  0.52560  0.31792  1.0000
  C   C106      1.0  0.47696  0.80527  0.27372  1.0000
  C   C107      1.0  0.22356  0.63377  0.22074  1.0000
  C   C108      1.0  0.14851  0.65442  0.26733  1.0000
  C   C109      1.0  0.48190  0.66237  0.16478  1.0000
  S   S41       1.0  0.49518  0.54989  0.16880  1.0000
  S   S42       1.0  0.44760  0.86822  0.30603  1.0000
  C   C110      1.0  0.14896  0.53766  0.29228  1.0000
  S   S43       1.0  0.47091  0.97373  0.27830  1.0000
  H   H106      1.0  0.04146  0.62706  0.30926  1.0000
  H   H107      1.0  0.42325  0.89550  0.27736  1.0000
  S   S44       1.0  0.07639  0.54220  0.16837  1.0000
  C   C111      1.0  0.42911  0.76966  0.26235  1.0000
  H   H108      1.0  0.32896  0.52458  0.23051  1.0000
  C   C112      1.0  0.40525  0.86711  0.28342  1.0000
  C   C113      1.0  0.45033  0.54523  0.27838  1.0000
  H   H109      1.0  0.36419  0.79832  0.24241  1.0000
  C   C114      1.0  0.42768  0.94265  0.32267  1.0000
  N   N9        1.0  0.27087  0.52997  0.23510  1.0000
  H   H110      1.0  0.36120  0.95990  0.30120  1.0000
  C   C115      1.0  0.39668  0.93487  0.31557  1.0000
  C   C116      1.0  0.11203  0.57180  0.31463  1.0000
  H   H111      1.0  0.43080  0.73648  0.31558  1.0000
  H   H112      1.0  0.24854  0.52915  0.21437  1.0000
  C   C117      1.0  0.40995  0.84791  0.29817  1.0000
  S   S45       1.0  0.47388  0.94867  0.14516  1.0000
  C   C118      1.0  0.47379  0.94211  0.22692  1.0000
  C   C119      1.0  0.31118  0.54454  0.22609  1.0000
  H   H113      1.0  0.38610  0.63112  0.21165  1.0000
  N   N10       1.0  0.35709  0.66680  0.15410  1.0000
  C   C120      1.0  0.35546  0.68972  0.16467  1.0000
  C   C121      1.0  0.34215  0.62762  0.15933  1.0000
  C   C122      1.0  0.33809  0.67361  0.18091  1.0000
  C   C123      1.0  0.32491  0.61046  0.17552  1.0000
  C   C124      1.0  0.32270  0.63368  0.18634  1.0000
  C   C125      1.0  0.37253  0.68431  0.13692  1.0000
  H   H114      1.0  0.36636  0.72091  0.16049  1.0000
  H   H115      1.0  0.34273  0.60956  0.15091  1.0000
  H   H116      1.0  0.33562  0.69235  0.18901  1.0000
  H   H117      1.0  0.31237  0.57954  0.17952  1.0000
  H   H118      1.0  0.30832  0.62079  0.19880  1.0000
  H   H119      1.0  0.38960  0.71461  0.13455  1.0000
  H   H120      1.0  0.39199  0.66751  0.13163  1.0000
  H   H121      1.0  0.34825  0.68482  0.13089  1.0000
  C   C126      1.0  0.42238  0.72412  0.21212  1.0000
  C   C127      1.0  0.32724  0.75302  0.23639  1.0000
  C   C128      1.0  0.24197  0.52393  0.22728  1.0000
  Fe  Fe19      1.0  0.30252  0.72494  0.28290  1.0000
  H   H122      1.0  0.28396  0.66137  0.21473  1.0000
  H   H123      1.0  0.18058  0.50668  0.22952  1.0000
  C   C129      1.0  0.46182  0.90344  0.20817  1.0000
  C   C130      1.0  0.39489  0.69080  0.21293  1.0000
  H   H124      1.0  0.37431  0.55831  0.30437  1.0000
  C   C131      1.0  0.05619  0.57811  0.28044  1.0000
  C   C132      1.0  0.46235  0.68791  0.15730  1.0000
  C   C133      1.0  0.24570  0.70661  0.17502  1.0000
  C   C134      1.0  0.09262  0.60053  0.27173  1.0000
  C   C135      1.0  0.47734  0.78464  0.30162  1.0000
  C   C136      1.0  0.45912  0.66207  0.32154  1.0000
  H   H125      1.0  0.43997  0.67709  0.15173  1.0000
  C   C137      1.0  0.44626  0.65818  0.20750  1.0000
  H   H126      1.0  0.33936  0.76557  0.30553  1.0000
  C   C138      1.0  0.11066  0.52069  0.30051  1.0000
  C   C139      1.0  0.35764  0.79391  0.29935  1.0000
  H   H127      1.0  0.21979  0.64494  0.20888  1.0000
  C   C140      1.0  0.25984  0.64314  0.22405  1.0000
  S   S46       1.0  0.30909  0.64390  0.24390  1.0000
  C   C141      1.0  0.28688  0.77439  0.21915  1.0000
  H   H128      1.0  0.31381  0.73462  0.13990  1.0000
  H   H129      1.0  0.45638  0.63249  0.20621  1.0000
  C   C142      1.0  0.29890  0.74440  0.22814  1.0000
  C   C143      1.0  0.26428  0.63063  0.23959  1.0000
  C   C144      1.0  0.28583  0.77075  0.17193  1.0000
  N   N11       1.0  0.10978  0.63205  0.27627  1.0000
  H   H130      1.0  0.26549  0.76802  0.21238  1.0000
  Fe  Fe20      1.0  0.43370  0.80353  0.16137  1.0000
  C   C145      1.0  0.19203  0.61072  0.23281  1.0000
  Fe  Fe21      1.0  0.36317  0.83143  0.17381  1.0000
  C   C146      1.0  0.23263  0.60865  0.25178  1.0000
  C   C147      1.0  0.30729  0.76846  0.15729  1.0000
  C   C148      1.0  0.38526  0.81188  0.30641  1.0000
  Fe  Fe22      1.0  0.48913  0.91933  0.28800  1.0000
  C   C149      1.0  0.09193  0.64149  0.28963  1.0000
  C   C150      1.0  0.35389  0.81265  0.28430  1.0000
  S   S47       1.0  0.34912  0.62507  0.31866  1.0000
  C   C151      1.0  0.44658  0.87281  0.23648  1.0000
  S   S48       1.0  0.39646  0.87776  0.18267  1.0000
  H   H131      1.0  0.33102  0.79227  0.15034  1.0000
  H   H132      1.0  0.38281  0.90508  0.31631  1.0000
  H   H133      1.0  0.40219  0.73002  0.29266  1.0000
  C   C152      1.0  0.44876  0.86999  0.22074  1.0000
  C   C153      1.0  0.43345  0.56873  0.30646  1.0000
  H   H134      1.0  0.44941  0.78493  0.25065  1.0000
  Fe  Fe23      1.0  0.42683  0.83228  0.19174  1.0000
  S   S49       1.0  0.43558  0.82466  0.21679  1.0000
  H   H135      1.0  0.29417  0.83601  0.21134  1.0000
  N   N12       1.0  0.32961  0.82100  0.22742  1.0000
  H   H136      1.0  0.48605  0.96499  0.20137  1.0000
  C   C154      1.0  0.48904  0.75972  0.20817  1.0000
  S   S50       1.0  0.34539  0.68998  0.27654  1.0000
  S   S51       1.0  0.29862  0.81153  0.17946  1.0000
  H   H137      1.0  0.13578  0.50859  0.15310  1.0000
  H   H138      1.0  0.45719  0.53590  0.26742  1.0000
  S   S52       1.0  0.14758  0.59612  0.22830  1.0000
  H   H139      1.0  0.23636  0.59885  0.26373  1.0000
  C   C155      1.0  0.19652  0.59833  0.24838  1.0000
  C   C156      1.0  0.40371  0.55733  0.29917  1.0000
  C   C157      1.0  0.09225  0.53783  0.31173  1.0000
  Fe  Fe24      1.0  0.23662  0.65300  0.29704  1.0000
  H   H140      1.0  0.35273  0.86325  0.23883  1.0000
  S   S53       1.0  0.47419  0.84575  0.16949  1.0000
  H   H141      1.0  0.31451  0.54643  0.21310  1.0000
  S   S54       1.0  0.40461  0.84729  0.14982  1.0000
  H   H142      1.0  0.04329  0.55249  0.27704  1.0000
  C   C158      1.0  0.16869  0.57166  0.29514  1.0000
  C   C159      1.0  0.47469  0.93950  0.21121  1.0000
  C   C160      1.0  0.34571  0.86135  0.22719  1.0000
  H   H143      1.0  0.32484  0.87975  0.22517  1.0000
  H   H144      1.0  0.17234  0.58018  0.25773  1.0000
  C   C161      1.0  0.37716  0.84964  0.27652  1.0000
  C   C162      1.0  0.34239  0.79175  0.23587  1.0000
  Fe  Fe25      1.0  0.44150  0.88867  0.15978  1.0000
  C   C163      1.0  0.07467  0.50498  0.15822  1.0000
  S   S55       1.0  0.25775  0.69386  0.27266  1.0000
  H   H145      1.0  0.43501  0.84743  0.24633  1.0000
  C   C164      1.0  0.42834  0.75207  0.29079  1.0000
  H   H146      1.0  0.16312  0.52473  0.28354  1.0000
  H   H147      1.0  0.42302  0.73833  0.26258  1.0000
  C   C165      1.0  0.05524  0.62003  0.29849  1.0000
  C   C166      1.0  0.48818  0.51163  0.13511  1.0000
  H   H148      1.0  0.15284  0.65529  0.25437  1.0000
  H   H149      1.0  0.19795  0.58488  0.28861  1.0000
  Fe  Fe26      1.0  0.31726  0.64992  0.30079  1.0000
  H   H150      1.0  0.40182  0.77964  0.26306  1.0000
  H   H151      1.0  0.33704  0.72985  0.24329  1.0000
  N   N13       1.0  0.44539  0.77584  0.27589  1.0000
  H   H152      1.0  0.00936  0.57066  0.30092  1.0000
  H   H153      1.0  0.40359  0.65598  0.28817  1.0000
  H   H154      1.0  0.37245  0.87318  0.21754  1.0000
  H   H155      1.0  0.47288  0.68476  0.28109  1.0000
  C   C167      1.0  0.47897  0.67551  0.30544  1.0000
  H   H156      1.0  0.47435  0.63194  0.16501  1.0000
  H   H157      1.0  0.10660  0.66496  0.29380  1.0000
  C   C168      1.0  0.27913  0.51048  0.16937  1.0000
  C   C169      1.0  0.39876  0.64535  0.31358  1.0000
  N   N14       1.0  0.44589  0.98007  0.32149  1.0000
  H   H158      1.0  0.43753  0.91847  0.32887  1.0000
  H   H159      1.0  0.40362  0.63659  0.33807  1.0000
  H   H160      1.0  0.26053  0.81130  0.63255  1.0000
  C   C170      1.0  0.01691  0.61655  0.65401  1.0000
  H   H161      1.0  0.30814  0.80908  0.62215  1.0000
  H   H162      1.0  0.47138  0.96977  0.34142  1.0000
  C   C171      1.0  0.29188  0.81818  0.63221  1.0000
  N   N15       1.0  0.29873  0.79854  0.64743  1.0000
  H   H163      1.0  0.02564  0.62993  0.64092  1.0000
  C   C172      1.0  0.41901  0.64697  0.32561  1.0000
  H   H164      1.0  0.33480  0.84928  0.65008  1.0000
  H   H165      1.0  0.26270  0.74437  0.64806  1.0000
  C   C173      1.0  0.47874  0.98722  0.32881  1.0000
  H   H166      1.0  0.47465  0.66337  0.33085  1.0000
  H   H167      1.0  0.30058  0.85033  0.62996  1.0000
  H   H168      1.0  0.01170  0.58445  0.65606  1.0000
  H   H169      1.0  0.19101  0.79720  0.65326  1.0000
  C   C174      1.0  0.32207  0.81850  0.65501  1.0000
  C   C175      1.0  0.28186  0.75997  0.65389  1.0000
  H   H170      1.0  0.09750  0.58512  0.32320  1.0000
  Fe  Fe27      1.0  0.10260  0.81617  0.81130  1.0000
  S   S56       1.0  0.08178  0.84479  0.83064  1.0000
  S   S57       1.0  0.13767  0.84432  0.78614  1.0000
  S   S58       1.0  0.03527  0.74692  0.67298  1.0000
  H   H171      1.0  0.05748  0.73041  0.77820  1.0000
  C   C176      1.0  0.24142  0.95887  0.83111  1.0000
  C   C177      1.0  0.11788  0.93549  0.75491  1.0000
  C   C178      1.0  0.07791  0.84491  0.69893  1.0000
  S   S59       1.0  0.31394  0.96855  0.69450  1.0000
  H   H172      1.0  0.37792  0.88594  0.70549  1.0000
  H   H173      1.0  0.08458  0.88442  0.71389  1.0000
  H   H174      1.0  0.25575  0.89422  0.75300  1.0000
  H   H175      1.0  0.39018  0.97753  0.70311  1.0000
  N   N16       1.0  0.13051  0.85510  0.71172  1.0000
  S   S60       1.0  0.32618  0.89768  0.67703  1.0000
  H   H176      1.0  0.26861  0.96918  0.83459  1.0000
  C   C179      1.0  0.34365  0.88736  0.72816  1.0000
  H   H177      1.0  0.13811  0.89776  0.80363  1.0000
  H   H178      1.0  0.21751  0.96637  0.83895  1.0000
  C   C180      1.0  0.03328  0.65556  0.81440  1.0000
  S   S61       1.0  0.31850  0.97445  0.79416  1.0000
  H   H179      1.0  0.20993  0.90723  0.75538  1.0000
  C   C181      1.0  0.03632  0.52055  0.76828  1.0000
  C   C182      1.0  0.17282  0.98411  0.69121  1.0000
  C   C183      1.0  0.14024  0.99080  0.70070  1.0000
  C   C184      1.0  0.04100  0.89415  0.76262  1.0000
  C   C185      1.0  0.06180  0.90698  0.74667  1.0000
  S   S62       1.0  0.28707  0.96730  0.66064  1.0000
  H   H180      1.0  0.01365  0.68719  0.65742  1.0000
  C   C186      1.0  0.09729  0.92263  0.77093  1.0000
  C   C187      1.0  0.05878  0.90161  0.77482  1.0000
  H   H181      1.0  0.04837  0.90098  0.73724  1.0000
  S   S63       1.0  0.29936  0.86860  0.72421  1.0000
  H   H182      1.0  0.17618  0.86535  0.72378  1.0000
  H   H183      1.0  0.04277  0.89160  0.78720  1.0000
  H   H184      1.0  0.27295  0.71032  0.67384  1.0000
  C   C188      1.0  0.32867  0.79990  0.66954  1.0000
  H   H185      1.0  0.11532  0.70973  0.74811  1.0000
  S   S64       1.0  0.16520  0.96305  0.74958  1.0000
  H   H186      1.0  0.13931  0.70761  0.72847  1.0000
  Fe  Fe28      1.0  0.29586  0.90381  0.70066  1.0000
  H   H187      1.0  0.07792  0.97931  0.70680  1.0000
  H   H188      1.0  0.00342  0.79221  0.77967  1.0000
  H   H189      1.0  0.06830  0.60722  0.84751  1.0000
  C   C189      1.0  0.37910  0.91525  0.74545  1.0000
  Fe  Fe29      1.0  0.05328  0.61143  0.69451  1.0000
  C   C190      1.0  0.34432  0.89730  0.74266  1.0000
  C   C191      1.0  0.99825  0.76090  0.68496  1.0000
  Fe  Fe30      1.0  0.05194  0.69642  0.68725  1.0000
  H   H190      1.0  0.23006  0.75823  0.70427  1.0000
  C   C192      1.0  0.09874  0.95302  0.68806  1.0000
  Fe  Fe31      1.0  0.03933  0.65074  0.72132  1.0000
  H   H191      1.0  0.19913  0.70093  0.73529  1.0000
  H   H192      1.0  0.15900  0.90725  0.71592  1.0000
  C   C193      1.0  0.37824  0.89376  0.71670  1.0000
  C   C194      1.0  0.02337  0.69030  0.75047  1.0000
  C   C195      1.0  0.02770  0.72421  0.73858  1.0000
  C   C196      1.0  0.04382  0.76035  0.74075  1.0000
  H   H193      1.0  0.01829  0.72260  0.72772  1.0000
  H   H194      1.0  0.04754  0.78645  0.73145  1.0000
  C   C197      1.0  0.25930  0.85926  0.78678  1.0000
  C   C198      1.0  0.23751  0.88508  0.79127  1.0000
  C   C199      1.0  0.25582  0.92065  0.79337  1.0000
  C   C200      1.0  0.29602  0.93040  0.79109  1.0000
  C   C201      1.0  0.31782  0.90463  0.78662  1.0000
  C   C202      1.0  0.29946  0.86907  0.78451  1.0000
  H   H195      1.0  0.20655  0.87778  0.79317  1.0000
  H   H196      1.0  0.23879  0.94065  0.79665  1.0000
  H   H197      1.0  0.34880  0.91184  0.78498  1.0000
  H   H198      1.0  0.31647  0.84921  0.78102  1.0000
  C   C203      1.0  0.10389  0.89397  0.82695  1.0000
  C   C204      1.0  0.09535  0.91410  0.83869  1.0000
  C   C205      1.0  0.11361  0.95334  0.83597  1.0000
  C   C206      1.0  0.13990  0.97246  0.82141  1.0000
  C   C207      1.0  0.14872  0.95224  0.80979  1.0000
  C   C208      1.0  0.13094  0.91302  0.81262  1.0000
  H   H199      1.0  0.07458  0.89931  0.84986  1.0000
  H   H200      1.0  0.10659  0.96903  0.84495  1.0000
  H   H201      1.0  0.16923  0.96677  0.79855  1.0000
  C   C209      1.0  0.19667  0.73954  0.68828  1.0000
  C   C210      1.0  0.12754  0.80935  0.69547  1.0000
  C   C211      1.0  0.28771  0.74050  0.66843  1.0000
  H   H202      1.0  0.07921  0.80360  0.68454  1.0000
  S   S65       1.0  0.08079  0.61421  0.71520  1.0000
  H   H203      1.0  0.05238  0.97967  0.76095  1.0000
  C   C212      1.0  0.23566  0.74528  0.74215  1.0000
  N   N17       1.0  0.02663  0.56257  0.84360  1.0000
  H   H204      1.0  0.23368  0.90059  0.73641  1.0000
  C   C213      1.0  0.15012  0.87559  0.72173  1.0000
  C   C214      1.0  0.09342  0.81779  0.69228  1.0000
  N   N18       1.0  0.23408  0.91704  0.83226  1.0000
  C   C215      1.0  0.26436  0.89984  0.82919  1.0000
  S   S66       1.0  0.42930  0.96795  0.78020  1.0000
  C   C216      1.0  0.25786  0.86097  0.82846  1.0000
  C   C217      1.0  0.18940  0.85727  0.83441  1.0000
  C   C218      1.0  0.22011  0.83972  0.83094  1.0000
  H   H205      1.0  0.19335  0.95625  0.67294  1.0000
  H   H206      1.0  0.29384  0.91675  0.82641  1.0000
  H   H207      1.0  0.34641  0.81609  0.67571  1.0000
  H   H208      1.0  0.28199  0.84799  0.82525  1.0000
  S   S67       1.0  0.09489  0.66450  0.67763  1.0000
  S   S68       1.0  0.18026  0.69172  0.69995  1.0000
  C   C219      1.0  0.18552  0.75062  0.67394  1.0000
  C   C220      1.0  0.04639  0.99811  0.75075  1.0000
  H   H209      1.0  0.11111  0.92847  0.78032  1.0000
  S   S69       1.0  0.23712  0.81496  0.78371  1.0000
  H   H210      1.0  0.12806  0.92976  0.66983  1.0000
  Fe  Fe32      1.0  0.17241  0.80022  0.79151  1.0000
  H   H211      1.0  0.05170  0.85207  0.69624  1.0000
  H   H212      1.0  0.05632  0.52670  0.77568  1.0000
  C   C221      1.0  0.09676  0.86320  0.70880  1.0000
  Fe  Fe33      1.0  0.09954  0.79771  0.77941  1.0000
  C   C222      1.0  0.05531  0.76258  0.75488  1.0000
  C   C223      1.0  0.03315  0.69268  0.76492  1.0000
  H   H213      1.0  0.02066  0.64358  0.85648  1.0000
  S   S70       1.0  0.00917  0.64506  0.74661  1.0000
  S   S71       1.0  0.07871  0.80732  0.75685  1.0000
  C   C224      1.0  0.04929  0.72887  0.76711  1.0000
  H   H214      1.0  0.04259  0.58067  0.75657  1.0000
  C   C225      1.0  0.00148  0.54255  0.74870  1.0000
  S   S72       1.0  0.06056  0.77397  0.80389  1.0000
  S   S73       1.0  0.40080  0.99346  0.65748  1.0000
  S   S74       1.0  0.14019  0.77493  0.81711  1.0000
  S   S75       1.0  0.23897  0.90259  0.69434  1.0000
  H   H215      1.0  0.24413  0.97496  0.81855  1.0000
  H   H216      1.0  0.23179  0.96444  0.72206  1.0000
  C   C226      1.0  0.23824  0.91176  0.74690  1.0000
  C   C227      1.0  0.31128  0.76067  0.67628  1.0000
  C   C228      1.0  0.25035  0.97661  0.72896  1.0000
  Fe  Fe34      1.0  0.27079  0.90247  0.66995  1.0000
  Fe  Fe35      1.0  0.25963  0.96709  0.68580  1.0000
  S   S76       1.0  0.13731  0.75570  0.78254  1.0000
  C   C229      1.0  0.17408  0.78089  0.74345  1.0000
  H   H217      1.0  0.21470  0.81002  0.82981  1.0000
  C   C230      1.0  0.05540  0.54256  0.83723  1.0000
  H   H218      1.0  0.14976  0.79441  0.74450  1.0000
  H   H219      1.0  0.01846  0.82173  0.67301  1.0000
  Fe  Fe36      1.0  0.10104  0.73493  0.80758  1.0000
  H   H220      1.0  0.16651  0.72970  0.67008  1.0000
  H   H221      1.0  0.02940  0.66651  0.77423  1.0000
  C   C231      1.0  0.20148  0.72846  0.73855  1.0000
  N   N19       1.0  0.25727  0.95317  0.74195  1.0000
  H   H222      1.0  0.11574  0.93828  0.73048  1.0000
  C   C232      1.0  0.22401  0.81595  0.66935  1.0000
  H   H223      1.0  0.31791  0.89190  0.75163  1.0000
  Fe  Fe37      1.0  0.33983  0.96279  0.67010  1.0000
  Fe  Fe38      1.0  0.00359  0.91599  0.70719  1.0000
  H   H224      1.0  0.01107  0.70102  0.82266  1.0000
  C   C233      1.0  0.27899  0.96879  0.75116  1.0000
  S   S77       1.0  0.45642  0.94788  0.73692  1.0000
  H   H225      1.0  0.20955  0.82505  0.75110  1.0000
  H   H226      1.0  0.08179  0.54834  0.84183  1.0000
  H   H227      1.0  0.37921  0.92372  0.75652  1.0000
  C   C234      1.0  0.10010  0.92769  0.74283  1.0000
  C   C235      1.0  0.10310  0.97459  0.69935  1.0000
  C   C236      1.0  0.16830  0.96147  0.68031  1.0000
  C   C237      1.0  0.19700  0.89614  0.83505  1.0000
  H   H228      1.0  0.26458  0.79356  0.74974  1.0000
  C   C238      1.0  0.14609  0.82864  0.70514  1.0000
  C   C239      1.0  0.23860  0.78036  0.74659  1.0000
  C   C240      1.0  0.23457  0.80506  0.68386  1.0000
  C   C241      1.0  0.22118  0.76676  0.69324  1.0000
  H   H229      1.0  0.44009  0.91472  0.71099  1.0000
  C   C242      1.0  0.00467  0.67574  0.81807  1.0000
  H   H230      1.0  0.28456  0.95027  0.76137  1.0000
  H   H231      1.0  0.03921  0.99935  0.80650  1.0000
  H   H232      1.0  0.12003  0.74872  0.73083  1.0000
  N   N20       1.0  0.17131  0.74639  0.73919  1.0000
  H   H233      1.0  0.17308  0.90974  0.83748  1.0000
  C   C243      1.0  0.13478  0.72720  0.73650  1.0000
  S   S78       1.0  0.05301  0.93368  0.68553  1.0000
  H   H234      1.0  0.25952  0.73101  0.74175  1.0000
  C   C244      1.0  0.20771  0.79836  0.74721  1.0000
  H   H235      1.0  0.13960  0.78828  0.69033  1.0000
  H   H236      1.0  0.13041  0.87079  0.73364  1.0000
  S   S79       1.0  0.07965  0.67059  0.81736  1.0000
  C   C245      1.0  0.02418  0.62173  0.80926  1.0000
  C   C246      1.0  0.02853  0.55080  0.75761  1.0000
  C   C247      1.0  0.03801  0.59561  0.84837  1.0000
  Fe  Fe39      1.0  0.11874  0.66995  0.69907  1.0000
  Fe  Fe40      1.0  0.37953  0.99677  0.77940  1.0000
  H   H237      1.0  0.04117  0.62537  0.65952  1.0000
  C   C248      1.0  0.41338  0.91008  0.71981  1.0000
  S   S80       1.0  0.00833  0.64317  0.70214  1.0000
  C   C249      1.0  0.99674  0.80003  0.68234  1.0000
  H   H238      1.0  0.04611  0.60598  0.80642  1.0000
  H   H239      1.0  0.25389  0.82586  0.68764  1.0000
  H   H240      1.0  0.06353  0.55249  0.82394  1.0000
  C   C250      1.0  0.13137  0.94656  0.67854  1.0000
  S   S81       1.0  0.24331  0.86264  0.65684  1.0000
  C   C251      1.0  0.41362  0.92194  0.73400  1.0000
  Fe  Fe41      1.0  0.44074  0.98541  0.75338  1.0000
  C   C252      1.0  0.19943  0.78874  0.66442  1.0000
  H   H241      1.0  0.31533  0.74613  0.68774  1.0000
  H   H242      1.0  0.15988  0.84123  0.83619  1.0000
  C   C253      1.0  0.01113  0.61643  0.85344  1.0000
  S   S82       1.0  0.07962  0.70670  0.70701  1.0000
  H   H243      1.0  0.17313  0.82254  0.70718  1.0000
  H   H244      1.0  0.04352  0.51064  0.84062  1.0000
  H   H245      1.0  0.45995  0.98609  0.70159  1.0000
  S   S83       1.0  0.03770  0.55634  0.68675  1.0000
  C   C254      1.0  0.71544  0.39646  0.27157  1.0000
  C   C255      1.0  0.68476  0.26969  0.14008  1.0000
  H   H246      1.0  0.71927  0.29919  0.10168  1.0000
  Fe  Fe42      1.0  0.72365  0.14372  0.14977  1.0000
  S   S84       1.0  0.73245  0.17043  0.12364  1.0000
  S   S85       1.0  0.75237  0.17237  0.16621  1.0000
  Fe  Fe43      1.0  0.66338  0.07323  0.14948  1.0000
  S   S86       1.0  0.66672  0.09412  0.12324  1.0000
  Fe  Fe44      1.0  0.52580  0.00400  0.28301  1.0000
  Fe  Fe45      1.0  0.73054  0.11004  0.12092  1.0000
  S   S87       1.0  0.77522  0.10526  0.10053  1.0000
  Fe  Fe46      1.0  0.66810  0.15223  0.12838  1.0000
  S   S88       1.0  0.63438  0.19342  0.11853  1.0000
  S   S89       1.0  0.72769  0.08441  0.14680  1.0000
  S   S90       1.0  0.65920  0.13030  0.15486  1.0000
  S   S91       1.0  0.85886  0.24016  0.01676  1.0000
  Fe  Fe47      1.0  0.84516  0.33957  0.02383  1.0000
  S   S92       1.0  0.83256  0.28686  0.04408  1.0000
  Fe  Fe48      1.0  0.88717  0.27605  0.03117  1.0000
  Fe  Fe49      1.0  0.80511  0.25599  0.02812  1.0000
  S   S93       1.0  0.74934  0.21205  0.03882  1.0000
  S   S94       1.0  0.81173  0.31007  0.00898  1.0000
  C   C256      1.0  0.76772  0.13183  0.08274  1.0000
  C   C257      1.0  0.73031  0.13304  0.08108  1.0000
  C   C258      1.0  0.72457  0.15637  0.06725  1.0000
  C   C259      1.0  0.75629  0.17970  0.05533  1.0000
  C   C260      1.0  0.79368  0.17835  0.05698  1.0000
  C   C261      1.0  0.79938  0.15385  0.07050  1.0000
  H   H247      1.0  0.70572  0.11548  0.09032  1.0000
  H   H248      1.0  0.69557  0.15681  0.06599  1.0000
  H   H249      1.0  0.81837  0.19610  0.04787  1.0000
  H   H250      1.0  0.82838  0.15278  0.07163  1.0000
  C   C262      1.0  0.64681  0.23496  0.12537  1.0000
  C   C263      1.0  0.67286  0.23607  0.13521  1.0000
  H   H251      1.0  0.68407  0.21112  0.13910  1.0000
  C   C264      1.0  0.82580  0.18484  0.16999  1.0000
  C   C265      1.0  0.80222  0.19110  0.15930  1.0000
  C   C266      1.0  0.81844  0.21367  0.14362  1.0000
  C   C267      1.0  0.85838  0.22988  0.13871  1.0000
  H   H252      1.0  0.81327  0.16761  0.18215  1.0000
  H   H253      1.0  0.80017  0.21874  0.13537  1.0000
  H   H254      1.0  0.87123  0.24681  0.12656  1.0000
  S   S95       1.0  0.62257  0.01956  0.16637  1.0000
  H   H255      1.0  0.91494  0.33675  0.04138  1.0000
  H   H256      1.0  0.75635  0.29557  0.08547  1.0000
  S   S96       1.0  0.92655  0.25879  0.04682  1.0000
  H   H257      1.0  0.84948  0.32696  0.17592  1.0000
  H   H258      1.0  0.77692  0.32827  0.13048  1.0000
  N   N21       1.0  0.79520  0.30064  0.17244  1.0000
  C   C268      1.0  0.78240  0.33402  0.16890  1.0000
  C   C269      1.0  0.95718  0.29067  0.06867  1.0000
  C   C270      1.0  0.74338  0.33245  0.16936  1.0000
  H   H259      1.0  0.96521  0.26346  0.07239  1.0000
  C   C271      1.0  0.71738  0.29646  0.17353  1.0000
  H   H260      1.0  0.84888  0.36260  0.06243  1.0000
  H   H261      1.0  0.80230  0.36217  0.16565  1.0000
  C   C272      1.0  0.67061  0.30243  0.13517  1.0000
  H   H262      1.0  0.73336  0.35893  0.16622  1.0000
  C   C273      1.0  0.93885  0.29641  0.05601  1.0000
  H   H263      1.0  0.68715  0.29498  0.17360  1.0000
  H   H264      1.0  0.63344  0.32682  0.12151  1.0000
  C   C274      1.0  0.84865  0.32157  0.08416  1.0000
  C   C275      1.0  0.75001  0.17880  0.00166  1.0000
  N   N22       1.0  0.86920  0.15397  0.12591  1.0000
  C   C276      1.0  0.84143  0.15569  0.11739  1.0000
  C   C277      1.0  0.90591  0.17610  0.11943  1.0000
  C   C278      1.0  0.84985  0.18069  0.10210  1.0000
  C   C279      1.0  0.91530  0.20151  0.10418  1.0000
  C   C280      1.0  0.88708  0.20357  0.09542  1.0000
  C   C281      1.0  0.85982  0.12701  0.14180  1.0000
  H   H265      1.0  0.81255  0.13754  0.12239  1.0000
  H   H266      1.0  0.92801  0.17484  0.12617  1.0000
  H   H267      1.0  0.82769  0.18171  0.09540  1.0000
  H   H268      1.0  0.94429  0.21945  0.09925  1.0000
  H   H269      1.0  0.89406  0.22250  0.08342  1.0000
  H   H270      1.0  0.87944  0.13669  0.14924  1.0000
  H   H271      1.0  0.82996  0.12548  0.14840  1.0000
  H   H272      1.0  0.86220  0.09756  0.14057  1.0000
  N   N23       1.0  0.69942  0.27480  0.08369  1.0000
  C   C282      1.0  0.67366  0.29793  0.08242  1.0000
  C   C283      1.0  0.70033  0.24685  0.07536  1.0000
  C   C284      1.0  0.64716  0.29265  0.07297  1.0000
  C   C285      1.0  0.67454  0.24109  0.06563  1.0000
  H   H273      1.0  0.76550  0.23822  0.00256  1.0000
  C   C286      1.0  0.72749  0.28096  0.09343  1.0000
  H   H274      1.0  0.67353  0.32085  0.08865  1.0000
  H   H275      1.0  0.72116  0.22891  0.07614  1.0000
  H   H276      1.0  0.62712  0.31145  0.07192  1.0000
  H   H277      1.0  0.61994  0.02423  0.27759  1.0000
  Fe  Fe50      1.0  0.67184  0.47259  0.10840  1.0000
  H   H278      1.0  0.86449  0.30417  0.07796  1.0000
  Fe  Fe51      1.0  0.86788  0.29680  0.99868  1.0000
  H   H279      1.0  0.70429  0.07018  0.28896  1.0000
  S   S97       1.0  0.90211  0.33129  0.01183  1.0000
  C   C287      1.0  0.63228  0.26758  0.12054  1.0000
  C   C288      1.0  0.57762  0.01393  0.14450  1.0000
  H   H280      1.0  0.94126  0.21345  0.99678  1.0000
  C   C289      1.0  0.86571  0.19976  0.16492  1.0000
  C   C290      1.0  0.88207  0.22232  0.14930  1.0000
  H   H281      1.0  0.88398  0.19373  0.17310  1.0000
  H   H282      1.0  0.72861  0.25264  0.10100  1.0000
  S   S98       1.0  0.93236  0.23760  0.14279  1.0000
  H   H283      1.0  0.70554  0.27039  0.14736  1.0000
  H   H284      1.0  0.73615  0.12238  0.99696  1.0000
  S   S99       1.0  0.71514  0.45554  0.12190  1.0000
  C   C291      1.0  0.64456  0.30156  0.12529  1.0000
  H   H285      1.0  0.84506  0.28678  0.10758  1.0000
  H   H286      1.0  0.66595  0.03510  0.26343  1.0000
  C   C292      1.0  0.92946  0.33203  0.05096  1.0000
  Fe  Fe52      1.0  0.95141  0.30240  0.13448  1.0000
  C   C293      1.0  0.96517  0.32022  0.07652  1.0000
  C   C294      1.0  0.61374  0.04471  0.31659  1.0000
  Fe  Fe53      1.0  0.68360  0.42004  0.08658  1.0000
  C   C295      1.0  0.82925  0.43983  0.13552  1.0000
  C   C296      1.0  0.82634  0.46308  0.26022  1.0000
  S   S100      1.0  0.72741  0.39793  0.09821  1.0000
  H   H287      1.0  0.61367  0.13897  0.31545  1.0000
  C   C297      1.0  0.83749  0.31184  0.10091  1.0000
  C   C298      1.0  0.83999  0.35441  0.07543  1.0000
  H   H288      1.0  0.80653  0.29358  0.13162  1.0000
  C   C299      1.0  0.61122  0.46414  0.14374  1.0000
  H   H289      1.0  0.89127  0.49161  0.32140  1.0000
  N   N24       1.0  0.81774  0.33395  0.10873  1.0000
  S   S101      1.0  0.84252  0.39583  0.03011  1.0000
  C   C300      1.0  0.64770  0.26407  0.06451  1.0000
  C   C301      1.0  0.58726  0.45137  0.15926  1.0000
  S   S102      1.0  0.68691  0.34460  0.14096  1.0000
  C   C302      1.0  0.73069  0.26255  0.17700  1.0000
  S   S103      1.0  0.91350  0.33493  0.12276  1.0000
  H   H290      1.0  0.71096  0.23429  0.17983  1.0000
  C   C303      1.0  0.80656  0.32423  0.12628  1.0000
  C   C304      1.0  0.76991  0.26521  0.17640  1.0000
  H   H291      1.0  0.82701  0.34358  0.13079  1.0000
  S   S104      1.0  0.72801  0.44725  0.26491  1.0000
  S   S105      1.0  0.95853  0.33925  0.15183  1.0000
  H   H292      1.0  0.70234  0.34532  0.04637  1.0000
  H   H293      1.0  0.76874  0.34503  0.03280  1.0000
  C   C305      1.0  0.79536  0.39555  0.03949  1.0000
  C   C306      1.0  0.72649  0.36703  0.04688  1.0000
  C   C307      1.0  0.76408  0.36693  0.03916  1.0000
  H   H294      1.0  0.77990  0.23868  0.17909  1.0000
  C   C308      1.0  0.80966  0.36641  0.10026  1.0000
  C   C309      1.0  0.95628  0.35605  0.07121  1.0000
  C   C310      1.0  0.93879  0.36202  0.05834  1.0000
  C   C311      1.0  0.82045  0.37709  0.08352  1.0000
  C   C312      1.0  0.72038  0.39490  0.05542  1.0000
  S   S106      1.0  0.67412  0.39302  0.06652  1.0000
  H   H295      1.0  0.79537  0.38468  0.10652  1.0000
  H   H296      1.0  0.53994  0.01059  0.12830  1.0000
  H   H297      1.0  0.97910  0.31570  0.08637  1.0000
  H   H298      1.0  0.59779  0.03929  0.13661  1.0000
  C   C313      1.0  0.65135  0.03640  0.27557  1.0000
  C   C314      1.0  0.86072  0.42280  0.13276  1.0000
  H   H299      1.0  0.81532  0.43936  0.14762  1.0000
  H   H300      1.0  0.95805  0.47026  0.06395  1.0000
  Fe  Fe54      1.0  0.92559  0.37523  0.13825  1.0000
  S   S107      1.0  0.67204  0.26519  0.29000  1.0000
  C   C315      1.0  0.69116  0.31538  0.28274  1.0000
  H   H301      1.0  0.51598  0.42745  0.14319  1.0000
  Fe  Fe55      1.0  0.96836  0.37146  0.10603  1.0000
  H   H302      1.0  0.93175  0.38964  0.05424  1.0000
  S   S108      1.0  0.98913  0.39635  0.31509  1.0000
  H   H303      1.0  0.62768  0.26006  0.05695  1.0000
  Fe  Fe56      1.0  0.68820  0.39546  0.12132  1.0000
  C   C316      1.0  0.81583  0.45772  0.12257  1.0000
  H   H304      1.0  0.71708  0.13756  0.29150  1.0000
  H   H305      1.0  0.87824  0.44032  0.09225  1.0000
  H   H306      1.0  0.61189  0.26672  0.11302  1.0000
  Fe  Fe57      1.0  0.68677  0.23650  0.31252  1.0000
  C   C317      1.0  0.95601  0.24242  0.99671  1.0000
  H   H307      1.0  0.73195  0.39465  0.29398  1.0000
  C   C318      1.0  0.68766  0.08963  0.28400  1.0000
  H   H308      1.0  0.56676  0.12586  0.13784  1.0000
  C   C319      1.0  0.57474  0.10161  0.30654  1.0000
  H   H309      1.0  0.69629  0.38873  0.25047  1.0000
  H   H310      1.0  0.67408  0.31725  0.26047  1.0000
  H   H311      1.0  0.81408  0.40313  0.07692  1.0000
  H   H312      1.0  0.83233  0.35583  0.29149  1.0000
  C   C320      1.0  0.83371  0.45831  0.10691  1.0000
  N   N25       1.0  0.65878  0.07656  0.27708  1.0000
  C   C321      1.0  0.64411  0.13957  0.27240  1.0000
  H   H313      1.0  0.71110  0.32311  0.30369  1.0000
  H   H314      1.0  0.59007  0.24926  0.32208  1.0000
  C   C322      1.0  0.71977  0.37785  0.28657  1.0000
  H   H315      1.0  0.60762  0.30774  0.29932  1.0000
  S   S109      1.0  0.96637  0.39366  0.08054  1.0000
  H   H316      1.0  0.85171  0.30859  0.15830  1.0000
  C   C323      1.0  0.56449  0.06490  0.30372  1.0000
  H   H317      1.0  0.58218  0.42142  0.16587  1.0000
  S   S110      1.0  0.64109  0.41159  0.10991  1.0000
  H   H318      1.0  0.74740  0.44509  0.06218  1.0000
  S   S111      1.0  0.89766  0.40645  0.29680  1.0000
  C   C324      1.0  0.49712  0.03706  0.16878  1.0000
  C   C325      1.0  0.84079  0.34071  0.30177  1.0000
  C   C326      1.0  0.67313  0.15298  0.27965  1.0000
  S   S112      1.0  0.87646  0.39843  0.14880  1.0000
  C   C327      1.0  0.87216  0.35892  0.30681  1.0000
  H   H319      1.0  0.79675  0.28832  0.30589  1.0000
  C   C328      1.0  0.63736  0.10107  0.27115  1.0000
  S   S113      1.0  0.67599  0.45040  0.30688  1.0000
  C   C329      1.0  0.82058  0.30258  0.30994  1.0000
  C   C330      1.0  0.75181  0.42322  0.05581  1.0000
  C   C331      1.0  0.68721  0.33404  0.26771  1.0000
  H   H320      1.0  0.90299  0.41095  0.11472  1.0000
  Fe  Fe58      1.0  0.75114  0.45958  0.09769  1.0000
  H   H321      1.0  0.54734  0.01909  0.18939  1.0000
  C   C332      1.0  0.58385  0.03635  0.30888  1.0000
  Fe  Fe59      1.0  0.72718  0.47211  0.28610  1.0000
  C   C333      1.0  0.85218  0.45709  0.26985  1.0000
  C   C334      1.0  0.69976  0.37445  0.26204  1.0000
  H   H322      1.0  0.62883  0.02261  0.32046  1.0000
  Fe  Fe60      1.0  0.94206  0.42586  0.30984  1.0000
  H   H323      1.0  0.84204  0.27566  0.17779  1.0000
  H   H324      1.0  0.74664  0.16752  0.01444  1.0000
  S   S114      1.0  0.71050  0.48261  0.08402  1.0000
  C   C335      1.0  0.69517  0.12791  0.28542  1.0000
  C   C336      1.0  0.96885  0.24924  0.01008  1.0000
  C   C337      1.0  0.55233  0.08924  0.16195  1.0000
  C   C338      1.0  0.83654  0.30294  0.17108  1.0000
  C   C339      1.0  0.70809  0.33726  0.29206  1.0000
  S   S115      1.0  0.72747  0.19723  0.31001  1.0000
  H   H325      1.0  0.57692  0.10508  0.16505  1.0000
  C   C340      1.0  0.62744  0.34630  0.31325  1.0000
  S   S116      1.0  0.97771  0.41463  0.12063  1.0000
  C   C341      1.0  0.86512  0.44129  0.10422  1.0000
  C   C342      1.0  0.87874  0.42386  0.11708  1.0000
  H   H326      1.0  0.63607  0.37180  0.30323  1.0000
  H   H327      1.0  0.61409  0.09058  0.26587  1.0000
  C   C343      1.0  0.78914  0.42388  0.04769  1.0000
  C   C344      1.0  0.53457  0.04487  0.18881  1.0000
  S   S117      1.0  0.56107  0.00928  0.25850  1.0000
  H   H328      1.0  0.67567  0.21916  0.05892  1.0000
  H   H329      1.0  0.67798  0.18247  0.28111  1.0000
  S   S118      1.0  0.52833  0.05608  0.29327  1.0000
  S   S119      1.0  0.81573  0.47782  0.09067  1.0000
  H   H330      1.0  0.96402  0.22569  0.02069  1.0000
  H   H331      1.0  0.99223  0.47178  0.08564  1.0000
  C   C345      1.0  0.56917  0.47713  0.16603  1.0000
  H   H332      1.0  0.62627  0.15857  0.26817  1.0000
  H   H333      1.0  0.66161  0.01706  0.28462  1.0000
  C   C346      1.0  0.76082  0.21886  0.99485  1.0000
  H   H334      1.0  0.56447  0.46021  0.11780  1.0000
  H   H335      1.0  0.85781  0.42848  0.27337  1.0000
  N   N26       1.0  0.52758  0.05774  0.17287  1.0000
  S   S120      1.0  0.77125  0.46766  0.30061  1.0000
  C   C347      1.0  0.88262  0.33942  0.32020  1.0000
  C   C348      1.0  0.61137  0.31034  0.31106  1.0000
  H   H336      1.0  0.57614  0.00789  0.30691  1.0000
  H   H337      1.0  0.81321  0.44619  0.04789  1.0000
  H   H338      1.0  0.81131  0.43911  0.25641  1.0000
  H   H339      1.0  0.55999  0.12391  0.30254  1.0000
  C   C349      1.0  0.62474  0.08179  0.31901  1.0000
  C   C350      1.0  0.54251  0.47450  0.12242  1.0000
  H   H340      1.0  0.62451  0.44398  0.13842  1.0000
  H   H341      1.0  0.79206  0.47155  0.12472  1.0000
  C   C351      1.0  0.51505  0.45618  0.13676  1.0000
  C   C352      1.0  0.74392  0.15354  0.99189  1.0000
  H   H342      1.0  0.50722  0.03716  0.19821  1.0000
  C   C353      1.0  0.96999  0.48801  0.08467  1.0000
  C   C354      1.0  0.87062  0.48800  0.27494  1.0000
  H   H343      1.0  0.55483  0.06778  0.19174  1.0000
  Fe  Fe61      1.0  0.72006  0.45048  0.32156  1.0000
  C   C355      1.0  0.95063  0.48741  0.07236  1.0000
  S   S121      1.0  0.97982  0.48570  0.30289  1.0000
  H   H344      1.0  0.80072  0.39532  0.31918  1.0000
  C   C356      1.0  0.54663  0.10117  0.14654  1.0000
  H   H345      1.0  0.89078  0.48355  0.28246  1.0000
  C   C357      1.0  0.60507  0.11016  0.31397  1.0000
  S   S122      1.0  0.53647  0.46055  0.18481  1.0000
  C   C358      1.0  0.51536  0.08052  0.14234  1.0000
  C   C359      1.0  0.99146  0.31721  0.99652  1.0000
  C   C360      1.0  0.98685  0.28681  0.00998  1.0000
  H   H346      1.0  0.51111  0.08880  0.13032  1.0000
  H   H347      1.0  0.87913  0.47441  0.06277  1.0000
  H   H348      1.0  0.84732  0.33439  0.59403  1.0000
  H   H349      1.0  0.94551  0.44510  0.39406  1.0000
  H   H350      1.0  0.74207  0.22928  0.60969  1.0000
  N   N27       1.0  0.95005  0.31566  0.62155  1.0000
  H   H351      1.0  0.94157  0.47655  0.58954  1.0000
  S   S123      1.0  0.87156  0.46144  0.57935  1.0000
  C   C361      1.0  0.92029  0.45566  0.59932  1.0000
  S   S124      1.0  0.62901  0.20398  0.63026  1.0000
  H   H352      1.0  0.89285  0.39043  0.47605  1.0000
  H   H353      1.0  0.80782  0.28945  0.47734  1.0000
  H   H354      1.0  0.76896  0.34135  0.64759  1.0000
  C   C362      1.0  0.63232  0.31955  0.35620  1.0000
  S   S125      1.0  0.84780  0.38781  0.55426  1.0000
  Fe  Fe62      1.0  0.74347  0.38348  0.57629  1.0000
  S   S126      1.0  0.75585  0.34671  0.55913  1.0000
  S   S127      1.0  0.68660  0.37990  0.59254  1.0000
  C   C363      1.0  0.84962  0.26382  0.62578  1.0000
  Fe  Fe63      1.0  0.79824  0.40101  0.54391  1.0000
  S   S128      1.0  0.80919  0.42248  0.51711  1.0000
  S   S129      1.0  0.78228  0.43882  0.56022  1.0000
  H   H355      1.0  0.78897  0.30106  0.53025  1.0000
  H   H356      1.0  0.63218  0.34891  0.35814  1.0000
  N   N28       1.0  0.80537  0.36778  0.34257  1.0000
  S   S130      1.0  0.91551  0.39838  0.64453  1.0000
  S   S131      1.0  0.95222  0.35103  0.36142  1.0000
  C   C364      1.0  0.81767  0.33719  0.36751  1.0000
  Fe  Fe64      1.0  0.96867  0.40196  0.34006  1.0000
  H   H357      1.0  0.78621  0.42292  0.37705  1.0000
  C   C365      1.0  0.83218  0.27311  0.59566  1.0000
  Fe  Fe65      1.0  0.73244  0.37809  0.42227  1.0000
  S   S132      1.0  0.78263  0.36398  0.40736  1.0000
  S   S133      1.0  0.69936  0.41762  0.41055  1.0000
  Fe  Fe66      1.0  0.74556  0.33448  0.45336  1.0000
  S   S134      1.0  0.79677  0.31625  0.44113  1.0000
  S   S135      1.0  0.72424  0.31549  0.48015  1.0000
  Fe  Fe67      1.0  0.81334  0.37732  0.42599  1.0000
  S   S136      1.0  0.87353  0.41377  0.41782  1.0000
  Fe  Fe68      1.0  0.76107  0.30431  0.42368  1.0000
  S   S137      1.0  0.76298  0.25292  0.41314  1.0000
  S   S138      1.0  0.76512  0.39693  0.43956  1.0000
  S   S139      1.0  0.70787  0.31715  0.43728  1.0000
  H   H358      1.0  0.74574  0.19616  0.39545  1.0000
  C   C366      1.0  0.67318  0.26222  0.39238  1.0000
  C   C367      1.0  0.69993  0.26746  0.40184  1.0000
  C   C368      1.0  0.72667  0.24419  0.40276  1.0000
  S   S140      1.0  0.80837  0.23476  0.33327  1.0000
  S   S141      1.0  0.70694  0.17057  0.34915  1.0000
  H   H359      1.0  0.69980  0.28941  0.40846  1.0000
  H   H360      1.0  0.83216  0.33866  0.37714  1.0000
  H   H361      1.0  0.53875  0.08994  0.62231  1.0000
  N   N29       1.0  0.90072  0.24288  0.36273  1.0000
  C   C369      1.0  0.51681  0.20228  0.63567  1.0000
  C   C370      1.0  0.60822  0.28104  0.33871  1.0000
  C   C371      1.0  0.70749  0.40167  0.36011  1.0000
  H   H362      1.0  0.93823  0.25509  0.62264  1.0000
  H   H363      1.0  0.83795  0.29795  0.53083  1.0000
  C   C372      1.0  0.85207  0.30090  0.61648  1.0000
  C   C373      1.0  0.53019  0.14312  0.62838  1.0000
  H   H364      1.0  0.76670  0.22210  0.64842  1.0000
  C   C374      1.0  0.93292  0.36718  0.37796  1.0000
  C   C375      1.0  0.89955  0.34430  0.38902  1.0000
  C   C376      1.0  0.88196  0.35822  0.40155  1.0000
  C   C377      1.0  0.89815  0.39481  0.40325  1.0000
  C   C378      1.0  0.93245  0.41712  0.39259  1.0000
  C   C379      1.0  0.94945  0.40361  0.37974  1.0000
  H   H365      1.0  0.88640  0.31649  0.38758  1.0000
  H   H366      1.0  0.85578  0.34056  0.40986  1.0000
  C   C380      1.0  0.93439  0.25960  0.34919  1.0000
  H   H367      1.0  0.70829  0.44585  0.60355  1.0000
  C   C381      1.0  0.78209  0.39512  0.50701  1.0000
  C   C382      1.0  0.79300  0.40385  0.49028  1.0000
  C   C383      1.0  0.77498  0.37979  0.48194  1.0000
  C   C384      1.0  0.74554  0.34724  0.49028  1.0000
  C   C385      1.0  0.73345  0.33942  0.50697  1.0000
  C   C386      1.0  0.75168  0.36337  0.51532  1.0000
  H   H368      1.0  0.81654  0.42839  0.48379  1.0000
  H   H369      1.0  0.78494  0.38575  0.46913  1.0000
  H   H370      1.0  0.71041  0.31443  0.51347  1.0000
  H   H371      1.0  0.74249  0.35693  0.52818  1.0000
  C   C387      1.0  0.64225  0.25303  0.61995  1.0000
  C   C388      1.0  0.63738  0.28220  0.62788  1.0000
  C   C389      1.0  0.64966  0.32139  0.61932  1.0000
  C   C390      1.0  0.66729  0.33124  0.60293  1.0000
  C   C391      1.0  0.67169  0.30195  0.59505  1.0000
  C   C392      1.0  0.65902  0.26292  0.60352  1.0000
  H   H372      1.0  0.62464  0.27470  0.64059  1.0000
  H   H373      1.0  0.64641  0.34400  0.62548  1.0000
  H   H374      1.0  0.68472  0.30936  0.58238  1.0000
  H   H375      1.0  0.66276  0.24041  0.59736  1.0000
  C   C393      1.0  0.69963  0.41050  0.39142  1.0000
  H   H376      1.0  0.50095  0.20355  0.64763  1.0000
  C   C394      1.0  0.69940  0.46867  0.43941  1.0000
  C   C395      1.0  0.93004  0.44213  0.61381  1.0000
  C   C396      1.0  0.78023  0.33430  0.34293  1.0000
  C   C397      1.0  0.77389  0.30115  0.35547  1.0000
  C   C398      1.0  0.79313  0.30263  0.36770  1.0000
  C   C399      1.0  0.76931  0.28107  0.64966  1.0000
  H   H377      1.0  0.75456  0.27432  0.35563  1.0000
  H   H378      1.0  0.78901  0.27707  0.37732  1.0000
  H   H379      1.0  0.85291  0.48469  0.62284  1.0000
  C   C400      1.0  0.73608  0.45776  0.60559  1.0000
  H   H380      1.0  0.60109  0.25523  0.34852  1.0000
  H   H381      1.0  0.71265  0.35444  0.39703  1.0000
  C   C401      1.0  0.67337  0.23383  0.38371  1.0000
  C   C402      1.0  0.81255  0.40230  0.32929  1.0000
  H   H382      1.0  0.84363  0.38267  0.63480  1.0000
  C   C403      1.0  0.82345  0.36970  0.35479  1.0000
  C   C404      1.0  0.72594  0.21500  0.39451  1.0000
  H   H383      1.0  0.82201  0.21085  0.60035  1.0000
  S   S142      1.0  0.71594  0.39671  0.34046  1.0000
  C   C405      1.0  0.84385  0.30557  0.60136  1.0000
  N   N30       1.0  0.62386  0.31649  0.34079  1.0000
  S   S143      1.0  0.71206  0.26186  0.33046  1.0000
  H   H384      1.0  0.70017  0.41286  0.49155  1.0000
  C   C406      1.0  0.80675  0.45069  0.37223  1.0000
  N   N31       1.0  0.83083  0.32472  0.50796  1.0000
  C   C407      1.0  0.81296  0.30037  0.50019  1.0000
  C   C408      1.0  0.85968  0.35634  0.49949  1.0000
  H   H385      1.0  0.69165  0.45665  0.35469  1.0000
  C   C409      1.0  0.87076  0.36471  0.48276  1.0000
  C   C410      1.0  0.85228  0.34038  0.47472  1.0000
  C   C411      1.0  0.90249  0.41575  0.62661  1.0000
  C   C412      1.0  0.81987  0.31626  0.52550  1.0000
  H   H386      1.0  0.87335  0.37604  0.50564  1.0000
  H   H387      1.0  0.83712  0.20258  0.62703  1.0000
  H   H388      1.0  0.85990  0.34711  0.46172  1.0000
  H   H389      1.0  0.72000  0.34656  0.36946  1.0000
  H   H390      1.0  0.61068  0.29814  0.36633  1.0000
  S   S144      1.0  0.81768  0.27859  0.57757  1.0000
  C   C413      1.0  0.73887  0.28793  0.62287  1.0000
  H   H391      1.0  0.82348  0.34351  0.52958  1.0000
  C   C414      1.0  0.90174  0.25104  0.37718  1.0000
  H   H392      1.0  0.72070  0.42820  0.63062  1.0000
  C   C415      1.0  0.86934  0.23714  0.39007  1.0000
  C   C416      1.0  0.83468  0.20743  0.37321  1.0000
  C   C417      1.0  0.83562  0.21533  0.38803  1.0000
  H   H393      1.0  0.65598  0.39807  0.44283  1.0000
  H   H394      1.0  0.92755  0.26903  0.37869  1.0000
  H   H395      1.0  0.95975  0.37696  0.61754  1.0000
  S   S145      1.0  0.86808  0.14978  0.64741  1.0000
  H   H396      1.0  0.81022  0.20501  0.39791  1.0000
  C   C418      1.0  0.69677  0.43457  0.36384  1.0000
  H   H397      1.0  0.87004  0.24396  0.40149  1.0000
  H   H398      1.0  0.70664  0.20430  0.62813  1.0000
  N   N32       1.0  0.68727  0.43648  0.45386  1.0000
  C   C419      1.0  0.66503  0.40183  0.45361  1.0000
  C   C420      1.0  0.70016  0.44051  0.46722  1.0000
  C   C421      1.0  0.65413  0.37049  0.46715  1.0000
  S   S146      1.0  0.78760  0.36859  0.58950  1.0000
  H   H399      1.0  0.97559  0.42118  0.37133  1.0000
  H   H400      1.0  0.95887  0.45246  0.61516  1.0000
  C   C422      1.0  0.94034  0.32647  0.59042  1.0000
  C   C423      1.0  0.94848  0.35830  0.59687  1.0000
  C   C424      1.0  0.84111  0.45789  0.37731  1.0000
  H   H401      1.0  0.51150  0.22505  0.62628  1.0000
  C   C425      1.0  0.76054  0.24940  0.64310  1.0000
  Fe  Fe69      1.0  0.74848  0.21827  0.32979  1.0000
  C   C426      1.0  0.94245  0.28428  0.61528  1.0000
  C   C427      1.0  0.82323  0.30794  0.48347  1.0000
  C   C428      1.0  0.68946  0.40989  0.48103  1.0000
  C   C429      1.0  0.77898  0.46366  0.62328  1.0000
  H   H402      1.0  0.93535  0.29073  0.34418  1.0000
  C   C430      1.0  0.74308  0.44786  0.62080  1.0000
  H   H403      1.0  0.75569  0.19919  0.62557  1.0000
  H   H404      1.0  0.68549  0.46488  0.38235  1.0000
  H   H405      1.0  0.72757  0.29107  0.61225  1.0000
  C   C431      1.0  0.69957  0.21005  0.38493  1.0000
  H   H406      1.0  0.78415  0.45612  0.63517  1.0000
  H   H407      1.0  0.69615  0.09152  0.64794  1.0000
  H   H408      1.0  0.69890  0.18709  0.37884  1.0000
  C   C432      1.0  0.69294  0.43905  0.37952  1.0000
  H   H409      1.0  0.74007  0.34720  0.62397  1.0000
  S   S147      1.0  0.85980  0.25883  0.64468  1.0000
  H   H410      1.0  0.93353  0.24434  0.33947  1.0000
  H   H411      1.0  0.93501  0.33054  0.57850  1.0000
  H   H412      1.0  0.75982  0.49064  0.58115  1.0000
  C   C433      1.0  0.51793  0.10664  0.62563  1.0000
  C   C434      1.0  0.83076  0.23603  0.60478  1.0000
  H   H413      1.0  0.96156  0.25789  0.35309  1.0000
  C   C435      1.0  0.88323  0.44215  0.59740  1.0000
  H   H414      1.0  0.65277  0.28053  0.39162  1.0000
  H   H415      1.0  0.82656  0.40609  0.60904  1.0000
  C   C436      1.0  0.76495  0.48304  0.59305  1.0000
  C   C437      1.0  0.86780  0.22122  0.36066  1.0000
  C   C438      1.0  0.71263  0.37252  0.37217  1.0000
  H   H416      1.0  0.90682  0.01875  0.64639  1.0000
  N   N33       1.0  0.74625  0.25334  0.62968  1.0000
  C   C439      1.0  0.83927  0.23135  0.61989  1.0000
  H   H417      1.0  0.86662  0.21524  0.34913  1.0000
  C   C440      1.0  0.66605  0.37480  0.48098  1.0000
  C   C441      1.0  0.95364  0.35229  0.61250  1.0000
  H   H418      1.0  0.63733  0.34274  0.46681  1.0000
  Fe  Fe70      1.0  0.96113  0.48479  0.32870  1.0000
  C   C442      1.0  0.70867  0.37698  0.38778  1.0000
  C   C443      1.0  0.95248  0.31044  0.63830  1.0000
  C   C444      1.0  0.79904  0.47961  0.36088  1.0000
  H   H419      1.0  0.76527  0.33297  0.33342  1.0000
  C   C445      1.0  0.86505  0.40297  0.62490  1.0000
  H   H420      1.0  0.71914  0.46736  0.46724  1.0000
  H   H421      1.0  0.94982  0.38734  0.58999  1.0000
  Fe  Fe71      1.0  0.80404  0.33693  0.57092  1.0000
  H   H422      1.0  0.86072  0.32609  0.62090  1.0000
  C   C446      1.0  0.93760  0.28921  0.59961  1.0000
  C   C447      1.0  0.85556  0.41575  0.61022  1.0000
  H   H423      1.0  0.78973  0.27559  0.50685  1.0000
  H   H424      1.0  0.66131  0.31390  0.35653  1.0000
  H   H425      1.0  0.54814  0.20907  0.63533  1.0000
  Fe  Fe72      1.0  0.82788  0.42048  0.57206  1.0000
  C   C448      1.0  0.73720  0.21989  0.62295  1.0000
  H   H426      1.0  0.65857  0.35038  0.49144  1.0000
  H   H427      1.0  0.84729  0.43521  0.38602  1.0000
  H   H428      1.0  0.84270  0.39639  0.35468  1.0000
  C   C449      1.0  0.74630  0.31991  0.62935  1.0000
  H   H429      1.0  0.87063  0.28697  0.33867  1.0000
  C   C450      1.0  0.76212  0.31651  0.64270  1.0000
  Fe  Fe73      1.0  0.66940  0.21322  0.34898  1.0000
  H   H430      1.0  0.56080  0.15451  0.62696  1.0000
  H   H431      1.0  0.92990  0.26415  0.59492  1.0000
  S   S148      1.0  0.64140  0.22868  0.37115  1.0000
  H   H432      1.0  0.80836  0.19121  0.37130  1.0000
  H   H433      1.0  0.68316  0.33863  0.65202  1.0000
  S   S149      1.0  0.91927  0.42752  0.33508  1.0000
  H   H434      1.0  0.92351  0.48513  0.36961  1.0000
  H   H435      1.0  0.90261  0.06536  0.65030  1.0000
  S   S150      1.0  0.66449  0.09245  0.32743  1.0000
  C   C451      1.0  0.63380  0.34879  0.32826  1.0000
  N   N34       1.0  0.50393  0.16388  0.63298  1.0000
  H   H436      1.0  0.79886  0.42462  0.33342  1.0000
  S   S151      1.0  0.63951  0.19247  0.33119  1.0000
  H   H437      1.0  0.67748  0.46770  0.43211  1.0000
  C   C452      1.0  0.86260  0.30149  0.32827  1.0000
  H   H438      1.0  0.77280  0.47431  0.35668  1.0000
  H   H439      1.0  0.72692  0.46661  0.43189  1.0000
  H   H440      1.0  0.90639  0.35337  0.32432  1.0000
  N   N35       1.0  0.80725  0.48826  0.61088  1.0000
  H   H441      1.0  0.97939  0.32930  0.63917  1.0000
  Fe  Fe74      1.0  0.68132  0.15405  0.32951  1.0000
  H   H442      1.0  0.92739  0.31852  0.64518  1.0000
  H   H443      1.0  0.64708  0.37659  0.32983  1.0000
  H   H444      1.0  0.89881  0.48708  0.38934  1.0000
  H   H445      1.0  0.95163  0.27983  0.64409  1.0000
  C   C453      1.0  0.80056  0.49819  0.59592  1.0000
  H   H446      1.0  0.70339  0.49721  0.44244  1.0000
  N   N36       1.0  0.86668  0.49318  0.37141  1.0000
  S   S152      1.0  0.76752  0.07551  0.65421  1.0000
  H   H447      1.0  0.84401  0.41450  0.32451  1.0000
  C   C454      1.0  0.90336  0.49934  0.37624  1.0000
  C   C455      1.0  0.90474  0.03539  0.65568  1.0000
  H   H448      1.0  0.83115  0.03380  0.65556  1.0000
  C   C456      1.0  0.60168  0.27746  0.32383  1.0000
  C   C457      1.0  0.83199  0.28274  0.32305  1.0000
  S   S153      1.0  0.64087  0.26463  0.79599  1.0000
  H   H449      1.0  0.65889  0.12434  0.86884  1.0000
  Fe  Fe75      1.0  0.81057  0.11410  0.66234  1.0000
  C   C458      1.0  0.91818  0.02037  0.71480  1.0000
  C   C459      1.0  0.64773  0.30097  0.67432  1.0000
  Fe  Fe76      1.0  0.86632  0.46754  0.82178  1.0000
  S   S154      1.0  0.82027  0.42298  0.84051  1.0000
  S   S155      1.0  0.61488  0.08287  0.70046  1.0000
  S   S156      1.0  0.87511  0.40018  0.68959  1.0000
  C   C460      1.0  0.89179  0.29405  0.78259  1.0000
  Fe  Fe77      1.0  0.70246  0.29866  0.78834  1.0000
  S   S157      1.0  0.71288  0.36377  0.78259  1.0000
  S   S158      1.0  0.80934  0.24594  0.90588  1.0000
  Fe  Fe78      1.0  0.82054  0.15906  0.88752  1.0000
  S   S159      1.0  0.80890  0.21280  0.87351  1.0000
  S   S160      1.0  0.82840  0.11122  0.87565  1.0000
  Fe  Fe79      1.0  0.85255  0.24303  0.88444  1.0000
  S   S161      1.0  0.89960  0.29280  0.86894  1.0000
  Fe  Fe80      1.0  0.76682  0.21031  0.89606  1.0000
  S   S162      1.0  0.70708  0.22000  0.89747  1.0000
  S   S163      1.0  0.86761  0.18926  0.89677  1.0000
  C   C461      1.0  0.62766  0.20262  0.87182  1.0000
  S   S164      1.0  0.60287  0.25415  0.70287  1.0000
  H   H450      1.0  0.85996  0.32991  0.77029  1.0000
  C   C462      1.0  0.86019  0.24624  0.94080  1.0000
  C   C463      1.0  0.87415  0.27650  0.94741  1.0000
  C   C464      1.0  0.75881  0.20879  0.96913  1.0000
  C   C465      1.0  0.75364  0.13992  0.83717  1.0000
  H   H451      1.0  0.86018  0.25224  0.92823  1.0000
  H   H452      1.0  0.88472  0.30579  0.93989  1.0000
  C   C466      1.0  0.92848  0.15038  0.83132  1.0000
  C   C467      1.0  0.64960  0.21019  0.85616  1.0000
  C   C468      1.0  0.68999  0.22003  0.85311  1.0000
  C   C469      1.0  0.70824  0.22263  0.86574  1.0000
  C   C470      1.0  0.68600  0.21568  0.88137  1.0000
  C   C471      1.0  0.64577  0.20573  0.88435  1.0000
  H   H453      1.0  0.70715  0.22514  0.84113  1.0000
  H   H454      1.0  0.73934  0.23075  0.86335  1.0000
  C   C472      1.0  0.56611  0.01240  0.76384  1.0000
  C   C473      1.0  0.91133  0.11097  0.83795  1.0000
  C   C474      1.0  0.88005  0.09927  0.85133  1.0000
  C   C475      1.0  0.86625  0.12688  0.85836  1.0000
  C   C476      1.0  0.88313  0.16644  0.85167  1.0000
  C   C477      1.0  0.91391  0.17822  0.83800  1.0000
  H   H455      1.0  0.86710  0.06869  0.85646  1.0000
  H   H456      1.0  0.87308  0.18792  0.85718  1.0000
  H   H457      1.0  0.92731  0.20861  0.83307  1.0000
  H   H458      1.0  0.78049  0.14489  0.82828  1.0000
  C   C478      1.0  0.83462  0.43921  0.77204  1.0000
  C   C479      1.0  0.80283  0.45595  0.77222  1.0000
  C   C480      1.0  0.76555  0.43232  0.77591  1.0000
  C   C481      1.0  0.75984  0.39184  0.77948  1.0000
  C   C482      1.0  0.79152  0.37492  0.77996  1.0000
  C   C483      1.0  0.82894  0.39873  0.77626  1.0000
  H   H459      1.0  0.80708  0.48723  0.76909  1.0000
  H   H460      1.0  0.74113  0.44553  0.77560  1.0000
  H   H461      1.0  0.78727  0.34369  0.78275  1.0000
  S   S165      1.0  0.83904  0.44679  0.66146  1.0000
  C   C484      1.0  0.84211  0.38812  0.84967  1.0000
  C   C485      1.0  0.81964  0.35152  0.85834  1.0000
  C   C486      1.0  0.83732  0.32257  0.86467  1.0000
  C   C487      1.0  0.87747  0.33014  0.86232  1.0000
  C   C488      1.0  0.89989  0.36711  0.85410  1.0000
  C   C489      1.0  0.88218  0.39609  0.84772  1.0000
  H   H462      1.0  0.78866  0.34527  0.86001  1.0000
  H   H463      1.0  0.81974  0.29435  0.87126  1.0000
  H   H464      1.0  0.93093  0.37319  0.85242  1.0000
  H   H465      1.0  0.79964  0.27862  0.77816  1.0000
  N   N37       1.0  0.87981  0.31606  0.82270  1.0000
  C   C490      1.0  0.85225  0.33012  0.81615  1.0000
  C   C491      1.0  0.87311  0.27771  0.83046  1.0000
  C   C492      1.0  0.81669  0.30556  0.81740  1.0000
  C   C493      1.0  0.83810  0.25223  0.83173  1.0000
  C   C494      1.0  0.80971  0.26632  0.82519  1.0000
  H   H466      1.0  0.63633  0.06142  0.73281  1.0000
  H   H467      1.0  0.72086  0.22010  0.67967  1.0000
  H   H468      1.0  0.89497  0.26661  0.83566  1.0000
  C   C495      1.0  0.54902  0.10676  0.76763  1.0000
  H   H469      1.0  0.83331  0.22168  0.83753  1.0000
  S   S166      1.0  0.93411  0.33038  0.77738  1.0000
  H   H470      1.0  0.52913  0.24881  0.72213  1.0000
  N   N38       1.0  0.76580  0.23332  0.97873  1.0000
  C   C496      1.0  0.91768  0.34173  0.82031  1.0000
  N   N39       1.0  0.71972  0.37224  0.83285  1.0000
  C   C497      1.0  0.72218  0.36764  0.84846  1.0000
  C   C498      1.0  0.69420  0.34555  0.82869  1.0000
  C   C499      1.0  0.69836  0.33598  0.86041  1.0000
  C   C500      1.0  0.66961  0.31380  0.84037  1.0000
  C   C501      1.0  0.67169  0.30917  0.85632  1.0000
  C   C502      1.0  0.74593  0.40479  0.82039  1.0000
  H   H471      1.0  0.74257  0.38853  0.85179  1.0000
  H   H472      1.0  0.69253  0.34882  0.81631  1.0000
  H   H473      1.0  0.70064  0.33219  0.87276  1.0000
  H   H474      1.0  0.64918  0.29277  0.83707  1.0000
  H   H475      1.0  0.65281  0.28473  0.86551  1.0000
  H   H476      1.0  0.75369  0.43054  0.82519  1.0000
  H   H477      1.0  0.77301  0.39636  0.81571  1.0000
  H   H478      1.0  0.73245  0.41393  0.81031  1.0000
  N   N40       1.0  0.97883  0.31029  0.98344  1.0000
  C   C503      1.0  0.89840  0.05013  0.71408  1.0000
  C   C504      1.0  0.85893  0.30176  0.77769  1.0000
  H   H479      1.0  0.85790  0.36040  0.80974  1.0000
  Fe  Fe81      1.0  0.66045  0.22860  0.81555  1.0000
  S   S167      1.0  0.77415  0.15311  0.90929  1.0000
  H   H480      1.0  0.65773  0.13360  0.84027  1.0000
  C   C505      1.0  0.85738  0.22753  0.79546  1.0000
  S   S168      1.0  0.62530  0.20748  0.84082  1.0000
  Fe  Fe82      1.0  0.82031  0.18885  0.91737  1.0000
  S   S169      1.0  0.78382  0.40574  0.69748  1.0000
  H   H481      1.0  0.95044  0.26800  0.97319  1.0000
  N   N41       1.0  0.69651  0.22792  0.71778  1.0000
  N   N42       1.0  0.71954  0.12792  0.86464  1.0000
  C   C506      1.0  0.75341  0.13461  0.85341  1.0000
  C   C507      1.0  0.72007  0.12308  0.88157  1.0000
  H   H482      1.0  0.78047  0.13569  0.85697  1.0000
  H   H483      1.0  0.74318  0.10839  0.88451  1.0000
  H   H484      1.0  0.72518  0.15187  0.88434  1.0000
  H   H485      1.0  0.69229  0.10502  0.88953  1.0000
  C   C508      1.0  0.68552  0.12779  0.86005  1.0000
  S   S170      1.0  0.72009  0.26586  0.80918  1.0000
  C   C509      1.0  0.87642  0.18629  0.72381  1.0000
  C   C510      1.0  0.84594  0.20848  0.95051  1.0000
  S   S171      1.0  0.82423  0.17097  0.94301  1.0000
  N   N43       1.0  0.99276  0.25246  0.85669  1.0000
  H   H486      1.0  0.67884  0.18081  0.73868  1.0000
  H   H487      1.0  0.62849  0.20036  0.89642  1.0000
  H   H488      1.0  0.59646  0.19494  0.87427  1.0000
  S   S172      1.0  0.72155  0.26251  0.77180  1.0000
  H   H489      1.0  0.85366  0.38609  0.77644  1.0000
  C   C511      1.0  0.82498  0.27261  0.78200  1.0000
  H   H490      1.0  0.71891  0.14274  0.81987  1.0000
  H   H491      1.0  0.96571  0.00024  0.70308  1.0000
  H   H492      1.0  0.83584  0.17163  0.97425  1.0000
  H   H493      1.0  0.85390  0.12579  0.73585  1.0000
  C   C512      1.0  0.68470  0.13313  0.84389  1.0000
  C   C513      1.0  0.71899  0.13884  0.83244  1.0000
  H   H494      1.0  0.66082  0.25843  0.72961  1.0000
  Fe  Fe83      1.0  0.73314  0.22605  0.79356  1.0000
  Fe  Fe84      1.0  0.66119  0.22544  0.78117  1.0000
  H   H495      1.0  0.91605  0.25071  0.79542  1.0000
  Fe  Fe85      1.0  0.97950  0.30151  0.78498  1.0000
  H   H496      1.0  0.75197  0.28833  0.97344  1.0000
  C   C514      1.0  0.82440  0.23549  0.79078  1.0000
  C   C515      1.0  0.89092  0.25697  0.79153  1.0000
  S   S173      1.0  0.50771  0.04257  0.79178  1.0000
  Fe  Fe86      1.0  0.81697  0.35912  0.69841  1.0000
  S   S174      1.0  0.62986  0.20349  0.76378  1.0000
  S   S175      1.0  0.67481  0.18609  0.80153  1.0000
  H   H497      1.0  0.98369  0.05538  0.67891  1.0000
  H   H498      1.0  0.68689  0.13091  0.72357  1.0000
  S   S176      1.0  0.78285  0.19867  0.79552  1.0000
  Fe  Fe87      1.0  0.84176  0.44647  0.68673  1.0000
  H   H499      1.0  0.89239  0.27834  0.74805  1.0000
  N   N44       1.0  0.87106  0.01590  0.66892  1.0000
  C   C516      1.0  0.54164  0.08726  0.78380  1.0000
  C   C517      1.0  0.84860  0.20134  0.75296  1.0000
  C   C518      1.0  0.63859  0.29438  0.69100  1.0000
  H   H500      1.0  0.58243  0.15684  0.74895  1.0000
  S   S177      1.0  0.88148  0.46887  0.76564  1.0000
  C   C519      1.0  0.59690  0.15820  0.77155  1.0000
  H   H501      1.0  0.88367  0.42000  0.74018  1.0000
  C   C520      1.0  0.56210  0.10329  0.79379  1.0000
  C   C521      1.0  0.96129  0.27346  0.98340  1.0000
  C   C522      1.0  0.54579  0.23700  0.74462  1.0000
  H   H502      1.0  0.89964  0.42452  0.84124  1.0000
  Fe  Fe88      1.0  0.88826  0.13297  0.66987  1.0000
  C   C523      1.0  0.53475  0.21498  0.76053  1.0000
  C   C524      1.0  0.57690  0.14190  0.76148  1.0000
  H   H503      1.0  0.60385  0.15154  0.79569  1.0000
  H   H504      1.0  0.91474  0.37101  0.82143  1.0000
  S   S178      1.0  0.80135  0.31377  0.72180  1.0000
  Fe  Fe89      1.0  0.52461  0.15981  0.67884  1.0000
  H   H505      1.0  0.82955  0.13917  0.76218  1.0000
  H   H506      1.0  0.70050  0.24942  0.73834  1.0000
  H   H507      1.0  0.93523  0.34447  0.80816  1.0000
  H   H508      1.0  0.53346  0.09484  0.75981  1.0000
  C   C525      1.0  0.58926  0.13892  0.78774  1.0000
  N   N45       1.0  0.50055  0.18773  0.76603  1.0000
  Fe  Fe90      1.0  0.81786  0.14470  0.69121  1.0000
  C   C526      1.0  0.84665  0.20089  0.96673  1.0000
  S   S179      1.0  0.99040  0.24796  0.77772  1.0000
  H   H509      1.0  0.85698  0.19874  0.80222  1.0000
  C   C527      1.0  0.52097  0.23201  0.73451  1.0000
  H   H510      1.0  0.92250  0.08934  0.83284  1.0000
  C   C528      1.0  0.93855  0.08248  0.68762  1.0000
  H   H511      1.0  0.70453  0.36993  0.69465  1.0000
  H   H512      1.0  0.62174  0.07390  0.75147  1.0000
  H   H513      1.0  0.70982  0.28620  0.72015  1.0000
  C   C529      1.0  0.87328  0.26916  0.96378  1.0000
  C   C530      1.0  0.69227  0.16116  0.71727  1.0000
  H   H514      1.0  0.84198  0.27520  0.74800  1.0000
  H   H515      1.0  0.70763  0.15040  0.69395  1.0000
  C   C531      1.0  0.77612  0.19695  0.73236  1.0000
  C   C532      1.0  0.70431  0.17220  0.70062  1.0000
  S   S180      1.0  0.54774  0.15437  0.70098  1.0000
  C   C533      1.0  0.70772  0.23897  0.70142  1.0000
  H   H516      1.0  0.65121  0.31499  0.71116  1.0000
  C   C534      1.0  0.68814  0.18953  0.72571  1.0000
  C   C535      1.0  0.61101  0.06331  0.74175  1.0000
  Fe  Fe91      1.0  0.59347  0.13149  0.68750  1.0000
  S   S181      1.0  0.79127  0.16310  0.67084  1.0000
  H   H517      1.0  0.55646  0.08843  0.80632  1.0000
  H   H518      1.0  0.89340  0.24822  0.71487  1.0000
  C   C536      1.0  0.65875  0.31956  0.69830  1.0000
  C   C537      1.0  0.71201  0.21133  0.69261  1.0000
  H   H519      1.0  0.87752  0.29284  0.72958  1.0000
  H   H520      1.0  0.76444  0.17319  0.74296  1.0000
  C   C538      1.0  0.69165  0.25705  0.72687  1.0000
  S   S182      1.0  0.78696  0.14173  0.71612  1.0000
  H   H521      1.0  0.71341  0.26930  0.69510  1.0000
  H   H522      1.0  0.93414  0.16630  0.87853  1.0000
  C   C539      1.0  0.79547  0.26610  0.71992  1.0000
  H   H523      1.0  0.81994  0.28206  0.69451  1.0000
  C   C540      1.0  0.80719  0.25850  0.70504  1.0000
  C   C541      1.0  0.68598  0.06659  0.69392  1.0000
  C   C542      1.0  0.88003  0.22441  0.72537  1.0000
  Fe  Fe92      1.0  0.58716  0.21230  0.68833  1.0000
  C   C543      1.0  0.68885  0.35068  0.68896  1.0000
  C   C544      1.0  0.78844  0.18939  0.71750  1.0000
  C   C545      1.0  0.85812  0.15541  0.73709  1.0000
  S   S183      1.0  0.55926  0.22077  0.66752  1.0000
  H   H524      1.0  0.76297  0.22006  0.95632  1.0000
  C   C546      1.0  0.81023  0.45651  0.73319  1.0000
  S   S184      1.0  0.87624  0.18351  0.67922  1.0000
  H   H525      1.0  0.93322  0.33077  0.82941  1.0000
  H   H526      1.0  0.55412  0.21929  0.76833  1.0000
  H   H527      1.0  0.57362  0.25746  0.74007  1.0000
  S   S185      1.0  0.63456  0.18897  0.67614  1.0000
  C   C547      1.0  0.80352  0.22015  0.70382  1.0000
  C   C548      1.0  0.77978  0.23535  0.73357  1.0000
  H   H528      1.0  0.77086  0.24116  0.74513  1.0000
  H   H529      1.0  0.57352  0.02904  0.77220  1.0000
  C   C549      1.0  0.81187  0.38988  0.73904  1.0000
  H   H530      1.0  0.81272  0.21455  0.69227  1.0000
  H   H531      1.0  0.63205  0.28170  0.66863  1.0000
  H   H532      1.0  0.78271  0.24666  0.82588  1.0000
  Fe  Fe93      1.0  0.89518  0.49082  0.78637  1.0000
  Fe  Fe94      1.0  0.99300  0.22653  0.80320  1.0000
  C   C550      1.0  0.96036  0.05431  0.68884  1.0000
  C   C551      1.0  0.77161  0.37906  0.74224  1.0000
  N   N46       1.0  0.86593  0.23149  0.73981  1.0000
  H   H533      1.0  0.74445  0.14928  0.96770  1.0000
  H   H534      1.0  0.75686  0.34862  0.74590  1.0000
  C   C552      1.0  0.65599  0.07796  0.68762  1.0000
  C   C553      1.0  0.76994  0.44674  0.73622  1.0000
  S   S186      1.0  0.88815  0.30795  0.97198  1.0000
  C   C554      1.0  0.84422  0.16290  0.75179  1.0000
  H   H535      1.0  0.88488  0.43541  0.71899  1.0000
  N   N47       1.0  0.83061  0.42818  0.73471  1.0000
  H   H536      1.0  0.63668  0.09600  0.66610  1.0000
  H   H537      1.0  0.88373  0.46914  0.73145  1.0000
  H   H538      1.0  0.79170  0.28250  0.95886  1.0000
  C   C555      1.0  0.86987  0.27145  0.74142  1.0000
  C   C556      1.0  0.75057  0.40771  0.74086  1.0000
  H   H539      1.0  0.79514  0.31678  0.81204  1.0000
  C   C557      1.0  0.83494  0.01772  0.66683  1.0000
  H   H540      1.0  0.79906  0.28919  0.97764  1.0000
  H   H541      1.0  0.87402  0.04824  0.72370  1.0000
  C   C558      1.0  0.77750  0.27540  0.97184  1.0000
  H   H542      1.0  0.82512  0.48690  0.72961  1.0000
  H   H543      1.0  0.85942  0.22526  0.98599  1.0000
  H   H544      1.0  0.68349  0.06006  0.70670  1.0000
  C   C559      1.0  0.65968  0.08700  0.67104  1.0000
  Fe  Fe95      1.0  0.95279  0.49344  0.80732  1.0000
  H   H545      1.0  0.88667  0.18065  0.71229  1.0000
  H   H546      1.0  0.89282  0.10384  0.69984  1.0000
  H   H547      1.0  0.96057  0.42972  0.75233  1.0000
  S   S187      1.0  0.83197  0.09244  0.68392  1.0000
  S   S188      1.0  0.81289  0.35084  0.67411  1.0000
  C   C560      1.0  0.87286  0.43862  0.73112  1.0000
  H   H548      1.0  0.82801  0.36743  0.74013  1.0000
  C   C561      1.0  0.72357  0.07378  0.66704  1.0000
  H   H549      1.0  0.83735  0.20691  0.76437  1.0000
  C   C562      1.0  0.97976  0.17370  0.85776  1.0000
  S   S189      1.0  0.90682  0.44568  0.80522  1.0000
  C   C563      1.0  0.90873  0.08129  0.70051  1.0000
  H   H550      1.0  0.94333  0.42734  0.77318  1.0000
  Fe  Fe96      1.0  0.86770  0.39697  0.66506  1.0000
  C   C564      1.0  0.69758  0.35767  0.67228  1.0000
  Fe  Fe97      1.0  0.60316  0.19182  0.65649  1.0000
  C   C565      1.0  0.85987  0.23127  0.97341  1.0000
  C   C566      1.0  0.96400  0.22658  0.86851  1.0000
  Fe  Fe98      1.0  0.78455  0.40100  0.67244  1.0000
  C   C567      1.0  0.72007  0.06529  0.68361  1.0000
  C   C568      1.0  0.95726  0.18681  0.86929  1.0000
  H   H551      1.0  0.74374  0.05791  0.68850  1.0000
  S   S190      1.0  0.73513  0.39653  0.66060  1.0000
  H   H552      1.0  0.98816  0.30882  0.84564  1.0000
  C   C569      1.0  0.95011  0.02308  0.70248  1.0000
  H   H553      1.0  0.59675  0.08502  0.73581  1.0000
  C   C570      1.0  0.67671  0.33312  0.66493  1.0000
  S   S191      1.0  0.56714  0.13151  0.66653  1.0000
  S   S192      1.0  0.96989  0.16339  0.81554  1.0000
  N   N48       1.0  0.99081  0.47441  0.76094  1.0000
  C   C571      1.0  0.74817  0.16857  0.97553  1.0000
  H   H554      1.0  0.71930  0.39959  0.74364  1.0000
  H   H555      1.0  0.97397  0.14309  0.85792  1.0000
  S   S193      1.0  0.94454  0.11575  0.66934  1.0000
  H   H556      1.0  0.94593  0.23666  0.87735  1.0000
  H   H557      1.0  0.92339  0.47948  0.67697  1.0000
  N   N49       1.0  0.58358  0.02548  0.74787  1.0000
  S   S194      1.0  0.97630  0.27746  0.81100  1.0000
  C   C572      1.0  0.50733  0.04484  0.70675  1.0000
  C   C573      1.0  0.69322  0.08427  0.66076  1.0000
  C   C574      1.0  0.96964  0.43428  0.76331  1.0000
  H   H558      1.0  0.97613  0.33319  0.95923  1.0000
  H   H559      1.0  0.98022  0.42114  0.80533  1.0000
  H   H560      1.0  0.49868  0.08551  0.66979  1.0000
  C   C575      1.0  0.93393  0.49810  0.68413  1.0000
  H   H561      1.0  0.51796  0.06578  0.71344  1.0000
  H   H562      1.0  0.93199  0.03849  0.65985  1.0000
  H   H563      1.0  0.96071  0.49797  0.74401  1.0000
  Fe  Fe99      1.0  0.85081  0.19709  0.65800  1.0000
  H   H564      1.0  0.52361  0.05533  0.69404  1.0000
  H   H565      1.0  0.58779  0.01465  0.72471  1.0000
  H   H566      1.0  0.96124  0.36045  0.97316  1.0000
  H   H567      1.0  0.51358  0.01668  0.71208  1.0000
  H   H568      1.0  0.75392  0.46929  0.73512  1.0000
  H   H569      1.0  0.78261  0.27840  0.65978  1.0000
  C   C576      1.0  0.57410  0.00434  0.73737  1.0000
  H   H570      1.0  0.98767  0.41329  0.76633  1.0000
  H   H571      1.0  0.97292  0.02896  0.73801  1.0000
  H   H572      1.0  0.51449  0.16518  0.78825  1.0000
  C   C577      1.0  0.98243  0.34308  0.96983  1.0000
  H   H573      1.0  0.98395  0.30015  0.86686  1.0000
  H   H574      1.0  0.77386  0.00231  0.67770  1.0000
  C   C578      1.0  0.80234  0.99989  0.67935  1.0000
  H   H575      1.0  0.74972  0.62187  0.27965  1.0000
  H   H576      1.0  0.51859  0.83308  0.28486  1.0000
  C   C579      1.0  0.64970  0.88355  0.22880  1.0000
  H   H577      1.0  0.59938  0.66691  0.19471  1.0000
  N   N50       1.0  0.60404  0.60759  0.19970  1.0000
  C   C580      1.0  0.59771  0.57355  0.21111  1.0000
  H   H578      1.0  0.54423  0.72675  0.17653  1.0000
  H   H579      1.0  0.61399  0.89282  0.18772  1.0000
  H   H580      1.0  0.56496  0.53645  0.16305  1.0000
  H   H581      1.0  0.92088  0.54299  0.10392  1.0000
  H   H582      1.0  0.88305  0.52580  0.05740  1.0000
  H   H583      1.0  0.59225  0.59941  0.30182  1.0000
  C   C581      1.0  0.67571  0.63962  0.30506  1.0000
  C   C582      1.0  0.63533  0.56882  0.26375  1.0000
  H   H584      1.0  0.72545  0.66588  0.26010  1.0000
  H   H585      1.0  0.57480  0.81791  0.25594  1.0000
  S   S195      1.0  0.52216  0.91626  0.26415  1.0000
  C   C583      1.0  0.89995  0.50312  0.05906  1.0000
  H   H586      1.0  0.60451  0.55841  0.13533  1.0000
  C   C584      1.0  0.60405  0.59070  0.29122  1.0000
  C   C585      1.0  0.60577  0.90856  0.19657  1.0000
  C   C586      1.0  0.52419  0.94860  0.16486  1.0000
  S   S196      1.0  0.52922  0.69397  0.30008  1.0000
  Fe  Fe100     1.0  0.58131  0.75579  0.23995  1.0000
  S   S197      1.0  0.63240  0.94553  0.26173  1.0000
  H   H587      1.0  0.64721  0.56007  0.25316  1.0000
  C   C587      1.0  0.60046  0.53897  0.20668  1.0000
  H   H588      1.0  0.97356  0.50799  0.10591  1.0000
  H   H589      1.0  0.79920  0.50441  0.24822  1.0000
  H   H590      1.0  0.88747  0.54105  0.08197  1.0000
  H   H591      1.0  0.53180  0.84089  0.22123  1.0000
  C   C588      1.0  0.62415  0.56121  0.29248  1.0000
  S   S198      1.0  0.52460  0.74666  0.25718  1.0000
  H   H592      1.0  0.53600  0.90197  0.22882  1.0000
  C   C589      1.0  0.59677  0.84426  0.25061  1.0000
  S   S199      1.0  0.72962  0.53481  0.28494  1.0000
  C   C590      1.0  0.93006  0.52803  0.09489  1.0000
  N   N51       1.0  0.66279  0.66410  0.29427  1.0000
  C   C591      1.0  0.85347  0.56768  0.30763  1.0000
  C   C592      1.0  0.87742  0.59686  0.31183  1.0000
  S   S200      1.0  0.60598  0.71888  0.25740  1.0000
  C   C593      1.0  0.65430  0.91254  0.23714  1.0000
  H   H593      1.0  0.61121  0.68221  0.29136  1.0000
  C   C594      1.0  0.56215  0.91376  0.21945  1.0000
  C   C595      1.0  0.61651  0.59941  0.26242  1.0000
  C   C596      1.0  0.63919  0.54975  0.27879  1.0000
  S   S201      1.0  0.61307  0.62450  0.24358  1.0000
  C   C597      1.0  0.61771  0.57460  0.17895  1.0000
  H   H594      1.0  0.67039  0.69313  0.26974  1.0000
  C   C598      1.0  0.60084  0.87360  0.25878  1.0000
  H   H595      1.0  0.66852  0.88757  0.21715  1.0000
  C   C599      1.0  0.91143  0.52704  0.08236  1.0000
  N   N52       1.0  0.57280  0.89351  0.20847  1.0000
  H   H596      1.0  0.67642  0.93900  0.23187  1.0000
  H   H597      1.0  0.64154  0.71105  0.30071  1.0000
  C   C600      1.0  0.61825  0.96575  0.20654  1.0000
  S   S202      1.0  0.50149  0.53636  0.20643  1.0000
  N   N53       1.0  0.83721  0.53016  0.26091  1.0000
  C   C601      1.0  0.71194  0.65865  0.27279  1.0000
  C   C602      1.0  0.83033  0.56893  0.25558  1.0000
  C   C603      1.0  0.62902  0.94481  0.19546  1.0000
  C   C604      1.0  0.57657  0.51591  0.15756  1.0000
  H   H598      1.0  0.65353  0.52598  0.27976  1.0000
  H   H599      1.0  0.56405  0.83747  0.20379  1.0000
  C   C605      1.0  0.62948  0.90778  0.25203  1.0000
  H   H600      1.0  0.57518  0.63823  0.21442  1.0000
  S   S203      1.0  0.56105  0.70889  0.22819  1.0000
  H   H601      1.0  0.83999  0.50696  0.30802  1.0000
  S   S204      1.0  0.81795  0.57932  0.29775  1.0000
  C   C606      1.0  0.59986  0.52857  0.14200  1.0000
  C   C607      1.0  0.70714  0.62411  0.29995  1.0000
  C   C608      1.0  0.54727  0.85686  0.20876  1.0000
  H   H602      1.0  0.71674  0.60398  0.30849  1.0000
  H   H603      1.0  0.50389  0.97941  0.32195  1.0000
  C   C609      1.0  0.60148  0.64343  0.20469  1.0000
  C   C610      1.0  0.68063  0.67388  0.27832  1.0000
  C   C611      1.0  0.62090  0.84942  0.23551  1.0000
  Fe  Fe101     1.0  0.68232  0.51270  0.30729  1.0000
  C   C612      1.0  0.61045  0.53958  0.19049  1.0000
  S   S205      1.0  0.61451  0.81424  0.22461  1.0000
  Fe  Fe102     1.0  0.54667  0.70443  0.27346  1.0000
  Fe  Fe103     1.0  0.57242  0.95238  0.26961  1.0000
  H   H604      1.0  0.59015  0.57299  0.22373  1.0000
  Fe  Fe104     1.0  0.58181  0.67119  0.24690  1.0000
  H   H605      1.0  0.62730  0.65361  0.20908  1.0000
  H   H606      1.0  0.61873  0.63539  0.17472  1.0000
  S   S206      1.0  0.63257  0.54107  0.31105  1.0000
  H   H607      1.0  0.58223  0.86969  0.27043  1.0000
  H   H608      1.0  0.50921  0.55847  0.28030  1.0000
  C   C613      1.0  0.51113  0.67627  0.17185  1.0000
  H   H609      1.0  0.56072  0.95273  0.18133  1.0000
  S   S207      1.0  0.53201  0.64343  0.18288  1.0000
  C   C614      1.0  0.61408  0.60849  0.18378  1.0000
  S   S208      1.0  0.54129  0.94955  0.29454  1.0000
  C   C615      1.0  0.72538  0.63383  0.28372  1.0000
  C   C616      1.0  0.60080  0.61020  0.27620  1.0000
  H   H610      1.0  0.58694  0.63415  0.27531  1.0000
  C   C617      1.0  0.58468  0.95012  0.21867  1.0000
  H   H611      1.0  0.87377  0.62635  0.30902  1.0000
  C   C618      1.0  0.63051  0.68109  0.29979  1.0000
  H   H612      1.0  0.61224  0.51287  0.18688  1.0000
  H   H613      1.0  0.57595  0.96618  0.22734  1.0000
  Fe  Fe105     1.0  0.76882  0.52853  0.30158  1.0000
  H   H614      1.0  0.62566  0.57545  0.16631  1.0000
  H   H615      1.0  0.87707  0.54845  0.27440  1.0000
  C   C619      1.0  0.85826  0.52961  0.31126  1.0000
  C   C620      1.0  0.95947  0.50829  0.09605  1.0000
  H   H616      1.0  0.66120  0.63110  0.31766  1.0000
  H   H617      1.0  0.59455  0.51182  0.21573  1.0000
  C   C621      1.0  0.86277  0.52461  0.27032  1.0000
  H   H618      1.0  0.83685  0.58730  0.26386  1.0000
  H   H619      1.0  0.65463  0.95716  0.18577  1.0000
  H   H620      1.0  0.52588  0.86276  0.20159  1.0000
  H   H621      1.0  0.50778  0.77173  0.16405  1.0000
  S   S209      1.0  0.52491  0.65347  0.26442  1.0000
  C   C622      1.0  0.52128  0.71590  0.17122  1.0000
  H   H622      1.0  0.79956  0.56700  0.25527  1.0000
  C   C623      1.0  0.90576  0.58791  0.31987  1.0000
  H   H623      1.0  0.91954  0.50574  0.04732  1.0000
  H   H624      1.0  0.51940  0.56061  0.30899  1.0000
  H   H625      1.0  0.52113  0.61025  0.29901  1.0000
  H   H626      1.0  0.84884  0.58341  0.24343  1.0000
  H   H627      1.0  0.61222  0.66355  0.31163  1.0000
  C   C624      1.0  0.51761  0.96533  0.15010  1.0000
  S   S210      1.0  0.64151  0.51761  0.11483  1.0000
  Fe  Fe106     1.0  0.50642  0.69640  0.24723  1.0000
  C   C625      1.0  0.61672  0.50257  0.13498  1.0000
  H   H628      1.0  0.50310  0.69122  0.20506  1.0000
  N   N54       1.0  0.92182  0.50685  0.07130  1.0000
  Fe  Fe107     1.0  0.50808  0.97326  0.25486  1.0000
  C   C626      1.0  0.54318  0.51239  0.11459  1.0000
  C   C627      1.0  0.55678  0.96503  0.16963  1.0000
  H   H629      1.0  0.51919  0.75692  0.20435  1.0000
  H   H630      1.0  0.50365  0.92354  0.17270  1.0000
  C   C628      1.0  0.81941  0.50010  0.25572  1.0000
  H   H631      1.0  0.51643  0.56081  0.11505  1.0000
  C   C629      1.0  0.88746  0.52093  0.31882  1.0000
  H   H632      1.0  0.56562  0.52744  0.10387  1.0000
  C   C630      1.0  0.51585  0.53115  0.12094  1.0000
  C   C631      1.0  0.50208  0.58278  0.30699  1.0000
  Fe  Fe108     1.0  0.49691  0.50058  0.18867  1.0000
  C   C632      1.0  0.50056  0.74124  0.16430  1.0000
  C   C633      1.0  0.58352  0.99793  0.15951  1.0000
  C   C634      1.0  0.54477  0.99763  0.13979  1.0000
  H   H633      1.0  0.63571  0.99421  0.20559  1.0000
  H   H634      1.0  0.86757  0.51451  0.60285  1.0000
  C   C635      1.0  0.91101  0.54999  0.32326  1.0000
  C   C636      1.0  0.82528  0.51547  0.35495  1.0000
  H   H635      1.0  0.81987  0.53806  0.34596  1.0000
  C   C637      1.0  0.85904  0.52186  0.36045  1.0000
  H   H636      1.0  0.84114  0.53169  0.61856  1.0000
  H   H637      1.0  0.87951  0.54970  0.35565  1.0000
  H   H638      1.0  0.91748  0.53068  0.37349  1.0000
  S   S211      1.0  0.94559  0.53871  0.33379  1.0000
  H   H639      1.0  0.82306  0.51738  0.58603  1.0000
  H   H640      1.0  0.92388  0.61045  0.32331  1.0000
  S   S212      1.0  0.72186  0.51121  0.32403  1.0000
  C   C638      1.0  0.84399  0.50580  0.61394  1.0000
  H   H641      1.0  0.93138  0.56012  0.84806  1.0000
  H   H642      1.0  0.90214  0.54591  0.71164  1.0000
  C   C639      1.0  0.94778  0.60271  0.66689  1.0000
  C   C640      1.0  0.92206  0.53594  0.70348  1.0000
  S   S213      1.0  0.99353  0.94375  0.72757  1.0000
  H   H643      1.0  0.92237  0.69965  0.74442  1.0000
  Fe  Fe109     1.0  0.90392  0.55198  0.80523  1.0000
  C   C641      1.0  0.52773  0.95616  0.75899  1.0000
  H   H644      1.0  0.97040  0.70286  0.69906  1.0000
  C   C642      1.0  0.94697  0.75423  0.74874  1.0000
  S   S214      1.0  0.91166  0.61295  0.80817  1.0000
  C   C643      1.0  0.53780  0.97771  0.76963  1.0000
  H   H645      1.0  0.92110  0.66137  0.77170  1.0000
  H   H646      1.0  0.95033  0.97301  0.76065  1.0000
  C   C644      1.0  0.95829  0.62884  0.81089  1.0000
  C   C645      1.0  0.93244  0.71413  0.75300  1.0000
  S   S215      1.0  0.94554  0.53675  0.78653  1.0000
  C   C646      1.0  0.90807  0.51152  0.69441  1.0000
  S   S216      1.0  0.99222  0.85626  0.72316  1.0000
  H   H647      1.0  0.95487  0.78676  0.79079  1.0000
  S   S217      1.0  0.90300  0.79737  0.71633  1.0000
  Fe  Fe110     1.0  0.93139  0.85281  0.72091  1.0000
  C   C647      1.0  0.98681  0.60839  0.80754  1.0000
  C   C648      1.0  0.96756  0.81136  0.69200  1.0000
  H   H648      1.0  0.94489  0.57304  0.66594  1.0000
  C   C649      1.0  0.96188  0.54796  0.70188  1.0000
  S   S218      1.0  0.91348  0.87398  0.74281  1.0000
  H   H649      1.0  0.94506  0.67768  0.81945  1.0000
  S   S219      1.0  0.99194  0.87230  0.76685  1.0000
  C   C650      1.0  0.97381  0.51060  0.68238  1.0000
  H   H650      1.0  0.89369  0.66128  0.68105  1.0000
  C   C651      1.0  0.93975  0.74419  0.70619  1.0000
  H   H651      1.0  0.52322  0.96819  0.78225  1.0000
  C   C652      1.0  0.93168  0.69271  0.76824  1.0000
  C   C653      1.0  0.91853  0.65217  0.67531  1.0000
  H   H652      1.0  0.84790  0.96217  0.70729  1.0000
  H   H653      1.0  0.95678  0.70885  0.66953  1.0000
  C   C654      1.0  0.93880  0.78337  0.70383  1.0000
  C   C655      1.0  0.84381  0.97749  0.69592  1.0000
  N   N55       1.0  0.96069  0.75106  0.77458  1.0000
  S   S220      1.0  0.94341  0.91105  0.70367  1.0000
  C   C656      1.0  0.95395  0.67881  0.66896  1.0000
  C   C657      1.0  0.96099  0.77235  0.75975  1.0000
  H   H654      1.0  0.97235  0.56616  0.70912  1.0000
  C   C658      1.0  0.97572  0.77080  0.78586  1.0000
  H   H655      1.0  0.88794  0.59265  0.67914  1.0000
  C   C659      1.0  0.91529  0.61384  0.67422  1.0000
  S   S221      1.0  0.90058  0.97852  0.73040  1.0000
  H   H656      1.0  0.94824  0.77105  0.73686  1.0000
  Fe  Fe111     1.0  0.97563  0.88335  0.74333  1.0000
  C   C660      1.0  0.80693  0.98000  0.69404  1.0000
  C   C661      1.0  0.94564  0.71185  0.77898  1.0000
  H   H657      1.0  0.78201  0.96662  0.70395  1.0000
  Fe  Fe112     1.0  0.93216  0.93293  0.72582  1.0000
  H   H658      1.0  0.50513  0.92966  0.76320  1.0000
  H   H659      1.0  0.91763  0.72251  0.71534  1.0000
  H   H660      1.0  0.53843  0.95281  0.73441  1.0000
  H   H661      1.0  0.96701  0.84174  0.69013  1.0000
  C   C662      1.0  0.96114  0.56971  0.84858  1.0000
  C   C663      1.0  0.98880  0.54956  0.84362  1.0000
  C   C664      1.0  0.54631  0.96928  0.74279  1.0000
  H   H662      1.0  0.99446  0.56604  0.74072  1.0000
  H   H663      1.0  0.94487  0.69496  0.79072  1.0000
  H   H664      1.0  0.98167  0.75009  0.79583  1.0000
  C   C665      1.0  0.96986  0.73308  0.69701  1.0000
  C   C666      1.0  0.96719  0.66227  0.81640  1.0000
  H   H665      1.0  0.95161  0.62012  0.85673  1.0000
  C   C667      1.0  0.97249  0.60341  0.85347  1.0000
  H   H666      1.0  0.98038  0.58234  0.80355  1.0000
  C   C668      1.0  0.97782  0.98008  0.76445  1.0000
  H   H667      1.0  0.97301  0.80337  0.75628  1.0000
  C   C669      1.0  0.87567  0.99526  0.68308  1.0000
  H   H668      1.0  0.97420  0.99733  0.77346  1.0000
  H   H669      1.0  0.98351  0.95176  0.77006  1.0000
  H   H670      1.0  0.98016  0.52410  0.83932  1.0000
  H   H671      1.0  0.90412  0.99271  0.68460  1.0000
  C   C670      1.0  0.98603  0.66643  0.66206  1.0000
  N   N56       1.0  0.98275  0.62867  0.66128  1.0000
  C   C671      1.0  0.98787  0.53643  0.69092  1.0000
  S   S222      1.0  0.85206  0.51052  0.80286  1.0000
  S   S223      1.0  0.91320  0.51044  0.82600  1.0000
  C   C672      1.0  0.98253  0.50398  0.75063  1.0000
  H   H672      1.0  0.99380  0.50125  0.67400  1.0000
  S   S224      1.0  0.85848  0.49974  0.69543  1.0000
