data_image0
_chemical_formula_structural       FeS2HSFeS2FeS2FeSFeS3C3HCHC4H2C8H4CH2C2NC3H5C2HC2HCHCFeH3C2NC2H2C2HCNH5CH5SC2SNC2HC2HC3H5CSHFeS2H4SFeS2HNCSHFeCHC8H4SCHCH2CHCSH2C4NC2HCH2SHCFe2CSH5CH4CFeSHFeS2FeSFeS3FeS2FeSFeSFeSC2HC6H4CHCHCH2C2HC2NCH3C3H4CH3C2HSCH2SHNC6SH2C2NCHC2H2CNH4CHSHCHNCHC2H3CHC3HCHS4FeS2FeSCFeSFeS3CHC5H3C7H4CHCHNC6H8NHC5HCH3C2H4CHSHSCHNCFeSFeHCHCH2C2HNHCH2CSC2FeH4C4HC5HFeCHSCS4HFeSHSFeS2H2CHC2FeSNHC6H4C2HC3H3FeH3CHCHCH2C2HCHCFeS2FeS2H4S2CHCFeHSC6H5FeCS2H2FeC3NH2C2HSHNCH2CHC2FeCH2CH2CH2CHCNC2HCSHCS2C2FeS2FeS2FeSFeS3CH2C4HFeC6HCHCH2CHC6H4CH2C2HCH3NH3CHCSCNHNC6H6C3H2C2HC2H2C2H2FeC3HCSH5C2SFeNHCH3C2H3CH2FeSHFeS2FeSFeS3FeS2FeSHFeHFeHS2CH4C2SCHSH3CHC6H4CH2C2NC3HCH2CH2CHC2H2C3H3CH3CHC2HFeS2FeS2C2SHS2CH2CHC6H4FeNHNHC2HCH2NFeCHC2H2CSH2CHCH2C2HCH5SH2CHC2HS2FeS2FeS2FeSFeS3FeS2C2FeCSCH2C6H4SH3C6H4NC3SH2CH3C3H5CHC2H3NC6HCHCH2CHCHC2H3FeC2HC2H2CHCHC3N2HC2SHCH2CFeCHNC2H5CHC3HC2
_chemical_formula_sum              "Fe64 S128 H384 C384 N32"
_cell_length_a       29.7533
_cell_length_b       59.1908
_cell_length_c       40.4537
_cell_angle_alpha    90.235
_cell_angle_beta     106.544
_cell_angle_gamma    90.3639

_space_group_name_H-M_alt    "P 1"
_space_group_IT_number       1

loop_
  _space_group_symop_operation_xyz
  'x, y, z'

loop_
  _atom_site_type_symbol
  _atom_site_label
  _atom_site_symmetry_multiplicity
  _atom_site_fract_x
  _atom_site_fract_y
  _atom_site_fract_z
  _atom_site_occupancy
  Fe  Fe1       1.0  0.48525  0.24080  0.16558  1.0000
  S   S1        1.0  0.41024  0.22737  0.15532  1.0000
  S   S2        1.0  0.48071  0.27109  0.13125  1.0000
  H   H1        1.0  0.09266  0.17727  0.04286  1.0000
  S   S3        1.0  0.10868  0.29313  0.34929  1.0000
  Fe  Fe2       1.0  0.14094  0.12042  0.09551  1.0000
  S   S4        1.0  0.09727  0.11398  0.13145  1.0000
  S   S5        1.0  0.11272  0.12082  0.03724  1.0000
  Fe  Fe3       1.0  0.23135  0.12795  0.15428  1.0000
  S   S6        1.0  0.19396  0.12189  0.19475  1.0000
  S   S7        1.0  0.31072  0.13321  0.16933  1.0000
  Fe  Fe4       1.0  0.15826  0.09271  0.16074  1.0000
  S   S8        1.0  0.14632  0.05873  0.18366  1.0000
  Fe  Fe5       1.0  0.13642  0.14346  0.16198  1.0000
  S   S9        1.0  0.10061  0.17471  0.17546  1.0000
  S   S10       1.0  0.19949  0.09729  0.12269  1.0000
  S   S11       1.0  0.17652  0.15132  0.12366  1.0000
  C   C1        1.0  0.18162  0.02863  0.14434  1.0000
  C   C2        1.0  0.15914  0.03149  0.17008  1.0000
  C   C3        1.0  0.22810  0.32771  0.43071  1.0000
  H   H2        1.0  0.18978  0.04323  0.13105  1.0000
  C   C4        1.0  0.14892  0.01226  0.18707  1.0000
  H   H3        1.0  0.37021  0.24980  0.20280  1.0000
  C   C5        1.0  0.07409  0.16149  0.23314  1.0000
  C   C6        1.0  0.08194  0.17930  0.21280  1.0000
  C   C7        1.0  0.07190  0.20147  0.22092  1.0000
  C   C8        1.0  0.40686  0.21501  0.06308  1.0000
  H   H4        1.0  0.08146  0.14434  0.22708  1.0000
  H   H5        1.0  0.07791  0.21537  0.20537  1.0000
  C   C9        1.0  0.47539  0.21467  0.02880  1.0000
  C   C10       1.0  0.05558  0.16585  0.26097  1.0000
  C   C11       1.0  0.38409  0.20084  0.15956  1.0000
  C   C12       1.0  0.41039  0.18156  0.17185  1.0000
  C   C13       1.0  0.38748  0.16097  0.17468  1.0000
  C   C14       1.0  0.33817  0.15944  0.16525  1.0000
  C   C15       1.0  0.31201  0.17875  0.15289  1.0000
  C   C16       1.0  0.33486  0.19929  0.15009  1.0000
  H   H6        1.0  0.44827  0.18247  0.17933  1.0000
  H   H7        1.0  0.40808  0.14616  0.18432  1.0000
  H   H8        1.0  0.27414  0.17788  0.14561  1.0000
  H   H9        1.0  0.31411  0.21407  0.14055  1.0000
  C   C17       1.0  0.36161  0.26497  0.21483  1.0000
  H   H10       1.0  0.22717  0.08319  0.24218  1.0000
  H   H11       1.0  0.21093  0.31151  0.43115  1.0000
  C   C18       1.0  0.27713  0.32870  0.43948  1.0000
  C   C19       1.0  0.18253  0.31965  0.34542  1.0000
  N   N1        1.0  0.26814  0.06071  0.22162  1.0000
  C   C20       1.0  0.27139  0.03838  0.21376  1.0000
  C   C21       1.0  0.28668  0.07705  0.20541  1.0000
  C   C22       1.0  0.04541  0.18804  0.26900  1.0000
  H   H12       1.0  0.21384  0.00495  0.11744  1.0000
  H   H13       1.0  0.33433  0.31868  0.25978  1.0000
  H   H14       1.0  0.29769  0.31350  0.44667  1.0000
  H   H15       1.0  0.25637  0.02539  0.22635  1.0000
  H   H16       1.0  0.28493  0.09477  0.21196  1.0000
  C   C23       1.0  0.34206  0.26284  0.24232  1.0000
  C   C24       1.0  0.47707  0.32946  0.22726  1.0000
  H   H17       1.0  0.20359  0.30511  0.35587  1.0000
  C   C25       1.0  0.33184  0.28225  0.25844  1.0000
  C   C26       1.0  0.29253  0.03195  0.18843  1.0000
  H   H18       1.0  0.46292  0.20992  0.10950  1.0000
  C   C27       1.0  0.13341  0.31806  0.33733  1.0000
  H   H19       1.0  0.43054  0.28358  0.18607  1.0000
  C   C28       1.0  0.05886  0.17703  0.04812  1.0000
  Fe  Fe6       1.0  0.03621  0.27615  0.33711  1.0000
  H   H20       1.0  0.04651  0.25879  0.45358  1.0000
  H   H21       1.0  0.04889  0.15195  0.27624  1.0000
  H   H22       1.0  0.35885  0.22009  0.01289  1.0000
  C   C29       1.0  0.24671  0.06712  0.24872  1.0000
  C   C30       1.0  0.45699  0.31726  0.27860  1.0000
  N   N2        1.0  0.37019  0.28587  0.20348  1.0000
  C   C31       1.0  0.31046  0.04853  0.17117  1.0000
  C   C32       1.0  0.47641  0.31273  0.25141  1.0000
  H   H23       1.0  0.31739  0.28091  0.28017  1.0000
  H   H24       1.0  0.47727  0.27411  0.04989  1.0000
  C   C33       1.0  0.45363  0.21207  0.08175  1.0000
  C   C34       1.0  0.05191  0.12169  0.01740  1.0000
  H   H25       1.0  0.32157  0.08435  0.16658  1.0000
  C   C35       1.0  0.49054  0.27023  0.02826  1.0000
  N   N3        1.0  0.42938  0.21753  0.01061  1.0000
  H   H26       1.0  0.45621  0.30412  0.29697  1.0000
  H   H27       1.0  0.13148  0.01426  0.20700  1.0000
  H   H28       1.0  0.22039  0.05429  0.25124  1.0000
  H   H29       1.0  0.50268  0.21489  0.01584  1.0000
  H   H30       1.0  0.32619  0.04382  0.15104  1.0000
  C   C36       1.0  0.39527  0.21775  0.02727  1.0000
  H   H31       1.0  0.49054  0.29624  0.24916  1.0000
  H   H32       1.0  0.08979  0.17516  0.10321  1.0000
  H   H33       1.0  0.27410  0.06907  0.27375  1.0000
  H   H34       1.0  0.29377  0.01422  0.18165  1.0000
  H   H35       1.0  0.33538  0.24622  0.25125  1.0000
  S   S12       1.0  0.50025  0.32423  0.19218  1.0000
  C   C37       1.0  0.48822  0.21207  0.06462  1.0000
  C   C38       1.0  0.05423  0.20587  0.24909  1.0000
  S   S13       1.0  0.04240  0.24400  0.36805  1.0000
  N   N4        1.0  0.01816  0.17769  0.02172  1.0000
  C   C39       1.0  0.03114  0.25442  0.47397  1.0000
  C   C40       1.0  0.39277  0.28758  0.17577  1.0000
  H   H36       1.0  0.03183  0.12027  0.06441  1.0000
  C   C41       1.0  0.19523  0.00688  0.13668  1.0000
  C   C42       1.0  0.36020  0.30498  0.21911  1.0000
  H   H37       1.0  0.13708  0.32845  0.40609  1.0000
  C   C43       1.0  0.05757  0.17555  0.08231  1.0000
  C   C44       1.0  0.30776  0.07123  0.17978  1.0000
  C   C45       1.0  0.34092  0.30347  0.24680  1.0000
  H   H38       1.0  0.37660  0.27548  0.15454  1.0000
  H   H39       1.0  0.36841  0.32156  0.21094  1.0000
  H   H40       1.0  0.04664  0.22300  0.25499  1.0000
  H   H41       1.0  0.37996  0.21523  0.07648  1.0000
  H   H42       1.0  0.39010  0.30484  0.16467  1.0000
  C   C46       1.0  0.01967  0.12149  0.03667  1.0000
  S   S14       1.0  0.01793  0.19255  0.30201  1.0000
  H   H43       1.0  0.12692  0.16607  0.72896  1.0000
  Fe  Fe7       1.0  0.41853  0.24876  0.80051  1.0000
  S   S15       1.0  0.41781  0.28181  0.82722  1.0000
  S   S16       1.0  0.35191  0.23691  0.76005  1.0000
  H   H44       1.0  0.14547  0.19244  0.71515  1.0000
  H   H45       1.0  0.05902  0.22641  0.81845  1.0000
  H   H46       1.0  0.09464  0.26089  0.51486  1.0000
  H   H47       1.0  0.34985  0.25662  0.69069  1.0000
  S   S17       1.0  0.45808  0.23006  0.84871  1.0000
  Fe  Fe8       1.0  0.07981  0.26561  0.70086  1.0000
  S   S18       1.0  0.07897  0.23354  0.67136  1.0000
  S   S19       1.0  0.14590  0.27532  0.74374  1.0000
  H   H48       1.0  0.03249  0.18700  0.80135  1.0000
  N   N5        1.0  0.35846  0.28821  0.71764  1.0000
  C   C47       1.0  0.47834  0.26772  0.96594  1.0000
  S   S20       1.0  0.04740  0.28663  0.65373  1.0000
  H   H49       1.0  0.28639  0.27925  0.69605  1.0000
  Fe  Fe9       1.0  0.46038  0.26391  0.87471  1.0000
  C   C48       1.0  0.05827  0.25567  0.50869  1.0000
  H   H50       1.0  0.04326  0.06626  0.94109  1.0000
  C   C49       1.0  0.03832  0.25078  0.53547  1.0000
  C   C50       1.0  0.05713  0.19537  0.79006  1.0000
  C   C51       1.0  0.29458  0.24704  0.75688  1.0000
  C   C52       1.0  0.28579  0.26204  0.78113  1.0000
  C   C53       1.0  0.24017  0.27045  0.77679  1.0000
  C   C54       1.0  0.20277  0.26412  0.74811  1.0000
  C   C55       1.0  0.21156  0.24911  0.72387  1.0000
  C   C56       1.0  0.25707  0.24054  0.72838  1.0000
  H   H51       1.0  0.31412  0.26719  0.80326  1.0000
  H   H52       1.0  0.23388  0.28199  0.79578  1.0000
  H   H53       1.0  0.18342  0.24420  0.70148  1.0000
  H   H54       1.0  0.26338  0.22901  0.70938  1.0000
  S   S21       1.0  0.07244  0.25493  0.57863  1.0000
  C   C57       1.0  0.37449  0.31915  0.75804  1.0000
  H   H55       1.0  0.08551  0.18315  0.69782  1.0000
  C   C58       1.0  0.32667  0.32110  0.75463  1.0000
  H   H56       1.0  0.03348  0.30643  0.57817  1.0000
  H   H57       1.0  0.38158  0.27832  0.67476  1.0000
  C   C59       1.0  0.29479  0.30682  0.73191  1.0000
  H   H58       1.0  0.05913  0.16765  0.75613  1.0000
  C   C60       1.0  0.31138  0.29051  0.71325  1.0000
  S   S22       1.0  0.48446  0.25700  0.78531  1.0000
  H   H59       1.0  0.44700  0.22145  0.96297  1.0000
  H   H60       1.0  0.40839  0.26333  0.71447  1.0000
  C   C61       1.0  0.37538  0.27087  0.69822  1.0000
  C   C62       1.0  0.46179  0.27300  0.99430  1.0000
  C   C63       1.0  0.11584  0.18365  0.72148  1.0000
  C   C64       1.0  0.03558  0.12322  0.98138  1.0000
  N   N6        1.0  0.10217  0.19515  0.74927  1.0000
  C   C65       1.0  0.07256  0.18443  0.76460  1.0000
  C   C66       1.0  0.11702  0.21679  0.75859  1.0000
  H   H61       1.0  0.06037  0.12330  0.96630  1.0000
  C   C67       1.0  0.10204  0.22830  0.78375  1.0000
  H   H62       1.0  0.42718  0.30101  0.74223  1.0000
  H   H63       1.0  0.42634  0.27905  0.98996  1.0000
  S   S23       1.0  0.43932  0.26936  0.92394  1.0000
  H   H64       1.0  0.25751  0.30795  0.72931  1.0000
  C   C68       1.0  0.38987  0.30254  0.73916  1.0000
  Fe  Fe10      1.0  0.04310  0.25389  0.62461  1.0000
  Fe  Fe11      1.0  0.48591  0.28889  0.81542  1.0000
  C   C69       1.0  0.07175  0.21751  0.79946  1.0000
  S   S24       1.0  0.50137  0.32370  0.79748  1.0000
  H   H65       1.0  0.11332  0.24563  0.79046  1.0000
  H   H66       1.0  0.13999  0.22546  0.74621  1.0000
  H   H67       1.0  0.39487  0.20512  0.96036  1.0000
  H   H68       1.0  0.39519  0.23560  0.96514  1.0000
  H   H69       1.0  0.03470  0.30747  0.51706  1.0000
  C   C70       1.0  0.41594  0.21995  0.97299  1.0000
  H   H70       1.0  0.39972  0.33016  0.77563  1.0000
  H   H71       1.0  0.05057  0.17089  0.98211  1.0000
  H   H72       1.0  0.02389  0.19843  0.98053  1.0000
  H   H73       1.0  0.04463  0.06928  0.00274  1.0000
  C   C71       1.0  0.02029  0.18028  0.98617  1.0000
  Fe  Fe12      1.0  0.37897  0.37395  0.33155  1.0000
  S   S25       1.0  0.33761  0.36526  0.36868  1.0000
  H   H74       1.0  0.49181  0.57582  0.49536  1.0000
  Fe  Fe13      1.0  0.35971  0.42468  0.33597  1.0000
  S   S26       1.0  0.31713  0.41939  0.37294  1.0000
  S   S27       1.0  0.37472  0.45924  0.31620  1.0000
  Fe  Fe14      1.0  0.37373  0.39513  0.39937  1.0000
  S   S28       1.0  0.39553  0.39441  0.45776  1.0000
  Fe  Fe15      1.0  0.28448  0.38981  0.33932  1.0000
  S   S29       1.0  0.20511  0.38564  0.32591  1.0000
  S   S30       1.0  0.41916  0.40229  0.36482  1.0000
  S   S31       1.0  0.32294  0.39673  0.29974  1.0000
  Fe  Fe16      1.0  0.40213  0.62496  0.37415  1.0000
  S   S32       1.0  0.38959  0.60311  0.32654  1.0000
  S   S33       1.0  0.47607  0.62786  0.40978  1.0000
  Fe  Fe17      1.0  0.29961  0.64081  0.35560  1.0000
  S   S34       1.0  0.27935  0.61946  0.30766  1.0000
  Fe  Fe18      1.0  0.32409  0.59204  0.33959  1.0000
  S   S35       1.0  0.29967  0.55577  0.34546  1.0000
  Fe  Fe19      1.0  0.34677  0.63240  0.29903  1.0000
  S   S36       1.0  0.33903  0.61266  0.38861  1.0000
  C   C72       1.0  0.17812  0.35911  0.32845  1.0000
  C   C73       1.0  0.46850  0.56957  0.40948  1.0000
  H   H75       1.0  0.17928  0.47953  0.32391  1.0000
  C   C74       1.0  0.35857  0.48610  0.32879  1.0000
  C   C75       1.0  0.37498  0.50574  0.31631  1.0000
  C   C76       1.0  0.35872  0.52731  0.32222  1.0000
  C   C77       1.0  0.32554  0.52944  0.34054  1.0000
  C   C78       1.0  0.31021  0.50987  0.35389  1.0000
  C   C79       1.0  0.32683  0.48833  0.34828  1.0000
  H   H76       1.0  0.39947  0.50422  0.30113  1.0000
  H   H77       1.0  0.37063  0.54217  0.31156  1.0000
  H   H78       1.0  0.28466  0.51134  0.36819  1.0000
  H   H79       1.0  0.31384  0.47341  0.35802  1.0000
  C   C80       1.0  0.44966  0.62596  0.46998  1.0000
  H   H80       1.0  0.41383  0.62495  0.45387  1.0000
  C   C81       1.0  0.45498  0.38966  0.47998  1.0000
  H   H81       1.0  0.18416  0.65375  0.31012  1.0000
  C   C82       1.0  0.43862  0.35530  0.25792  1.0000
  H   H82       1.0  0.42380  0.37169  0.26014  1.0000
  H   H83       1.0  0.28156  0.50837  0.26522  1.0000
  C   C83       1.0  0.45845  0.35082  0.23080  1.0000
  C   C84       1.0  0.27484  0.49122  0.25341  1.0000
  H   H84       1.0  0.47733  0.38442  0.43440  1.0000
  C   C85       1.0  0.22385  0.48590  0.29104  1.0000
  C   C86       1.0  0.39803  0.56417  0.42679  1.0000
  N   N7        1.0  0.25128  0.47660  0.27260  1.0000
  C   C87       1.0  0.49439  0.44243  0.46285  1.0000
  H   H85       1.0  0.44341  0.64755  0.27926  1.0000
  H   H86       1.0  0.13381  0.35705  0.39200  1.0000
  H   H87       1.0  0.25299  0.49275  0.22628  1.0000
  C   C88       1.0  0.25511  0.45364  0.27060  1.0000
  C   C89       1.0  0.23122  0.43935  0.28743  1.0000
  C   C90       1.0  0.20391  0.44864  0.30681  1.0000
  H   H88       1.0  0.27728  0.44626  0.25632  1.0000
  H   H89       1.0  0.23392  0.42115  0.28564  1.0000
  H   H90       1.0  0.18584  0.43759  0.32030  1.0000
  H   H91       1.0  0.45895  0.36391  0.21231  1.0000
  C   C91       1.0  0.20019  0.47208  0.30874  1.0000
  H   H92       1.0  0.51352  0.43112  0.44957  1.0000
  H   H93       1.0  0.22104  0.50413  0.29282  1.0000
  H   H94       1.0  0.30965  0.48422  0.25383  1.0000
  C   C92       1.0  0.48626  0.62854  0.45494  1.0000
  C   C93       1.0  0.42392  0.56803  0.46099  1.0000
  H   H95       1.0  0.48530  0.57086  0.38902  1.0000
  S   S37       1.0  0.36479  0.65484  0.34559  1.0000
  C   C94       1.0  0.12889  0.35741  0.31942  1.0000
  H   H96       1.0  0.10790  0.37209  0.30961  1.0000
  H   H97       1.0  0.28974  0.38491  0.42771  1.0000
  S   S38       1.0  0.41002  0.34225  0.31485  1.0000
  H   H98       1.0  0.24261  0.34095  0.34778  1.0000
  N   N8        1.0  0.49371  0.57320  0.44308  1.0000
  C   C95       1.0  0.27258  0.36879  0.42877  1.0000
  C   C96       1.0  0.43628  0.65989  0.25879  1.0000
  C   C97       1.0  0.10654  0.33696  0.32373  1.0000
  C   C98       1.0  0.43764  0.33846  0.28186  1.0000
  C   C99       1.0  0.42045  0.56489  0.40089  1.0000
  C   C100      1.0  0.48823  0.38579  0.46221  1.0000
  S   S39       1.0  0.34215  0.64939  0.24778  1.0000
  H   H99       1.0  0.33746  0.35056  0.44556  1.0000
  H   H100      1.0  0.40050  0.56231  0.37421  1.0000
  C   C101      1.0  0.20478  0.33999  0.34091  1.0000
  C   C102      1.0  0.29942  0.34944  0.43877  1.0000
  N   N9        1.0  0.20207  0.34682  0.42106  1.0000
  C   C103      1.0  0.22365  0.36716  0.41981  1.0000
  H   H101      1.0  0.20303  0.38222  0.41142  1.0000
  C   C104      1.0  0.15092  0.34580  0.41381  1.0000
  C   C105      1.0  0.45956  0.62418  0.50601  1.0000
  H   H102      1.0  0.14062  0.35096  0.43700  1.0000
  H   H103      1.0  0.06873  0.33601  0.31758  1.0000
  C   C106      1.0  0.47214  0.57236  0.46878  1.0000
  N   N10       1.0  0.51704  0.44306  0.50015  1.0000
  H   H104      1.0  0.40664  0.56815  0.48125  1.0000
  H   H105      1.0  0.36045  0.56107  0.42012  1.0000
  H   H106      1.0  0.49324  0.45967  0.45197  1.0000
  H   H107      1.0  0.45800  0.43560  0.45692  1.0000
  C   C107      1.0  0.39001  0.66418  0.23984  1.0000
  H   H108      1.0  0.47689  0.65688  0.60533  1.0000
  S   S40       1.0  0.51724  0.62120  0.57202  1.0000
  H   H109      1.0  0.50290  0.65044  0.75332  1.0000
  C   C108      1.0  0.49574  0.63956  0.65402  1.0000
  H   H110      1.0  0.43112  0.62192  0.51746  1.0000
  N   N11       1.0  0.47249  0.65743  0.70000  1.0000
  C   C109      1.0  0.47540  0.65703  0.63187  1.0000
  H   H111      1.0  0.51052  0.62653  0.70540  1.0000
  C   C110      1.0  0.49383  0.63998  0.68819  1.0000
  C   C111      1.0  0.50603  0.62495  0.52718  1.0000
  H   H112      1.0  0.44407  0.39396  0.53006  1.0000
  H   H113      1.0  0.51315  0.62587  0.64473  1.0000
  H   H114      1.0  0.49093  0.45067  0.57565  1.0000
  C   C112      1.0  0.46963  0.39109  0.51612  1.0000
  H   H115      1.0  0.43973  0.64702  0.73765  1.0000
  C   C113      1.0  0.51192  0.44818  0.55798  1.0000
  C   C114      1.0  0.49064  0.44671  0.52237  1.0000
  C   C115      1.0  0.47014  0.65734  0.73572  1.0000
  H   H116      1.0  0.45281  0.44801  0.51265  1.0000
  C   C116      1.0  0.51739  0.38931  0.53435  1.0000
  H   H117      1.0  0.31439  0.33355  0.76972  1.0000
  S   S41       1.0  0.45189  0.80808  0.20003  1.0000
  S   S42       1.0  0.45500  0.75039  0.14901  1.0000
  S   S43       1.0  0.05782  0.76622  0.34857  1.0000
  S   S44       1.0  0.05333  0.70649  0.29880  1.0000
  Fe  Fe20      1.0  0.21275  0.87655  0.13699  1.0000
  S   S45       1.0  0.23306  0.89765  0.18519  1.0000
  S   S46       1.0  0.25924  0.85325  0.11602  1.0000
  Fe  Fe21      1.0  0.10935  0.89093  0.12015  1.0000
  S   S47       1.0  0.12205  0.91251  0.16800  1.0000
  C   C117      1.0  0.47126  0.68766  0.12230  1.0000
  Fe  Fe22      1.0  0.18630  0.92478  0.15415  1.0000
  S   S48       1.0  0.20815  0.96113  0.14578  1.0000
  Fe  Fe23      1.0  0.16687  0.88354  0.19460  1.0000
  S   S49       1.0  0.17208  0.86599  0.24564  1.0000
  S   S50       1.0  0.17091  0.90442  0.10488  1.0000
  S   S51       1.0  0.14912  0.86128  0.14773  1.0000
  C   C118      1.0  0.18586  0.98770  0.15416  1.0000
  H   H118      1.0  0.15464  0.97591  0.19284  1.0000
  C   C119      1.0  0.03854  0.81822  0.42770  1.0000
  C   C120      1.0  0.09547  0.82373  0.28812  1.0000
  C   C121      1.0  0.13280  0.83494  0.27986  1.0000
  C   C122      1.0  0.12412  0.85157  0.25408  1.0000
  C   C123      1.0  0.07775  0.85676  0.23643  1.0000
  H   H119      1.0  0.10261  0.81106  0.30810  1.0000
  H   H120      1.0  0.16857  0.83085  0.29368  1.0000
  H   H121      1.0  0.07059  0.86954  0.21659  1.0000
  C   C124      1.0  0.10940  0.69538  0.32030  1.0000
  C   C125      1.0  0.39922  0.82112  0.17597  1.0000
  C   C126      1.0  0.37786  0.83723  0.19216  1.0000
  C   C127      1.0  0.33560  0.84769  0.17400  1.0000
  C   C128      1.0  0.31429  0.84211  0.13940  1.0000
  C   C129      1.0  0.33597  0.82620  0.12315  1.0000
  C   C130      1.0  0.37812  0.81571  0.14131  1.0000
  H   H122      1.0  0.39398  0.84159  0.21894  1.0000
  H   H123      1.0  0.31929  0.85989  0.18683  1.0000
  H   H124      1.0  0.31988  0.82184  0.09635  1.0000
  H   H125      1.0  0.39424  0.80344  0.12845  1.0000
  C   C131      1.0  0.46508  0.68670  0.22343  1.0000
  H   H126      1.0  0.12361  0.71819  0.36365  1.0000
  C   C132      1.0  0.41869  0.69176  0.20545  1.0000
  H   H127      1.0  0.41160  0.70397  0.18484  1.0000
  N   N12       1.0  0.22049  0.80510  0.15976  1.0000
  C   C133      1.0  0.18097  0.80883  0.16979  1.0000
  C   C134      1.0  0.26387  0.80695  0.18311  1.0000
  C   C135      1.0  0.18432  0.81552  0.20361  1.0000
  C   C136      1.0  0.26856  0.81392  0.21702  1.0000
  C   C137      1.0  0.22844  0.81840  0.22718  1.0000
  C   C138      1.0  0.21574  0.79937  0.12363  1.0000
  H   H128      1.0  0.14656  0.80752  0.15126  1.0000
  H   H129      1.0  0.29527  0.80369  0.17537  1.0000
  H   H130      1.0  0.15296  0.81936  0.21113  1.0000
  H   H131      1.0  0.30311  0.81637  0.23497  1.0000
  H   H132      1.0  0.23136  0.82456  0.25305  1.0000
  H   H133      1.0  0.19526  0.81269  0.10657  1.0000
  H   H134      1.0  0.25032  0.79875  0.11822  1.0000
  H   H135      1.0  0.19781  0.78279  0.11687  1.0000
  N   N13       1.0  0.30295  0.70111  0.30533  1.0000
  H   H136      1.0  0.32458  0.69529  0.26012  1.0000
  C   C139      1.0  0.33481  0.70102  0.28672  1.0000
  C   C140      1.0  0.13671  0.70427  0.35174  1.0000
  C   C141      1.0  0.38142  0.70753  0.30201  1.0000
  C   C142      1.0  0.39528  0.71421  0.33658  1.0000
  C   C143      1.0  0.36246  0.71441  0.35533  1.0000
  H   H137      1.0  0.29120  0.70717  0.35424  1.0000
  C   C144      1.0  0.31617  0.70771  0.33921  1.0000
  H   H138      1.0  0.37300  0.71904  0.38244  1.0000
  H   H139      1.0  0.43157  0.71878  0.34898  1.0000
  H   H140      1.0  0.40680  0.70676  0.28733  1.0000
  C   C145      1.0  0.08467  0.95660  0.03197  1.0000
  C   C146      1.0  0.18105  0.69505  0.36802  1.0000
  H   H141      1.0  0.10193  0.96118  0.01267  1.0000
  H   H142      1.0  0.06642  0.83930  0.34561  1.0000
  H   H143      1.0  0.25425  0.67410  0.29649  1.0000
  H   H144      1.0  0.20173  0.70204  0.39242  1.0000
  C   C147      1.0  0.47268  0.69988  0.06677  1.0000
  H   H145      1.0  0.12476  0.81653  0.38789  1.0000
  S   S52       1.0  0.04595  0.76208  0.44079  1.0000
  H   H146      1.0  0.39287  0.70960  0.10954  1.0000
  S   S53       1.0  0.46588  0.75556  0.05725  1.0000
  C   C148      1.0  0.16187  0.99046  0.17902  1.0000
  H   H147      1.0  0.34565  0.68368  0.19849  1.0000
  N   N14       1.0  0.03846  0.95017  0.02235  1.0000
  C   C149      1.0  0.04050  0.84608  0.24546  1.0000
  Fe  Fe24      1.0  0.48989  0.78119  0.17787  1.0000
  S   S54       1.0  0.03492  0.88711  0.08567  1.0000
  Fe  Fe25      1.0  0.50269  0.75618  0.11507  1.0000
  H   H148      1.0  0.45342  0.68606  0.14214  1.0000
  C   C150      1.0  0.19867  0.67686  0.35315  1.0000
  H   H149      1.0  0.09478  0.89382  0.04071  1.0000
  C   C151      1.0  0.40241  0.70690  0.08518  1.0000
  H   H150      1.0  0.14725  0.96202  0.07452  1.0000
  H   H151      1.0  0.10644  0.80261  0.44068  1.0000
  C   C152      1.0  0.17133  0.66790  0.32172  1.0000
  C   C153      1.0  0.12701  0.67717  0.30537  1.0000
  H   H152      1.0  0.50936  0.66675  0.26419  1.0000
  N   N15       1.0  0.45012  0.69815  0.09179  1.0000
  H   H153      1.0  0.24481  0.69376  0.26129  1.0000
  C   C154      1.0  0.08162  0.81312  0.42231  1.0000
  H   H154      1.0  0.22943  0.70152  0.29963  1.0000
  H   H155      1.0  0.39950  0.72360  0.07218  1.0000
  C   C155      1.0  0.38138  0.68027  0.21328  1.0000
  S   S55       1.0  0.51331  0.69814  0.21138  1.0000
  C   C156      1.0  0.02294  0.88912  0.04051  1.0000
  C   C157      1.0  0.08864  0.95111  0.09177  1.0000
  Fe  Fe26      1.0  0.51503  0.73121  0.18333  1.0000
  H   H156      1.0  0.02999  0.81171  0.45027  1.0000
  H   H157      1.0  0.45579  0.70804  0.04245  1.0000
  H   H158      1.0  0.50258  0.84591  0.18420  1.0000
  H   H159      1.0  0.10833  0.95136  0.11883  1.0000
  C   C158      1.0  0.05870  0.89302  0.02506  1.0000
  C   C159      1.0  0.25548  0.69226  0.28982  1.0000
  C   C160      1.0  0.02182  0.76444  0.47610  1.0000
  C   C161      1.0  0.05852  0.83361  0.36880  1.0000
  H   H160      1.0  0.10610  0.67009  0.28113  1.0000
  C   C162      1.0  0.09178  0.82083  0.39269  1.0000
  C   C163      1.0  0.11044  0.95717  0.06680  1.0000
  C   C164      1.0  0.47360  0.67082  0.25021  1.0000
  C   C165      1.0  0.04909  0.82959  0.27139  1.0000
  C   C166      1.0  0.48989  0.75290  0.02190  1.0000
  H   H161      1.0  0.37694  0.69492  0.06847  1.0000
  Fe  Fe27      1.0  0.02034  0.73570  0.32036  1.0000
  C   C167      1.0  0.04173  0.94434  0.08175  1.0000
  H   H162      1.0  0.02510  0.93864  0.10092  1.0000
  S   S56       1.0  0.25540  0.66644  0.37453  1.0000
  C   C168      1.0  0.51677  0.67927  0.12883  1.0000
  S   S57       1.0  0.03949  0.74211  0.71923  1.0000
  S   S58       1.0  0.47244  0.77452  0.77840  1.0000
  S   S59       1.0  0.03337  0.73060  0.63978  1.0000
  S   S60       1.0  0.47757  0.78535  0.85804  1.0000
  H   H163      1.0  0.45459  0.75692  0.93370  1.0000
  Fe  Fe28      1.0  0.42688  0.76755  0.81293  1.0000
  S   S61       1.0  0.35006  0.77884  0.79877  1.0000
  H   H164      1.0  0.07553  0.89950  0.97751  1.0000
  S   S62       1.0  0.45735  0.73306  0.82878  1.0000
  Fe  Fe29      1.0  0.08502  0.74825  0.68445  1.0000
  S   S63       1.0  0.05607  0.78295  0.66862  1.0000
  S   S64       1.0  0.16096  0.73581  0.70186  1.0000
  H   H165      1.0  0.05680  0.75959  0.56419  1.0000
  H   H166      1.0  0.21715  0.71972  0.79980  1.0000
  C   C169      1.0  0.21247  0.73735  0.80532  1.0000
  H   H167      1.0  0.03226  0.94354  0.96941  1.0000
  C   C170      1.0  0.16954  0.74787  0.79041  1.0000
  C   C171      1.0  0.46077  0.75680  0.98837  1.0000
  Fe  Fe30      1.0  0.51124  0.75159  0.87153  1.0000
  S   S65       1.0  0.51480  0.72062  0.75043  1.0000
  N   N16       1.0  0.16419  0.77044  0.79550  1.0000
  H   H168      1.0  0.11510  0.78186  0.74977  1.0000
  C   C172      1.0  0.30044  0.76761  0.76697  1.0000
  C   C173      1.0  0.29810  0.74501  0.75628  1.0000
  C   C174      1.0  0.25556  0.73585  0.73523  1.0000
  C   C175      1.0  0.21489  0.74911  0.72454  1.0000
  C   C176      1.0  0.21778  0.77196  0.73397  1.0000
  C   C177      1.0  0.26027  0.78110  0.75513  1.0000
  H   H169      1.0  0.32856  0.73439  0.76522  1.0000
  H   H170      1.0  0.25383  0.71820  0.72792  1.0000
  H   H171      1.0  0.18710  0.78248  0.72553  1.0000
  H   H172      1.0  0.26175  0.79862  0.76307  1.0000
  C   C178      1.0  0.20089  0.78309  0.81514  1.0000
  C   C179      1.0  0.04771  0.89619  0.98924  1.0000
  H   H173      1.0  0.19727  0.80113  0.81816  1.0000
  C   C180      1.0  0.25008  0.75011  0.82537  1.0000
  C   C181      1.0  0.11955  0.78117  0.77799  1.0000
  C   C182      1.0  0.24432  0.77310  0.83045  1.0000
  H   H174      1.0  0.28433  0.74249  0.83554  1.0000
  H   H175      1.0  0.11714  0.79867  0.78733  1.0000
  H   H176      1.0  0.27413  0.78331  0.84456  1.0000
  Fe  Fe31      1.0  0.50593  0.74097  0.79622  1.0000
  H   H177      1.0  0.08974  0.77142  0.78238  1.0000
  H   H178      1.0  0.14119  0.73810  0.77341  1.0000
  H   H179      1.0  0.08648  0.75477  0.51309  1.0000
  C   C183      1.0  0.47749  0.75391  0.95932  1.0000
  H   H180      1.0  0.42496  0.76208  0.98479  1.0000
  C   C184      1.0  0.03399  0.76285  0.53863  1.0000
  H   H181      1.0  0.46652  0.67478  0.74504  1.0000
  C   C185      1.0  0.45200  0.67454  0.67835  1.0000
  H   H182      1.0  0.43548  0.68850  0.68782  1.0000
  H   H183      1.0  0.43762  0.68839  0.62706  1.0000
  C   C186      1.0  0.45334  0.67465  0.64403  1.0000
  C   C187      1.0  0.05074  0.76014  0.50957  1.0000
  H   H184      1.0  0.01352  0.17296  0.11603  1.0000
  C   C188      1.0  0.88028  0.28422  0.47750  1.0000
  H   H185      1.0  0.89526  0.24787  0.21167  1.0000
  C   C189      1.0  0.98392  0.24805  0.46581  1.0000
  Fe  Fe32      1.0  0.59071  0.25072  0.20131  1.0000
  S   S66       1.0  0.65615  0.24095  0.24410  1.0000
  S   S67       1.0  0.59105  0.28164  0.16973  1.0000
  Fe  Fe33      1.0  0.93144  0.26643  0.30066  1.0000
  S   S68       1.0  0.93250  0.23394  0.32878  1.0000
  S   S69       1.0  0.86458  0.27694  0.25949  1.0000
  H   H186      1.0  0.94676  0.12355  0.03517  1.0000
  H   H187      1.0  0.59823  0.27133  0.28311  1.0000
  H   H188      1.0  0.88948  0.27882  0.45383  1.0000
  H   H189      1.0  0.86757  0.22737  0.25511  1.0000
  S   S70       1.0  0.99846  0.25908  0.28667  1.0000
  S   S71       1.0  0.96891  0.28657  0.34833  1.0000
  C   C190      1.0  0.63027  0.28057  0.29805  1.0000
  H   H190      1.0  0.65712  0.26742  0.30830  1.0000
  C   C191      1.0  0.94487  0.19675  0.20739  1.0000
  Fe  Fe34      1.0  0.97321  0.25331  0.37587  1.0000
  H   H191      1.0  0.74393  0.31434  0.25709  1.0000
  S   S72       1.0  0.52360  0.25973  0.21397  1.0000
  C   C192      1.0  0.71431  0.24998  0.24678  1.0000
  C   C193      1.0  0.72433  0.26374  0.22168  1.0000
  C   C194      1.0  0.77046  0.27172  0.22590  1.0000
  C   C195      1.0  0.80722  0.26602  0.25513  1.0000
  C   C196      1.0  0.79732  0.25205  0.28006  1.0000
  C   C197      1.0  0.75118  0.24409  0.27586  1.0000
  H   H192      1.0  0.69648  0.26840  0.19912  1.0000
  H   H193      1.0  0.77766  0.28243  0.20637  1.0000
  H   H194      1.0  0.82507  0.24759  0.30281  1.0000
  H   H195      1.0  0.74391  0.23350  0.29550  1.0000
  H   H196      1.0  0.92808  0.23714  0.48638  1.0000
  Fe  Fe35      1.0  0.52172  0.28924  0.17934  1.0000
  C   C198      1.0  0.61329  0.30985  0.25376  1.0000
  S   S73       1.0  0.57257  0.25695  0.07615  1.0000
  S   S74       1.0  0.55245  0.22862  0.15622  1.0000
  H   H197      1.0  0.87497  0.16756  0.26860  1.0000
  H   H198      1.0  0.96833  0.18826  0.19526  1.0000
  Fe  Fe36      1.0  0.54975  0.26027  0.12502  1.0000
  C   C199      1.0  0.96445  0.24234  0.49254  1.0000
  C   C200      1.0  0.92902  0.18564  0.23245  1.0000
  C   C201      1.0  0.67418  0.32676  0.23318  1.0000
  N   N17       1.0  0.90142  0.19656  0.24918  1.0000
  H   H199      1.0  0.52492  0.21045  0.07901  1.0000
  H   H200      1.0  0.85553  0.29856  0.47100  1.0000
  C   C202      1.0  0.88886  0.21855  0.24156  1.0000
  C   C203      1.0  0.88783  0.18492  0.27684  1.0000
  H   H201      1.0  0.94094  0.16859  0.23972  1.0000
  S   S75       1.0  0.94672  0.24944  0.42316  1.0000
  H   H202      1.0  0.85955  0.19399  0.28431  1.0000
  N   N18       1.0  0.64567  0.29648  0.27572  1.0000
  C   C204      1.0  0.69220  0.29843  0.27764  1.0000
  H   H203      1.0  0.62285  0.28975  0.31988  1.0000
  H   H204      1.0  0.91877  0.18383  0.30000  1.0000
  C   C205      1.0  0.97148  0.12337  0.02004  1.0000
  H   H205      1.0  0.94636  0.22837  0.18147  1.0000
  C   C206      1.0  0.90438  0.23024  0.21686  1.0000
  C   C207      1.0  0.93282  0.21928  0.19985  1.0000
  Fe  Fe37      1.0  0.00167  0.22776  0.31817  1.0000
  C   C208      1.0  0.53623  0.26225  0.03410  1.0000
  H   H206      1.0  0.93942  0.17405  0.06765  1.0000
  H   H207      1.0  0.71799  0.28788  0.29506  1.0000
  C   C209      1.0  0.70713  0.31345  0.25624  1.0000
  H   H208      1.0  0.96329  0.29728  0.47057  1.0000
  H   H209      1.0  0.58829  0.25097  0.01014  1.0000
  C   C210      1.0  0.62698  0.32513  0.23211  1.0000
  H   H210      1.0  0.57649  0.30856  0.25256  1.0000
  H   H211      1.0  0.97000  0.07149  0.01800  1.0000
  C   C211      1.0  0.96195  0.29756  0.49712  1.0000
  H   H212      1.0  0.86267  0.26946  0.48551  1.0000
  C   C212      1.0  0.97315  0.17517  0.06243  1.0000
  N   N19       1.0  0.92216  0.29087  0.50507  1.0000
  C   C213      1.0  0.97562  0.17702  0.02849  1.0000
  C   C214      1.0  0.01452  0.17445  0.08948  1.0000
  H   H213      1.0  0.94329  0.17721  0.00753  1.0000
  C   C215      1.0  0.96907  0.06983  0.99109  1.0000
  S   S76       1.0  0.59948  0.22837  0.84819  1.0000
  H   H214      1.0  0.66026  0.13328  0.75316  1.0000
  C   C216      1.0  0.88259  0.32092  0.64948  1.0000
  S   S77       1.0  0.97142  0.24507  0.62833  1.0000
  S   S78       1.0  0.90663  0.29481  0.64145  1.0000
  C   C217      1.0  0.92084  0.29078  0.53862  1.0000
  C   C218      1.0  0.00177  0.30283  0.55758  1.0000
  Fe  Fe38      1.0  0.85311  0.09413  0.84627  1.0000
  S   S79       1.0  0.81090  0.10124  0.88307  1.0000
  S   S80       1.0  0.88120  0.05906  0.83897  1.0000
  Fe  Fe39      1.0  0.86932  0.14503  0.83580  1.0000
  S   S81       1.0  0.82927  0.15517  0.87306  1.0000
  S   S82       1.0  0.89676  0.17671  0.81584  1.0000
  Fe  Fe40      1.0  0.86701  0.12698  0.90624  1.0000
  S   S83       1.0  0.89502  0.12943  0.96444  1.0000
  Fe  Fe41      1.0  0.77677  0.12902  0.84651  1.0000
  S   S84       1.0  0.69788  0.13544  0.82926  1.0000
  S   S85       1.0  0.91117  0.11880  0.87144  1.0000
  S   S86       1.0  0.81470  0.11988  0.80721  1.0000
  C   C219      1.0  0.95529  0.12553  0.98409  1.0000
  H   H215      1.0  0.62118  0.30048  0.93956  1.0000
  H   H216      1.0  0.64118  0.15085  0.71508  1.0000
  C   C220      1.0  0.62579  0.30358  0.84533  1.0000
  C   C221      1.0  0.80860  0.02909  0.83898  1.0000
  C   C222      1.0  0.85663  0.03215  0.84351  1.0000
  C   C223      1.0  0.88583  0.01307  0.84944  1.0000
  H   H217      1.0  0.78560  0.04354  0.83418  1.0000
  Fe  Fe42      1.0  0.52413  0.24149  0.83608  1.0000
  C   C224      1.0  0.95824  0.18874  0.72509  1.0000
  C   C225      1.0  0.94775  0.16661  0.73327  1.0000
  C   C226      1.0  0.92819  0.16253  0.76064  1.0000
  C   C227      1.0  0.91926  0.18060  0.78016  1.0000
  C   C228      1.0  0.92939  0.20271  0.77178  1.0000
  C   C229      1.0  0.94859  0.20679  0.74432  1.0000
  H   H218      1.0  0.92062  0.14542  0.76686  1.0000
  C   C230      1.0  0.60795  0.32094  0.89410  1.0000
  H   H219      1.0  0.92260  0.21680  0.78676  1.0000
  C   C231      1.0  0.60898  0.32193  0.85987  1.0000
  H   H220      1.0  0.81727  0.31424  0.61060  1.0000
  H   H221      1.0  0.97585  0.23985  0.54769  1.0000
  C   C232      1.0  0.01142  0.06845  0.98264  1.0000
  H   H222      1.0  0.95511  0.15253  0.71851  1.0000
  C   C233      1.0  0.62522  0.20184  0.84413  1.0000
  C   C234      1.0  0.67430  0.19994  0.85645  1.0000
  C   C235      1.0  0.69688  0.17954  0.85312  1.0000
  C   C236      1.0  0.67065  0.16078  0.83712  1.0000
  C   C237      1.0  0.62152  0.16262  0.82500  1.0000
  C   C238      1.0  0.59887  0.18303  0.82846  1.0000
  H   H223      1.0  0.69509  0.21433  0.86867  1.0000
  H   H224      1.0  0.73463  0.17843  0.86254  1.0000
  H   H225      1.0  0.60082  0.14819  0.81274  1.0000
  H   H226      1.0  0.56110  0.18420  0.81894  1.0000
  C   C239      1.0  0.78987  0.00713  0.83919  1.0000
  H   H227      1.0  0.89294  0.06735  0.91180  1.0000
  H   H228      1.0  0.87070  0.05436  0.97946  1.0000
  C   C240      1.0  0.98743  0.12516  0.96476  1.0000
  C   C241      1.0  0.64126  0.28437  0.86529  1.0000
  H   H229      1.0  0.75246  0.00493  0.83469  1.0000
  C   C242      1.0  0.57939  0.31298  0.73083  1.0000
  H   H230      1.0  0.67130  0.26636  0.94617  1.0000
  H   H231      1.0  0.62381  0.15694  0.75351  1.0000
  H   H232      1.0  0.67625  0.25194  0.90818  1.0000
  N   N20       1.0  0.64031  0.28355  0.89892  1.0000
  H   H233      1.0  0.95650  0.22387  0.73836  1.0000
  H   H234      1.0  0.73197  0.28082  0.64200  1.0000
  H   H235      1.0  0.88927  0.28568  0.54506  1.0000
  C   C243      1.0  0.55303  0.25728  0.00575  1.0000
  H   H236      1.0  0.92301  0.01521  0.85286  1.0000
  C   C244      1.0  0.62378  0.30148  0.91337  1.0000
  S   S87       1.0  0.52800  0.27427  0.86549  1.0000
  C   C245      1.0  0.96778  0.06639  0.92248  1.0000
  N   N21       1.0  0.79033  0.32501  0.71190  1.0000
  H   H237      1.0  0.62535  0.30398  0.81843  1.0000
  N   N22       1.0  0.69518  0.16493  0.75634  1.0000
  C   C246      1.0  0.73670  0.15749  0.75223  1.0000
  C   C247      1.0  0.69299  0.18541  0.77165  1.0000
  C   C248      1.0  0.77767  0.17045  0.76418  1.0000
  C   C249      1.0  0.73346  0.19862  0.78443  1.0000
  C   C250      1.0  0.77606  0.19101  0.78072  1.0000
  C   C251      1.0  0.65293  0.15089  0.74369  1.0000
  H   H238      1.0  0.73849  0.14122  0.74025  1.0000
  H   H239      1.0  0.66019  0.19128  0.77520  1.0000
  H   H240      1.0  0.81078  0.16437  0.76138  1.0000
  H   H241      1.0  0.73186  0.21439  0.79774  1.0000
  H   H242      1.0  0.80798  0.20085  0.79096  1.0000
  H   H243      1.0  0.84108  0.00793  0.77273  1.0000
  C   C252      1.0  0.99141  0.24385  0.52728  1.0000
  C   C253      1.0  0.74297  0.32553  0.69679  1.0000
  C   C254      1.0  0.65291  0.26267  0.91868  1.0000
  H   H244      1.0  0.96660  0.06511  0.89545  1.0000
  H   H245      1.0  0.88779  0.08207  0.99865  1.0000
  C   C255      1.0  0.83627  0.32584  0.63051  1.0000
  C   C256      1.0  0.74824  0.29297  0.66206  1.0000
  H   H246      1.0  0.68366  0.31040  0.65937  1.0000
  C   C257      1.0  0.79639  0.29224  0.67818  1.0000
  C   C258      1.0  0.81693  0.30840  0.70339  1.0000
  H   H247      1.0  0.98820  0.17332  0.96737  1.0000
  H   H248      1.0  0.97547  0.12691  0.93712  1.0000
  C   C259      1.0  0.96061  0.29670  0.56534  1.0000
  C   C260      1.0  0.53408  0.32760  0.76750  1.0000
  H   H249      1.0  0.59370  0.29870  0.72057  1.0000
  H   H250      1.0  0.81809  0.27973  0.67044  1.0000
  Fe  Fe43      1.0  0.97716  0.27680  0.66049  1.0000
  C   C261      1.0  0.72122  0.30959  0.67160  1.0000
  C   C262      1.0  0.92613  0.06779  0.93187  1.0000
  C   C263      1.0  0.01067  0.06690  0.94805  1.0000
  H   H251      1.0  0.95973  0.29608  0.59194  1.0000
  C   C264      1.0  0.55274  0.30928  0.75405  1.0000
  S   S88       1.0  0.98630  0.19301  0.69237  1.0000
  H   H252      1.0  0.65246  0.26983  0.85334  1.0000
  H   H253      1.0  0.54686  0.29227  0.76160  1.0000
  H   H254      1.0  0.85456  0.30801  0.71514  1.0000
  H   H255      1.0  0.62060  0.25263  0.91714  1.0000
  H   H256      1.0  0.85567  0.07994  0.95446  1.0000
  C   C265      1.0  0.52418  0.25994  0.97176  1.0000
  C   C266      1.0  0.00243  0.30347  0.52326  1.0000
  S   S89       1.0  0.00965  0.25894  0.71089  1.0000
  Fe  Fe44      1.0  0.00724  0.22797  0.67832  1.0000
  N   N23       1.0  0.92721  0.06995  0.96577  1.0000
  H   H257      1.0  0.53708  0.25561  0.95012  1.0000
  C   C267      1.0  0.88320  0.07149  0.97512  1.0000
  H   H258      1.0  0.56103  0.63235  0.46478  1.0000
  H   H259      1.0  0.56163  0.38151  0.46646  1.0000
  H   H260      1.0  0.60090  0.33535  0.21425  1.0000
  C   C268      1.0  0.53599  0.38413  0.48043  1.0000
  C   C269      1.0  0.53258  0.63007  0.47623  1.0000
  H   H261      1.0  0.55941  0.58313  0.47849  1.0000
  H   H262      1.0  0.58563  0.43765  0.49504  1.0000
  H   H263      1.0  0.68513  0.33821  0.21603  1.0000
  C   C270      1.0  0.54420  0.57772  0.45119  1.0000
  H   H264      1.0  0.56269  0.56236  0.44646  1.0000
  H   H265      1.0  0.55072  0.59170  0.43478  1.0000
  Fe  Fe45      1.0  0.63959  0.37056  0.66683  1.0000
  S   S90       1.0  0.67923  0.36172  0.62870  1.0000
  H   H266      1.0  0.77777  0.34861  0.62319  1.0000
  Fe  Fe46      1.0  0.65154  0.42161  0.65616  1.0000
  S   S91       1.0  0.69309  0.41604  0.61861  1.0000
  S   S92       1.0  0.63136  0.45659  0.67096  1.0000
  Fe  Fe47      1.0  0.63830  0.38941  0.59608  1.0000
  S   S93       1.0  0.61152  0.38619  0.53797  1.0000
  Fe  Fe48      1.0  0.73017  0.38868  0.65452  1.0000
  S   S94       1.0  0.80932  0.38444  0.67447  1.0000
  S   S95       1.0  0.59439  0.39629  0.63177  1.0000
  S   S96       1.0  0.69301  0.39636  0.69449  1.0000
  Fe  Fe49      1.0  0.67308  0.58844  0.63976  1.0000
  S   S97       1.0  0.65753  0.61036  0.59219  1.0000
  S   S98       1.0  0.70198  0.55303  0.63549  1.0000
  Fe  Fe50      1.0  0.64374  0.62580  0.68222  1.0000
  S   S99       1.0  0.62537  0.64959  0.63779  1.0000
  H   H267      1.0  0.62041  0.65676  0.79487  1.0000
  Fe  Fe51      1.0  0.59212  0.61958  0.60609  1.0000
  H   H268      1.0  0.59353  0.33486  0.90524  1.0000
  Fe  Fe52      1.0  0.69282  0.63860  0.62822  1.0000
  H   H269      1.0  0.89707  0.65403  0.68364  1.0000
  S   S100      1.0  0.60542  0.59618  0.65152  1.0000
  S   S101      1.0  0.71351  0.61624  0.67480  1.0000
  C   C271      1.0  0.60613  0.66055  0.73983  1.0000
  H   H270      1.0  0.73024  0.44360  0.72126  1.0000
  H   H271      1.0  0.77127  0.52982  0.69211  1.0000
  H   H272      1.0  0.90329  0.36753  0.70163  1.0000
  H   H273      1.0  0.52834  0.39078  0.56212  1.0000
  C   C272      1.0  0.81367  0.34530  0.63769  1.0000
  C   C273      1.0  0.56865  0.35330  0.73396  1.0000
  S   S102      1.0  0.62195  0.33843  0.69171  1.0000
  C   C274      1.0  0.88440  0.35587  0.68178  1.0000
  H   H274      1.0  0.57457  0.37030  0.72632  1.0000
  S   S103      1.0  0.63723  0.63599  0.73492  1.0000
  H   H275      1.0  0.57741  0.44704  0.59832  1.0000
  H   H276      1.0  0.73843  0.65041  0.73862  1.0000
  H   H277      1.0  0.81300  0.64346  0.65970  1.0000
  C   C275      1.0  0.75018  0.45600  0.71149  1.0000
  H   H278      1.0  0.57840  0.62897  0.52833  1.0000
  C   C276      1.0  0.64691  0.48323  0.65702  1.0000
  C   C277      1.0  0.67796  0.48521  0.63689  1.0000
  C   C278      1.0  0.69298  0.50676  0.62936  1.0000
  C   C279      1.0  0.67658  0.52658  0.64130  1.0000
  C   C280      1.0  0.64420  0.52459  0.66033  1.0000
  C   C281      1.0  0.62976  0.50304  0.66832  1.0000
  H   H279      1.0  0.69155  0.47017  0.62803  1.0000
  H   H280      1.0  0.71810  0.50810  0.61467  1.0000
  H   H281      1.0  0.63148  0.53964  0.66989  1.0000
  H   H282      1.0  0.60569  0.50173  0.68388  1.0000
  C   C282      1.0  0.90679  0.33613  0.67503  1.0000
  H   H283      1.0  0.81647  0.50097  0.67442  1.0000
  H   H284      1.0  0.82431  0.46038  0.66165  1.0000
  C   C283      1.0  0.76639  0.51883  0.71311  1.0000
  C   C284      1.0  0.56047  0.44611  0.57074  1.0000
  N   N24       1.0  0.76983  0.49485  0.70492  1.0000
  C   C285      1.0  0.79796  0.48838  0.68509  1.0000
  C   C286      1.0  0.74638  0.47899  0.71831  1.0000
  C   C287      1.0  0.80253  0.46550  0.67775  1.0000
  H   H285      1.0  0.81028  0.33595  0.76404  1.0000
  C   C288      1.0  0.77844  0.44924  0.69108  1.0000
  H   H286      1.0  0.81908  0.66451  0.57554  1.0000
  H   H287      1.0  0.73102  0.52279  0.71566  1.0000
  C   C289      1.0  0.81222  0.34179  0.73846  1.0000
  H   H288      1.0  0.78138  0.43145  0.68535  1.0000
  H   H289      1.0  0.72330  0.48408  0.73344  1.0000
  C   C290      1.0  0.54217  0.34960  0.75738  1.0000
  H   H290      1.0  0.79327  0.52329  0.73753  1.0000
  C   C291      1.0  0.83751  0.36037  0.66350  1.0000
  C   C292      1.0  0.82475  0.66034  0.65596  1.0000
  H   H291      1.0  0.52785  0.36388  0.76764  1.0000
  H   H292      1.0  0.79436  0.35837  0.73258  1.0000
  C   C293      1.0  0.55083  0.38610  0.51651  1.0000
  C   C294      1.0  0.54252  0.62810  0.51221  1.0000
  C   C295      1.0  0.58743  0.33497  0.72059  1.0000
  H   H293      1.0  0.59537  0.33660  0.84424  1.0000
  H   H294      1.0  0.94252  0.33261  0.68972  1.0000
  H   H295      1.0  0.72175  0.33851  0.70384  1.0000
  C   C296      1.0  0.56470  0.44108  0.51246  1.0000
  H   H296      1.0  0.72402  0.66275  0.77435  1.0000
  H   H297      1.0  0.84945  0.34486  0.73938  1.0000
  H   H298      1.0  0.62468  0.44022  0.55752  1.0000
  C   C297      1.0  0.58707  0.44251  0.54788  1.0000
  H   H299      1.0  0.63067  0.81791  0.27297  1.0000
  C   C298      1.0  0.85752  0.70871  0.24756  1.0000
  C   C299      1.0  0.60552  0.84135  0.16407  1.0000
  H   H300      1.0  0.62666  0.79331  0.24551  1.0000
  Fe  Fe53      1.0  0.58888  0.76571  0.17698  1.0000
  S   S104      1.0  0.66613  0.77665  0.18974  1.0000
  S   S105      1.0  0.56008  0.73414  0.14697  1.0000
  Fe  Fe54      1.0  0.92279  0.75329  0.32130  1.0000
  S   S106      1.0  0.95407  0.78476  0.35067  1.0000
  S   S107      1.0  0.84536  0.74279  0.30836  1.0000
  C   C300      1.0  0.98061  0.85083  0.34815  1.0000
  C   C301      1.0  0.97575  0.77149  0.47195  1.0000
  S   S108      1.0  0.53417  0.78819  0.14232  1.0000
  H   H301      1.0  0.62138  0.84519  0.14368  1.0000
  S   S109      1.0  0.97585  0.73028  0.35617  1.0000
  S   S110      1.0  0.96438  0.75596  0.28313  1.0000
  C   C302      1.0  0.63721  0.81140  0.24898  1.0000
  H   H302      1.0  0.96886  0.70185  0.24593  1.0000
  H   H303      1.0  0.92379  0.78034  0.49768  1.0000
  C   C303      1.0  0.53893  0.84173  0.18680  1.0000
  H   H304      1.0  0.83420  0.70449  0.26299  1.0000
  C   C304      1.0  0.71539  0.76702  0.22306  1.0000
  C   C305      1.0  0.71143  0.75034  0.24649  1.0000
  C   C306      1.0  0.75147  0.74332  0.27251  1.0000
  C   C307      1.0  0.79596  0.75290  0.27562  1.0000
  C   C308      1.0  0.79993  0.76958  0.25218  1.0000
  C   C309      1.0  0.75990  0.77657  0.22610  1.0000
  H   H305      1.0  0.67755  0.74279  0.24457  1.0000
  H   H306      1.0  0.74790  0.73038  0.29044  1.0000
  H   H307      1.0  0.83386  0.77709  0.25410  1.0000
  H   H308      1.0  0.76349  0.78948  0.20815  1.0000
  Fe  Fe55      1.0  0.99905  0.78617  0.31404  1.0000
  N   N25       1.0  0.61080  0.82431  0.21890  1.0000
  H   H309      1.0  0.91160  0.67107  0.28453  1.0000
  N   N26       1.0  0.90343  0.70222  0.25783  1.0000
  H   H310      1.0  0.54849  0.82485  0.23514  1.0000
  C   C310      1.0  0.56519  0.82988  0.21566  1.0000
  C   C311      1.0  0.63097  0.82979  0.19348  1.0000
  H   H311      1.0  0.55884  0.74288  0.05175  1.0000
  C   C312      1.0  0.87045  0.72785  0.19852  1.0000
  H   H312      1.0  0.98070  0.93834  0.03920  1.0000
  H   H313      1.0  0.85791  0.73845  0.17599  1.0000
  N   N27       1.0  0.01624  0.83848  0.37422  1.0000
  Fe  Fe56      1.0  0.00992  0.76197  0.38282  1.0000
  C   C313      1.0  0.84044  0.72181  0.21799  1.0000
  H   H314      1.0  0.94839  0.88500  0.03164  1.0000
  C   C314      1.0  0.93264  0.70731  0.23815  1.0000
  C   C315      1.0  0.95921  0.77453  0.50108  1.0000
  H   H315      1.0  0.94060  0.72508  0.19364  1.0000
  H   H316      1.0  0.80446  0.72769  0.21085  1.0000
  C   C316      1.0  0.97622  0.88804  0.01982  1.0000
  S   S111      1.0  0.54725  0.76160  0.21498  1.0000
  H   H317      1.0  0.95313  0.77492  0.44640  1.0000
  H   H318      1.0  0.53870  0.85604  0.13792  1.0000
  C   C317      1.0  0.55921  0.84740  0.16082  1.0000
  H   H319      1.0  0.95959  0.69082  0.30024  1.0000
  C   C318      1.0  0.91676  0.72039  0.20840  1.0000
  H   H320      1.0  0.66667  0.82477  0.19547  1.0000
  H   H321      1.0  0.57624  0.67557  0.10892  1.0000
  C   C319      1.0  0.54053  0.68153  0.10382  1.0000
  C   C320      1.0  0.92082  0.68919  0.28960  1.0000
  H   H322      1.0  0.67562  0.81228  0.25237  1.0000
  C   C321      1.0  0.53605  0.74598  0.02613  1.0000
  H   H323      1.0  0.90547  0.69560  0.30991  1.0000
  H   H324      1.0  0.00477  0.85078  0.23241  1.0000
  H   H325      1.0  0.97190  0.83406  0.40695  1.0000
  H   H326      1.0  0.95346  0.83878  0.33321  1.0000
  H   H327      1.0  0.96386  0.86387  0.36040  1.0000
  S   S112      1.0  0.00106  0.81846  0.28408  1.0000
  H   H328      1.0  0.53655  0.69403  0.05296  1.0000
  H   H329      1.0  0.53380  0.67164  0.15359  1.0000
  C   C322      1.0  0.00590  0.83084  0.40311  1.0000
  H   H330      1.0  0.99592  0.85945  0.32942  1.0000
  C   C323      1.0  0.01691  0.94409  0.04673  1.0000
  C   C324      1.0  0.51836  0.69186  0.07251  1.0000
  H   H331      1.0  0.80553  0.66926  0.52981  1.0000
  S   S113      1.0  0.56135  0.82321  0.82183  1.0000
  S   S114      1.0  0.56238  0.75645  0.83999  1.0000
  Fe  Fe57      1.0  0.81851  0.87652  0.86708  1.0000
  S   S115      1.0  0.79579  0.89637  0.81821  1.0000
  S   S116      1.0  0.77919  0.84600  0.87977  1.0000
  Fe  Fe58      1.0  0.91493  0.89956  0.88846  1.0000
  S   S117      1.0  0.89955  0.92078  0.84042  1.0000
  S   S118      1.0  0.98846  0.90255  0.92462  1.0000
  Fe  Fe59      1.0  0.83006  0.92663  0.85006  1.0000
  S   S119      1.0  0.79267  0.96065  0.84084  1.0000
  Fe  Fe60      1.0  0.86731  0.88912  0.81260  1.0000
  S   S120      1.0  0.87136  0.87907  0.75933  1.0000
  S   S121      1.0  0.84703  0.90725  0.90010  1.0000
  S   S122      1.0  0.88842  0.86745  0.85955  1.0000
  Fe  Fe61      1.0  0.98531  0.72746  0.67354  1.0000
  S   S123      1.0  0.95007  0.76069  0.65835  1.0000
  S   S124      1.0  0.94972  0.69382  0.67832  1.0000
  C   C325      1.0  0.68889  0.70161  0.67453  1.0000
  C   C326      1.0  0.66245  0.71720  0.68685  1.0000
  Fe  Fe62      1.0  0.52576  0.78929  0.82449  1.0000
  C   C327      1.0  0.81511  0.67771  0.55544  1.0000
  S   S125      1.0  0.54555  0.74173  0.92765  1.0000
  C   C328      1.0  0.79296  0.67588  0.63650  1.0000
  H   H332      1.0  0.83199  0.82217  0.84138  1.0000
  H   H333      1.0  0.92904  0.89077  0.96831  1.0000
  C   C329      1.0  0.91038  0.85732  0.75579  1.0000
  C   C330      1.0  0.90775  0.84792  0.72329  1.0000
  C   C331      1.0  0.93645  0.82960  0.72018  1.0000
  C   C332      1.0  0.96835  0.82076  0.74959  1.0000
  C   C333      1.0  0.97156  0.83050  0.78191  1.0000
  C   C334      1.0  0.94267  0.84862  0.78505  1.0000
  H   H334      1.0  0.88302  0.85462  0.70047  1.0000
  H   H335      1.0  0.93383  0.82230  0.69512  1.0000
  H   H336      1.0  0.94552  0.85587  0.81014  1.0000
  H   H337      1.0  0.97877  0.94072  0.98053  1.0000
  S   S126      1.0  0.73411  0.66825  0.61512  1.0000
  H   H338      1.0  0.68601  0.69859  0.76913  1.0000
  H   H339      1.0  0.54151  0.84674  0.92171  1.0000
  H   H340      1.0  0.88998  0.97662  0.85434  1.0000
  C   C335      1.0  0.62256  0.82862  0.83503  1.0000
  C   C336      1.0  0.65501  0.81182  0.84941  1.0000
  C   C337      1.0  0.70307  0.81730  0.86211  1.0000
  C   C338      1.0  0.71916  0.83954  0.86038  1.0000
  C   C339      1.0  0.68691  0.85617  0.84501  1.0000
  C   C340      1.0  0.63883  0.85073  0.83258  1.0000
  H   H341      1.0  0.64296  0.79475  0.85148  1.0000
  H   H342      1.0  0.72778  0.80431  0.87393  1.0000
  H   H343      1.0  0.69877  0.87337  0.84361  1.0000
  H   H344      1.0  0.61396  0.86382  0.82143  1.0000
  N   N28       1.0  0.85818  0.69111  0.56024  1.0000
  C   C341      1.0  0.81396  0.97389  0.76240  1.0000
  C   C342      1.0  0.55392  0.69876  0.74828  1.0000
  C   C343      1.0  0.55815  0.69280  0.71571  1.0000
  S   S127      1.0  0.96603  0.77490  0.57042  1.0000
  H   H345      1.0  0.70497  0.78915  0.95379  1.0000
  H   H346      1.0  0.88970  0.78909  0.83950  1.0000
  C   C344      1.0  0.57728  0.68599  0.77698  1.0000
  H   H347      1.0  0.97197  0.72551  0.56927  1.0000
  H   H348      1.0  0.58813  0.73714  0.00050  1.0000
  H   H349      1.0  0.82441  0.71590  0.52352  1.0000
  C   C345      1.0  0.80901  0.69767  0.63156  1.0000
  C   C346      1.0  0.85664  0.70371  0.64514  1.0000
  C   C347      1.0  0.88873  0.68795  0.66375  1.0000
  H   H350      1.0  0.80795  0.82417  0.71545  1.0000
  H   H351      1.0  0.78468  0.70981  0.61652  1.0000
  H   H352      1.0  0.86874  0.72037  0.64055  1.0000
  H   H353      1.0  0.75125  0.84334  0.74092  1.0000
  H   H354      1.0  0.87663  0.92808  0.75473  1.0000
  C   C348      1.0  0.67861  0.82186  0.93472  1.0000
  H   H355      1.0  0.64220  0.85187  0.91287  1.0000
  C   C349      1.0  0.67403  0.79932  0.94330  1.0000
  C   C350      1.0  0.58402  0.67381  0.71148  1.0000
  H   H356      1.0  0.57402  0.69038  0.80220  1.0000
  H   H357      1.0  0.76323  0.84195  0.80425  1.0000
  H   H358      1.0  0.64086  0.72807  0.73096  1.0000
  N   N29       1.0  0.85769  0.81197  0.79951  1.0000
  C   C351      1.0  0.82643  0.82224  0.81367  1.0000
  C   C352      1.0  0.85072  0.81212  0.76458  1.0000
  C   C353      1.0  0.78746  0.83348  0.79279  1.0000
  C   C354      1.0  0.81224  0.82330  0.74296  1.0000
  C   C355      1.0  0.78062  0.83416  0.75726  1.0000
  C   C356      1.0  0.89794  0.72295  0.54430  1.0000
  H   H359      1.0  0.78573  0.68867  0.55737  1.0000
  C   C357      1.0  0.85704  0.71028  0.54121  1.0000
  H   H360      1.0  0.87579  0.80426  0.75329  1.0000
  C   C358      1.0  0.86720  0.99115  0.85031  1.0000
  H   H361      1.0  0.68966  0.70212  0.64786  1.0000
  H   H362      1.0  0.94011  0.95666  0.76613  1.0000
  C   C359      1.0  0.89939  0.68412  0.58268  1.0000
  H   H363      1.0  0.92244  0.81483  0.83834  1.0000
  C   C360      1.0  0.86854  0.94562  0.75844  1.0000
  H   H364      1.0  0.76723  0.93617  0.77092  1.0000
  C   C361      1.0  0.89967  0.80154  0.82232  1.0000
  C   C362      1.0  0.55257  0.74276  0.99702  1.0000
  H   H365      1.0  0.79973  0.91742  0.75142  1.0000
  H   H366      1.0  0.76104  0.93780  0.72515  1.0000
  H   H367      1.0  0.64220  0.72988  0.66977  1.0000
  Fe  Fe63      1.0  0.00767  0.77596  0.70156  1.0000
  C   C363      1.0  0.94008  0.71581  0.56684  1.0000
  C   C364      1.0  0.66193  0.71627  0.72121  1.0000
  H   H368      1.0  0.92075  0.79266  0.80758  1.0000
  C   C365      1.0  0.78616  0.93493  0.75089  1.0000
  C   C366      1.0  0.68748  0.69949  0.74267  1.0000
  H   H369      1.0  0.71311  0.82930  0.93804  1.0000
  H   H370      1.0  0.55544  0.79560  0.92021  1.0000
  C   C367      1.0  0.00094  0.89553  0.96862  1.0000
  H   H371      1.0  0.89722  0.73833  0.52958  1.0000
  C   C368      1.0  0.81889  0.98801  0.84450  1.0000
  H   H372      1.0  0.99645  0.82392  0.80475  1.0000
  C   C369      1.0  0.63830  0.83456  0.92041  1.0000
  C   C370      1.0  0.62944  0.78988  0.93803  1.0000
  C   C371      1.0  0.98826  0.77031  0.53457  1.0000
  N   N30       1.0  0.71246  0.68396  0.73014  1.0000
  N   N31       1.0  0.82399  0.95180  0.75764  1.0000
  H   H373      1.0  0.77892  0.97866  0.76274  1.0000
  C   C372      1.0  0.01166  0.95089  0.98582  1.0000
  C   C373      1.0  0.71403  0.68508  0.69672  1.0000
  S   S128      1.0  0.00371  0.79707  0.74798  1.0000
  H   H374      1.0  0.58594  0.66928  0.68611  1.0000
  C   C374      1.0  0.96519  0.89123  0.98396  1.0000
  H   H375      1.0  0.62530  0.77236  0.94458  1.0000
  H   H376      1.0  0.97322  0.69101  0.60478  1.0000
  C   C375      1.0  0.58991  0.80312  0.92396  1.0000
  Fe  Fe64      1.0  0.00090  0.76472  0.62631  1.0000
  C   C376      1.0  0.90464  0.96174  0.76475  1.0000
  H   H377      1.0  0.55979  0.85213  0.88325  1.0000
  N   N32       1.0  0.59469  0.82506  0.91482  1.0000
  C   C377      1.0  0.94085  0.69639  0.58641  1.0000
  C   C378      1.0  0.55291  0.83882  0.90058  1.0000
  H   H378      1.0  0.90040  0.66920  0.59838  1.0000
  H   H379      1.0  0.00244  0.96856  0.97786  1.0000
  H   H380      1.0  0.73440  0.67298  0.68691  1.0000
  H   H381      1.0  0.54034  0.70266  0.69340  1.0000
  H   H382      1.0  0.77638  0.67221  0.76368  1.0000
  C   C379      1.0  0.60327  0.66689  0.77271  1.0000
  H   H383      1.0  0.52375  0.82838  0.88425  1.0000
  C   C380      1.0  0.52341  0.74669  0.96346  1.0000
  C   C381      1.0  0.89471  0.98432  0.76965  1.0000
  C   C382      1.0  0.84902  0.99050  0.76816  1.0000
  H   H384      1.0  0.92241  0.99699  0.77507  1.0000
  C   C383      1.0  0.73940  0.66658  0.75293  1.0000
  C   C384      1.0  0.87243  0.66635  0.66936  1.0000
