data_image0
_chemical_formula_structural       SFeS2FeS2CFeS4FeS2FeS2FeSFeS4C4HC6H4C6H4C2H2CH2C2NCH3C6H4C3H2C3H7CH2C2HCHCHC2H2C2H5NCHC2H3CH2C3H2CHCH2NCH2C2HNHCH2C2HNCHC2HCHSFeS2FeS2FeSFeS4FeSHFeS2FeSHS2H4C4NCHC6H4C6H4C6HCH2CHC2H4CHNHC4NSH2CH4NC6H5CH2SFeH2C2HC2H3SCH3CH3FeCHC2NCNCHC4H4FeCHSFeS2FeS2FeSFeS3FeS2FeSCFeSCS3C3H2C2HNH3C6H4C6H4C6H6C2H2C2HC2N2CHC3H2CH2FeCHCH3CH2C3NCH2NHCH3C2H2C2SC3H8SNHC4H3CH2C2H4CH2C2FeSFeS2FeSFeS4FeS2FeS2FeSFeS4C6H4C6H4C3H2CHC2H3C7H4C3HCHCHCH4CH2SHC2HNC3H2NH2C2H2CHCH3C2HNC2HC2HC2HC3NHCHCHC2HCH2C2HNHC4H3CHCH5CNHC3HSFeS2FeSFeS3HSFeS4FeS2FeSFeSFeS4C6H2CHC6H4CSC6H4C6H4CHCHCHCNC6H8NH3C2HCNC2H2CSH3C2HC3HCSH2SFeCH3FeC2FeNCH2CHFeHC2HCHC2HCHC5H3NH8C2HSH2CH2CH3SFeSFeS2FeSFeS5HFeHSHFeS2FeS2FeSFeS2C7H5CHC6H4C6H4C6H4CHCSH2CHC3NC6H5NHSCHN2FeH2CH2CH8C3H2CH2FeHSH3SCHC4H4C2H2FeHC3HNCHCHSHC2HC2H2C2NCNH2C2SC3H2CH2CFeS2FeS2FeSCS2FeS2FeS2FeSFeS3CFeS2HS2HC8H4C6H5SCS2C6H4C6H4SFeHFeCH5CHCH2SHCFeH3CNCHCH2FeHC2NC6H3CH4CHC2HCH4CH2CHNC2HCHCHSH2C2HCH2C2H3CH2NHCHCNH2CHC2SFeS2FeS2Fe2S3HSFeS2FeSFeS3FeS4HSFeCHFeHC3H2C7H5C6H4C6H4C6H3CH5C2SHCH2CH2N2HC2HCHCHC2H2CH2CSH2NCH2CH3CNCHCH2C2H3C2SCFeC2HC2FeSC5H4CHC3H5NH4CH3C2NHFeH2FeS2CFeS3FeS2FeS2FeSFeS3FeS2HFeSC2S2CSCH2C2FeC3HCHC5FeH4C4H2C7H4C3H2C6H5CH4NC6H5CHCHSCHC3HCH2C2H2CH5NHC3SH5CNCH3FeH3C2SFeS2FeS2FeSFeS3FeHSFeCSH2S2HCHCHFeS2CHNSFeS3C2HCNH3CHCHFeHC5H2SC2HCHC6H4CH2C6H4FeC3H4C2HC7H8CSH2C2FeCNCH2CH4CH3CHCHC3HC2H2CHC2N2CHCHCFe2S2C2FeS3HC2H2CSCSFeSFeS2CFeS2FeS2FeSFeS4C6H4C3HCHC7H4C2H3NHC3HCHCH2CH3C2H4CHNC2NH2C2H4CFeH3NHCHSH2CHC3H4C2HC2NFeCFeCHCHNCH3SHC2H2C2H2C3H3C3H2CHCHSC2HC2HFeS2FeSFeS3HFeS2FeS2FeSFeS4CSCSFeSFeSCSC3FeHC6H4C6H4C5HCFeH2CFeCHCHC2H5CH3C2HCNC6H8NC6H9CH3CHCH2SCH2CH2NCHCHCNHC2H
_chemical_formula_sum              "S256 Fe128 C768 H768 N64"
_cell_length_a       51.1741
_cell_length_b       50.911
_cell_length_c       28.1268
_cell_angle_alpha    89.3908
_cell_angle_beta     89.8378
_cell_angle_gamma    87.939

_space_group_name_H-M_alt    "P 1"
_space_group_IT_number       1

loop_
  _space_group_symop_operation_xyz
  'x, y, z'

loop_
  _atom_site_type_symbol
  _atom_site_label
  _atom_site_symmetry_multiplicity
  _atom_site_fract_x
  _atom_site_fract_y
  _atom_site_fract_z
  _atom_site_occupancy
  S   S1        1.0  0.02175  0.36983  0.38243  1.0000
  Fe  Fe1       1.0  0.13089  0.08851  0.38917  1.0000
  S   S2        1.0  0.10079  0.10024  0.44475  1.0000
  S   S3        1.0  0.12374  0.04885  0.35454  1.0000
  Fe  Fe2       1.0  0.16012  0.13953  0.40366  1.0000
  S   S4        1.0  0.13200  0.15460  0.45889  1.0000
  S   S5        1.0  0.19348  0.16459  0.37949  1.0000
  C   C1        1.0  0.23585  0.40864  0.47981  1.0000
  Fe  Fe3       1.0  0.10122  0.14009  0.41027  1.0000
  S   S6        1.0  0.06883  0.16884  0.38880  1.0000
  S   S7        1.0  0.16476  0.09892  0.43596  1.0000
  S   S8        1.0  0.12914  0.12790  0.35230  1.0000
  S   S9        1.0  0.12462  0.42853  0.05383  1.0000
  Fe  Fe4       1.0  0.19171  0.35089  0.26947  1.0000
  S   S10       1.0  0.20180  0.38684  0.31011  1.0000
  S   S11       1.0  0.19022  0.34870  0.18858  1.0000
  Fe  Fe5       1.0  0.18138  0.31970  0.36089  1.0000
  S   S12       1.0  0.19022  0.35366  0.40796  1.0000
  S   S13       1.0  0.16406  0.28552  0.40007  1.0000
  Fe  Fe6       1.0  0.16686  0.37776  0.35499  1.0000
  S   S14       1.0  0.13729  0.40977  0.37523  1.0000
  Fe  Fe7       1.0  0.22455  0.35925  0.35969  1.0000
  S   S15       1.0  0.26493  0.37114  0.38490  1.0000
  S   S16       1.0  0.15538  0.34357  0.31140  1.0000
  S   S17       1.0  0.21724  0.32354  0.31528  1.0000
  S   S18       1.0  0.33362  0.18866  0.10694  1.0000
  C   C2        1.0  0.28047  0.36274  0.43981  1.0000
  C   C3        1.0  0.05553  0.07121  0.31578  1.0000
  C   C4        1.0  0.30582  0.37144  0.44834  1.0000
  C   C5        1.0  0.32052  0.14057  0.18835  1.0000
  H   H1        1.0  0.09791  0.43872  0.26591  1.0000
  C   C6        1.0  0.14291  0.40618  0.09097  1.0000
  C   C7        1.0  0.15701  0.38461  0.07220  1.0000
  C   C8        1.0  0.17132  0.36723  0.10256  1.0000
  C   C9        1.0  0.17180  0.37119  0.15197  1.0000
  C   C10       1.0  0.15774  0.39280  0.17078  1.0000
  C   C11       1.0  0.14332  0.41015  0.14042  1.0000
  H   H2        1.0  0.15692  0.38133  0.03427  1.0000
  H   H3        1.0  0.18214  0.35062  0.08773  1.0000
  H   H4        1.0  0.15821  0.39624  0.20863  1.0000
  H   H5        1.0  0.13261  0.42684  0.15525  1.0000
  C   C12       1.0  0.18839  0.19869  0.38826  1.0000
  C   C13       1.0  0.19948  0.21692  0.35701  1.0000
  C   C14       1.0  0.19338  0.24403  0.36139  1.0000
  C   C15       1.0  0.17626  0.25283  0.39724  1.0000
  C   C16       1.0  0.16646  0.23471  0.42987  1.0000
  C   C17       1.0  0.17264  0.20785  0.42561  1.0000
  H   H6        1.0  0.21204  0.21003  0.32840  1.0000
  H   H7        1.0  0.20112  0.25795  0.33616  1.0000
  H   H8        1.0  0.07863  0.22842  0.38969  1.0000
  H   H9        1.0  0.16528  0.19434  0.45156  1.0000
  C   C18       1.0  0.31817  0.18708  0.05022  1.0000
  C   C19       1.0  0.29066  0.18690  0.04816  1.0000
  H   H10       1.0  0.25703  0.40787  0.48206  1.0000
  H   H11       1.0  0.27946  0.18747  0.08082  1.0000
  C   C20       1.0  0.33278  0.11740  0.20516  1.0000
  H   H12       1.0  0.12019  0.18627  0.36182  1.0000
  H   H13       1.0  0.10678  0.38448  0.22004  1.0000
  C   C21       1.0  0.03621  0.15935  0.39359  1.0000
  C   C22       1.0  0.02983  0.13446  0.41067  1.0000
  N   N1        1.0  0.33406  0.16313  0.25824  1.0000
  C   C23       1.0  0.07937  0.42907  0.26833  1.0000
  H   H14       1.0  0.15797  0.47801  0.01485  1.0000
  H   H15       1.0  0.04507  0.12083  0.42303  1.0000
  H   H16       1.0  0.31248  0.18151  0.20142  1.0000
  C   C24       1.0  0.05365  0.38145  0.38565  1.0000
  C   C25       1.0  0.07478  0.36329  0.38263  1.0000
  C   C26       1.0  0.10050  0.37186  0.38141  1.0000
  C   C27       1.0  0.10528  0.39870  0.38235  1.0000
  C   C28       1.0  0.08418  0.41690  0.38673  1.0000
  C   C29       1.0  0.05836  0.40829  0.38848  1.0000
  H   H17       1.0  0.07127  0.34249  0.38086  1.0000
  H   H18       1.0  0.11662  0.35763  0.37967  1.0000
  H   H19       1.0  0.08777  0.43770  0.38783  1.0000
  H   H20       1.0  0.04215  0.42243  0.39086  1.0000
  C   C30       1.0  0.13124  0.03589  0.29719  1.0000
  C   C31       1.0  0.14435  0.05018  0.26226  1.0000
  C   C32       1.0  0.14996  0.03884  0.21753  1.0000
  H   H21       1.0  0.15041  0.06983  0.26981  1.0000
  H   H22       1.0  0.16031  0.04997  0.19099  1.0000
  C   C33       1.0  0.02832  0.07465  0.31266  1.0000
  C   C34       1.0  0.00360  0.12704  0.41096  1.0000
  C   C35       1.0  0.05632  0.44435  0.27459  1.0000
  H   H23       1.0  0.20963  0.33026  0.01708  1.0000
  H   H24       1.0  0.18692  0.43062  0.40873  1.0000
  H   H25       1.0  0.31106  0.14119  0.15379  1.0000
  H   H26       1.0  0.02343  0.13973  0.29126  1.0000
  H   H27       1.0  0.05468  0.36880  0.26815  1.0000
  H   H28       1.0  0.11984  0.39606  0.27544  1.0000
  H   H29       1.0  0.16169  0.22329  0.24832  1.0000
  C   C36       1.0  0.14150  0.20183  0.30279  1.0000
  H   H30       1.0  0.01445  0.44360  0.28387  1.0000
  H   H31       1.0  0.26003  0.42898  0.40852  1.0000
  C   C37       1.0  0.12514  0.20394  0.34257  1.0000
  C   C38       1.0  0.13873  0.24903  0.29374  1.0000
  H   H32       1.0  0.18116  0.27897  0.00481  1.0000
  C   C39       1.0  0.01631  0.17689  0.37780  1.0000
  H   H33       1.0  0.02109  0.19622  0.36481  1.0000
  C   C40       1.0  0.05954  0.11760  0.30061  1.0000
  H   H34       1.0  0.05698  0.46557  0.27690  1.0000
  C   C41       1.0  0.03190  0.40472  0.27553  1.0000
  C   C42       1.0  0.07116  0.09283  0.30949  1.0000
  H   H35       1.0  0.15508  0.07650  0.00570  1.0000
  H   H36       1.0  0.10177  0.36683  0.27536  1.0000
  C   C43       1.0  0.03246  0.43203  0.27835  1.0000
  C   C44       1.0  0.23864  0.43273  0.40375  1.0000
  H   H37       1.0  0.07151  0.13468  0.29710  1.0000
  H   H38       1.0  0.10419  0.21347  0.42578  1.0000
  H   H39       1.0  0.23450  0.45428  0.40269  1.0000
  H   H40       1.0  0.01056  0.32365  0.43903  1.0000
  H   H41       1.0  0.09225  0.09032  0.31176  1.0000
  N   N2        1.0  0.07865  0.40227  0.26629  1.0000
  C   C45       1.0  0.27742  0.18592  0.00420  1.0000
  H   H42       1.0  0.23358  0.42412  0.36896  1.0000
  C   C46       1.0  0.14717  0.01102  0.02312  1.0000
  C   C47       1.0  0.32143  0.16340  0.21545  1.0000
  H   H43       1.0  0.31584  0.38210  0.42070  1.0000
  H   H44       1.0  0.16056  0.41012  0.47176  1.0000
  H   H45       1.0  0.24821  0.34229  0.47004  1.0000
  C   C48       1.0  0.15204  0.03705  0.03404  1.0000
  H   H46       1.0  0.14943  0.18274  0.29203  1.0000
  H   H47       1.0  0.01357  0.39482  0.27944  1.0000
  C   C49       1.0  0.09944  0.22980  0.40027  1.0000
  C   C50       1.0  0.33231  0.18640  0.00756  1.0000
  C   C51       1.0  0.05530  0.39006  0.26925  1.0000
  H   H48       1.0  0.15361  0.24146  0.45820  1.0000
  H   H49       1.0  0.14454  0.26692  0.27595  1.0000
  C   C52       1.0  0.10291  0.38665  0.25872  1.0000
  H   H50       1.0  0.21638  0.18064  0.47626  1.0000
  C   C53       1.0  0.14840  0.22457  0.27838  1.0000
  H   H51       1.0  0.10224  0.24847  0.41945  1.0000
  H   H52       1.0  0.11571  0.26953  0.34639  1.0000
  N   N3        1.0  0.11625  0.22802  0.35807  1.0000
  C   C54       1.0  0.12243  0.25038  0.33373  1.0000
  H   H53       1.0  0.20935  0.13333  0.46683  1.0000
  H   H54       1.0  0.01625  0.05776  0.31777  1.0000
  C   C55       1.0  0.03229  0.12032  0.29741  1.0000
  C   C56       1.0  0.14251  0.01315  0.20705  1.0000
  H   H55       1.0  0.06462  0.05198  0.32327  1.0000
  N   N4        1.0  0.22347  0.42053  0.44180  1.0000
  H   H56       1.0  0.15671  0.04225  0.07035  1.0000
  C   C57       1.0  0.19677  0.42134  0.43901  1.0000
  H   H57       1.0  0.12355  0.48621  0.02065  1.0000
  H   H58       1.0  0.31645  0.19860  0.28487  1.0000
  C   C58       1.0  0.18174  0.40981  0.47466  1.0000
  C   C59       1.0  0.14160  0.49059  0.00037  1.0000
  H   H59       1.0  0.25631  0.18563  0.00339  1.0000
  N   N5        1.0  0.01706  0.09898  0.30353  1.0000
  C   C60       1.0  0.12360  0.01032  0.28653  1.0000
  H   H60       1.0  0.33268  0.09974  0.18393  1.0000
  C   C61       1.0  0.26772  0.34908  0.47597  1.0000
  C   C62       1.0  0.15103  0.05617  0.99803  1.0000
  H   H61       1.0  0.19844  0.23415  0.98771  1.0000
  C   C63       1.0  0.33563  0.18765  0.28477  1.0000
  H   H62       1.0  0.02403  0.36130  0.98702  1.0000
  S   S19       1.0  0.04536  0.11890  0.83939  1.0000
  Fe  Fe8       1.0  0.18251  0.15053  0.89071  1.0000
  S   S20       1.0  0.16078  0.17843  0.84199  1.0000
  S   S21       1.0  0.15955  0.11849  0.92609  1.0000
  Fe  Fe9       1.0  0.23292  0.18055  0.88447  1.0000
  S   S22       1.0  0.21475  0.21074  0.83388  1.0000
  S   S23       1.0  0.27596  0.18499  0.90479  1.0000
  Fe  Fe10      1.0  0.18002  0.21008  0.88209  1.0000
  S   S24       1.0  0.15346  0.24424  0.90370  1.0000
  Fe  Fe11      1.0  0.19669  0.17683  0.79643  1.0000
  S   S25       1.0  0.19161  0.18146  0.71586  1.0000
  S   S26       1.0  0.19899  0.18237  0.93535  1.0000
  S   S27       1.0  0.21781  0.14637  0.84263  1.0000
  S   S28       1.0  0.13934  0.10506  0.56806  1.0000
  Fe  Fe12      1.0  0.13327  0.45400  0.88005  1.0000
  S   S29       1.0  0.09776  0.44809  0.92581  1.0000
  H   H63       1.0  0.07668  0.44664  0.79375  1.0000
  Fe  Fe13      1.0  0.15050  0.39520  0.89051  1.0000
  S   S30       1.0  0.11609  0.38584  0.93645  1.0000
  S   S31       1.0  0.18057  0.36346  0.86958  1.0000
  Fe  Fe14      1.0  0.09327  0.41116  0.88435  1.0000
  S   S32       1.0  0.05943  0.39764  0.84109  1.0000
  H   H64       1.0  0.13454  0.19667  0.71070  1.0000
  S   S33       1.0  0.12722  0.41841  0.83584  1.0000
  S   S34       1.0  0.16049  0.43165  0.93059  1.0000
  H   H65       1.0  0.22077  0.12059  0.61546  1.0000
  H   H66       1.0  0.00938  0.36246  0.48845  1.0000
  H   H67       1.0  0.22856  0.16777  0.62620  1.0000
  H   H68       1.0  0.15218  0.01356  0.87202  1.0000
  C   C64       1.0  0.01631  0.35027  0.95778  1.0000
  C   C65       1.0  0.30540  0.35333  0.52885  1.0000
  C   C66       1.0  0.22350  0.17734  0.55175  1.0000
  C   C67       1.0  0.12639  0.49583  0.75974  1.0000
  N   N6        1.0  0.04385  0.46738  0.82338  1.0000
  C   C68       1.0  0.28008  0.34455  0.52027  1.0000
  H   H69       1.0  0.04772  0.30536  0.84291  1.0000
  C   C69       1.0  0.16070  0.27695  0.88958  1.0000
  C   C70       1.0  0.14272  0.29691  0.90282  1.0000
  C   C71       1.0  0.14821  0.32337  0.89487  1.0000
  C   C72       1.0  0.17191  0.33022  0.87426  1.0000
  C   C73       1.0  0.18972  0.31018  0.85986  1.0000
  C   C74       1.0  0.18408  0.28355  0.86726  1.0000
  H   H70       1.0  0.12456  0.29193  0.91992  1.0000
  H   H71       1.0  0.13421  0.33839  0.90549  1.0000
  H   H72       1.0  0.20806  0.31529  0.84358  1.0000
  H   H73       1.0  0.19806  0.26826  0.85675  1.0000
  C   C75       1.0  0.15210  0.12715  0.60982  1.0000
  C   C76       1.0  0.15732  0.15314  0.59753  1.0000
  C   C77       1.0  0.16844  0.16975  0.63113  1.0000
  C   C78       1.0  0.17485  0.16053  0.67711  1.0000
  C   C79       1.0  0.16897  0.13479  0.68988  1.0000
  C   C80       1.0  0.15765  0.11821  0.65636  1.0000
  H   H74       1.0  0.15299  0.16038  0.56204  1.0000
  H   H75       1.0  0.17271  0.18971  0.62098  1.0000
  H   H76       1.0  0.17365  0.12744  0.72522  1.0000
  H   H77       1.0  0.15350  0.09820  0.66635  1.0000
  C   C81       1.0  0.07685  0.11660  0.86466  1.0000
  C   C82       1.0  0.08088  0.11183  0.91325  1.0000
  C   C83       1.0  0.10638  0.11196  0.93206  1.0000
  C   C84       1.0  0.12774  0.11736  0.90249  1.0000
  C   C85       1.0  0.12369  0.12135  0.85383  1.0000
  C   C86       1.0  0.09841  0.12068  0.83499  1.0000
  H   H78       1.0  0.06435  0.10852  0.93635  1.0000
  C   C87       1.0  0.01335  0.48050  0.88463  1.0000
  H   H79       1.0  0.14013  0.12461  0.83050  1.0000
  H   H80       1.0  0.09557  0.12339  0.79715  1.0000
  C   C88       1.0  0.24582  0.26953  0.93523  1.0000
  H   H81       1.0  0.05423  0.33987  0.83496  1.0000
  C   C89       1.0  0.02669  0.39909  0.85933  1.0000
  C   C90       1.0  0.02437  0.45543  0.79949  1.0000
  H   H82       1.0  0.26385  0.26692  0.91514  1.0000
  H   H83       1.0  0.03318  0.41648  0.92760  1.0000
  H   H84       1.0  0.08490  0.47453  0.82817  1.0000
  H   H85       1.0  0.22617  0.19821  0.55636  1.0000
  C   C91       1.0  0.22071  0.13352  0.58452  1.0000
  H   H86       1.0  0.33116  0.29063  0.58336  1.0000
  N   N7        1.0  0.21257  0.29794  0.97005  1.0000
  H   H87       1.0  0.23146  0.38670  0.54528  1.0000
  C   C92       1.0  0.20245  0.32445  0.98163  1.0000
  C   C93       1.0  0.01884  0.40901  0.90350  1.0000
  C   C94       1.0  0.22508  0.16024  0.59083  1.0000
  C   C95       1.0  0.21111  0.09596  0.53436  1.0000
  N   N8        1.0  0.13959  0.02340  0.94154  1.0000
  S   S35       1.0  0.13963  0.49644  0.85601  1.0000
  H   H88       1.0  0.14207  0.24702  0.73505  1.0000
  H   H89       1.0  0.33021  0.18529  0.93085  1.0000
  C   C96       1.0  0.13370  0.01619  0.89251  1.0000
  H   H90       1.0  0.14442  0.06381  0.92378  1.0000
  H   H91       1.0  0.24029  0.22793  0.94297  1.0000
  H   H92       1.0  0.05401  0.48958  0.88416  1.0000
  H   H93       1.0  0.12368  0.47499  0.76426  1.0000
  N   N9        1.0  0.12417  0.21673  0.77457  1.0000
  C   C97       1.0  0.12145  0.19772  0.74109  1.0000
  C   C98       1.0  0.10813  0.21766  0.81364  1.0000
  C   C99       1.0  0.10217  0.17906  0.74605  1.0000
  C   C100      1.0  0.08867  0.19927  0.81975  1.0000
  C   C101      1.0  0.08556  0.18003  0.78549  1.0000
  C   C102      1.0  0.14492  0.23566  0.76864  1.0000
  H   H94       1.0  0.18280  0.38780  0.54056  1.0000
  H   H95       1.0  0.11072  0.23223  0.84094  1.0000
  H   H96       1.0  0.10038  0.16373  0.71983  1.0000
  H   H97       1.0  0.07637  0.19958  0.85124  1.0000
  H   H98       1.0  0.07057  0.16559  0.79004  1.0000
  C   C103      1.0  0.23255  0.24758  0.95083  1.0000
  H   H99       1.0  0.16431  0.22511  0.76737  1.0000
  H   H100      1.0  0.02691  0.32651  0.80571  1.0000
  S   S36       1.0  0.00238  0.07151  0.92257  1.0000
  Fe  Fe15      1.0  0.00860  0.10783  0.87847  1.0000
  H   H101      1.0  0.01400  0.38242  0.79354  1.0000
  H   H102      1.0  0.22189  0.08377  0.56135  1.0000
  C   C104      1.0  0.19421  0.39726  0.51315  1.0000
  C   C105      1.0  0.07025  0.46707  0.80297  1.0000
  H   H103      1.0  0.00918  0.34293  0.54267  1.0000
  C   C106      1.0  0.21787  0.16754  0.50693  1.0000
  C   C107      1.0  0.00805  0.38969  0.82810  1.0000
  H   H104      1.0  0.11547  0.49635  0.68557  1.0000
  H   H105      1.0  0.12114  0.03174  0.87501  1.0000
  H   H106      1.0  0.14541  0.24976  0.79854  1.0000
  S   S37       1.0  0.31971  0.34758  0.58581  1.0000
  C   C108      1.0  0.14489  0.04890  0.95164  1.0000
  H   H107      1.0  0.20854  0.33915  0.95458  1.0000
  H   H108      1.0  0.02868  0.44494  0.76686  1.0000
  H   H109      1.0  0.07056  0.47955  0.77036  1.0000
  C   C109      1.0  0.20924  0.25105  0.97620  1.0000
  H   H110      1.0  0.26992  0.33419  0.54813  1.0000
  H   H111      1.0  0.18993  0.09243  0.53830  1.0000
  H   H112      1.0  0.24586  0.31174  0.93286  1.0000
  Fe  Fe16      1.0  0.12462  0.42338  0.97350  1.0000
  C   C110      1.0  0.31906  0.18571  0.96358  1.0000
  H   H113      1.0  0.05202  0.35064  0.91749  1.0000
  C   C111      1.0  0.22145  0.39666  0.51585  1.0000
  C   C112      1.0  0.03858  0.32537  0.83900  1.0000
  N   N10       1.0  0.21574  0.12399  0.54025  1.0000
  C   C113      1.0  0.03861  0.48001  0.86526  1.0000
  N   N11       1.0  0.02200  0.33133  0.88036  1.0000
  C   C114      1.0  0.29155  0.18537  0.96151  1.0000
  H   H114      1.0  0.10944  0.10866  0.96972  1.0000
  C   C115      1.0  0.23556  0.29474  0.94540  1.0000
  C   C116      1.0  0.03203  0.34418  0.91831  1.0000
  C   C117      1.0  0.31830  0.36664  0.49245  1.0000
  C   C118      1.0  0.21393  0.14067  0.50181  1.0000
  H   H115      1.0  0.18070  0.32537  0.98184  1.0000
  H   H116      1.0  0.13815  0.48497  0.96290  1.0000
  H   H117      1.0  0.00930  0.49015  0.91822  1.0000
  H   H118      1.0  0.21757  0.08906  0.49870  1.0000
  Fe  Fe17      1.0  0.13456  0.11374  0.48869  1.0000
  C   C119      1.0  0.19952  0.27650  0.98573  1.0000
  H   H119      1.0  0.32501  0.66059  0.18143  1.0000
  S   S38       1.0  0.13920  0.61032  0.43772  1.0000
  Fe  Fe18      1.0  0.23261  0.68143  0.11671  1.0000
  S   S39       1.0  0.22195  0.71082  0.17400  1.0000
  S   S40       1.0  0.27458  0.67919  0.08805  1.0000
  Fe  Fe19      1.0  0.17893  0.65684  0.12303  1.0000
  S   S41       1.0  0.16492  0.68412  0.18051  1.0000
  S   S42       1.0  0.15230  0.62782  0.08842  1.0000
  Fe  Fe20      1.0  0.18329  0.71550  0.13656  1.0000
  S   S43       1.0  0.15478  0.74982  0.12377  1.0000
  Fe  Fe21      1.0  0.20429  0.67685  0.21329  1.0000
  S   S44       1.0  0.21049  0.67385  0.29358  1.0000
  S   S45       1.0  0.19506  0.68868  0.07660  1.0000
  S   S46       1.0  0.21751  0.64707  0.15885  1.0000
  Fe  Fe22      1.0  0.15594  0.90003  0.11581  1.0000
  S   S47       1.0  0.12161  0.89123  0.06990  1.0000
  S   S48       1.0  0.18736  0.86882  0.13335  1.0000
  Fe  Fe23      1.0  0.14003  0.95879  0.12400  1.0000
  S   S49       1.0  0.10496  0.95420  0.07684  1.0000
  C   C120      1.0  0.12033  0.67482  0.38428  1.0000
  Fe  Fe24      1.0  0.09854  0.91749  0.11963  1.0000
  S   S50       1.0  0.06106  0.90708  0.15729  1.0000
  C   C121      1.0  0.09011  0.71330  0.10534  1.0000
  S   S51       1.0  0.13231  0.92333  0.16924  1.0000
  S   S52       1.0  0.16701  0.93599  0.07409  1.0000
  S   S53       1.0  0.03267  0.64174  0.14449  1.0000
  C   C122      1.0  0.14206  0.53200  0.04413  1.0000
  C   C123      1.0  0.28224  0.67171  0.27068  1.0000
  C   C124      1.0  0.31216  0.67791  0.01748  1.0000
  H   H120      1.0  0.12328  0.97927  0.23445  1.0000
  H   H121      1.0  0.26440  0.87312  0.44372  1.0000
  C   C125      1.0  0.03011  0.90755  0.12996  1.0000
  C   C126      1.0  0.02704  0.90905  0.08058  1.0000
  H   H122      1.0  0.30452  0.85657  0.30044  1.0000
  N   N12       1.0  0.13578  0.69002  0.35619  1.0000
  H   H123      1.0  0.14650  0.70081  0.28546  1.0000
  H   H124      1.0  0.04399  0.91113  0.05792  1.0000
  H   H125      1.0  0.18129  0.87019  0.01465  1.0000
  C   C127      1.0  0.16440  0.78263  0.12842  1.0000
  C   C128      1.0  0.14516  0.80292  0.12565  1.0000
  C   C129      1.0  0.15198  0.82934  0.12835  1.0000
  C   C130      1.0  0.17818  0.83572  0.13306  1.0000
  C   C131      1.0  0.19746  0.81543  0.13619  1.0000
  C   C132      1.0  0.19060  0.78892  0.13400  1.0000
  H   H126      1.0  0.12485  0.79819  0.12160  1.0000
  H   H127      1.0  0.13693  0.84475  0.12685  1.0000
  H   H128      1.0  0.21777  0.82020  0.13991  1.0000
  H   H129      1.0  0.20557  0.77340  0.13615  1.0000
  C   C133      1.0  0.11903  0.62976  0.10523  1.0000
  C   C134      1.0  0.09994  0.61889  0.07630  1.0000
  C   C135      1.0  0.07322  0.62161  0.08841  1.0000
  C   C136      1.0  0.06565  0.63525  0.12945  1.0000
  C   C137      1.0  0.08479  0.64555  0.15866  1.0000
  C   C138      1.0  0.11131  0.64260  0.14681  1.0000
  H   H130      1.0  0.10574  0.60875  0.04414  1.0000
  H   H131      1.0  0.05851  0.61359  0.06571  1.0000
  H   H132      1.0  0.07899  0.65591  0.19058  1.0000
  H   H133      1.0  0.12581  0.64990  0.17028  1.0000
  C   C139      1.0  0.16125  0.62598  0.39861  1.0000
  C   C140      1.0  0.17977  0.64327  0.41505  1.0000
  C   C141      1.0  0.19542  0.65697  0.38244  1.0000
  C   C142      1.0  0.19233  0.65401  0.33310  1.0000
  C   C143      1.0  0.17421  0.63632  0.31669  1.0000
  C   C144      1.0  0.15893  0.62224  0.34932  1.0000
  H   H134      1.0  0.18190  0.64621  0.45288  1.0000
  H   H135      1.0  0.20953  0.67042  0.39558  1.0000
  H   H136      1.0  0.17176  0.63364  0.27887  1.0000
  H   H137      1.0  0.14477  0.60880  0.33625  1.0000
  H   H138      1.0  0.16582  0.59130  0.01288  1.0000
  H   H139      1.0  0.23557  0.87396  0.33554  1.0000
  C   C145      1.0  0.32846  0.67129  0.32203  1.0000
  C   C146      1.0  0.30177  0.85336  0.45647  1.0000
  H   H140      1.0  0.14369  0.56933  0.08016  1.0000
  H   H141      1.0  0.08560  0.67026  0.01620  1.0000
  C   C147      1.0  0.28128  0.67320  0.32030  1.0000
  C   C148      1.0  0.28526  0.68092  0.02769  1.0000
  H   H142      1.0  0.24013  0.86757  0.17037  1.0000
  C   C149      1.0  0.29854  0.85517  0.22505  1.0000
  C   C150      1.0  0.07958  0.68348  0.04450  1.0000
  N   N13       1.0  0.26475  0.86558  0.28206  1.0000
  N   N14       1.0  0.30575  0.66973  0.24742  1.0000
  C   C151      1.0  0.24684  0.86868  0.24612  1.0000
  H   H143      1.0  0.30412  0.67418  0.38456  1.0000
  C   C152      1.0  0.25441  0.86506  0.19872  1.0000
  C   C153      1.0  0.28045  0.85826  0.18822  1.0000
  C   C154      1.0  0.25689  0.86955  0.33172  1.0000
  H   H144      1.0  0.24711  0.68776  0.99714  1.0000
  H   H145      1.0  0.22653  0.87401  0.25374  1.0000
  C   C155      1.0  0.30457  0.67298  0.34606  1.0000
  H   H146      1.0  0.14402  0.72797  0.38119  1.0000
  H   H147      1.0  0.01009  0.90475  0.19724  1.0000
  Fe  Fe25      1.0  0.13137  0.92839  0.03093  1.0000
  C   C156      1.0  0.29031  0.85896  0.27202  1.0000
  H   H148      1.0  0.28663  0.85543  0.15164  1.0000
  C   C157      1.0  0.11691  0.67192  0.28614  1.0000
  H   H149      1.0  0.12206  0.67514  0.42273  1.0000
  H   H150      1.0  0.29051  0.65622  0.18187  1.0000
  H   H151      1.0  0.11607  0.67066  0.24774  1.0000
  C   C158      1.0  0.30614  0.66884  0.19534  1.0000
  H   H152      1.0  0.16004  0.70107  0.41380  1.0000
  H   H153      1.0  0.01765  0.86361  0.31000  1.0000
  C   C159      1.0  0.06386  0.71537  0.11936  1.0000
  C   C160      1.0  0.15369  0.70821  0.37799  1.0000
  C   C161      1.0  0.12543  0.69493  0.05600  1.0000
  N   N15       1.0  0.09765  0.69742  0.06846  1.0000
  C   C162      1.0  0.04531  0.70116  0.09523  1.0000
  H   H154      1.0  0.26192  0.85162  0.35325  1.0000
  H   H155      1.0  0.26756  0.88615  0.34696  1.0000
  N   N16       1.0  0.01026  0.83473  0.18434  1.0000
  H   H156      1.0  0.03898  0.67339  0.03960  1.0000
  C   C163      1.0  0.10147  0.65597  0.31447  1.0000
  H   H157      1.0  0.17181  0.70979  0.35624  1.0000
  H   H158      1.0  0.31886  0.84991  0.21733  1.0000
  H   H159      1.0  0.02502  0.70174  0.10677  1.0000
  C   C164      1.0  0.12917  0.99901  0.24183  1.0000
  C   C165      1.0  0.26783  0.68536  0.98996  1.0000
  H   H160      1.0  0.10456  0.72417  0.12446  1.0000
  H   H161      1.0  0.05799  0.72752  0.14924  1.0000
  C   C166      1.0  0.10313  0.65743  0.36388  1.0000
  C   C167      1.0  0.16078  0.57082  0.01018  1.0000
  S   S54       1.0  0.31389  0.86101  0.39843  1.0000
  C   C168      1.0  0.00606  0.82557  0.13581  1.0000
  C   C169      1.0  0.13404  0.68897  0.30771  1.0000
  C   C170      1.0  0.05314  0.68525  0.05734  1.0000
  H   H162      1.0  0.04604  0.85321  0.16766  1.0000
  H   H163      1.0  0.09199  0.64445  0.38641  1.0000
  H   H164      1.0  0.13326  0.71457  0.04777  1.0000
  H   H165      1.0  0.26402  0.67210  0.25090  1.0000
  H   H166      1.0  0.11348  0.99905  0.31319  1.0000
  H   H167      1.0  0.08863  0.64214  0.29819  1.0000
  H   H168      1.0  0.32584  0.67443  0.04629  1.0000
  H   H169      1.0  0.14819  0.99599  0.05069  1.0000
  S   S55       1.0  0.15038  0.99963  0.15026  1.0000
  N   N17       1.0  0.14777  0.51841  0.00344  1.0000
  H   H170      1.0  0.26253  0.67456  0.33850  1.0000
  C   C171      1.0  0.03476  0.85934  0.24024  1.0000
  C   C172      1.0  0.03166  0.84893  0.19484  1.0000
  C   C173      1.0  0.14834  0.55844  0.04802  1.0000
  C   C174      1.0  0.27618  0.86189  0.46907  1.0000
  H   H171      1.0  0.02220  0.52568  0.44323  1.0000
  H   H172      1.0  0.13652  0.68615  0.08641  1.0000
  H   H173      1.0  0.15763  0.84695  0.03403  1.0000
  C   C175      1.0  0.01587  0.85498  0.27506  1.0000
  H   H174      1.0  0.12909  0.68196  0.02496  1.0000
  H   H175      1.0  0.05123  0.87157  0.24754  1.0000
  C   C176      1.0  0.00801  0.90504  0.15898  1.0000
  C   C177      1.0  0.32871  0.66976  0.27238  1.0000
  H   H176      1.0  0.02177  0.83157  0.11105  1.0000
  H   H177      1.0  0.13257  0.52240  0.07383  1.0000
  H   H178      1.0  0.19048  0.83587  0.02316  1.0000
  H   H179      1.0  0.30275  0.68893  0.18018  1.0000
  C   C178      1.0  0.17473  0.84978  0.01039  1.0000
  H   H180      1.0  0.00506  0.80380  0.13556  1.0000
  H   H181      1.0  0.00556  0.57012  0.46510  1.0000
  C   C179      1.0  0.00241  0.52215  0.42902  1.0000
  C   C180      1.0  0.15518  0.83786  0.86575  1.0000
  Fe  Fe26      1.0  0.13683  0.61591  0.51823  1.0000
  S   S56       1.0  0.16445  0.59956  0.57431  1.0000
  Fe  Fe27      1.0  0.10030  0.64123  0.59270  1.0000
  S   S57       1.0  0.12550  0.62812  0.65449  1.0000
  S   S58       1.0  0.06425  0.66748  0.60385  1.0000
  Fe  Fe28      1.0  0.15895  0.63958  0.60747  1.0000
  S   S59       1.0  0.19336  0.66346  0.62893  1.0000
  Fe  Fe29      1.0  0.12869  0.58917  0.61729  1.0000
  S   S60       1.0  0.11936  0.54918  0.65059  1.0000
  S   S61       1.0  0.13348  0.65628  0.54900  1.0000
  S   S62       1.0  0.10138  0.60199  0.55777  1.0000
  S   S63       1.0  0.12947  0.92982  0.94987  1.0000
  Fe  Fe30      1.0  0.22867  0.84181  0.64193  1.0000
  S   S64       1.0  0.22459  0.82315  0.71498  1.0000
  S   S65       1.0  0.26882  0.83462  0.60642  1.0000
  Fe  Fe31      1.0  0.17286  0.86497  0.64635  1.0000
  S   S66       1.0  0.16500  0.84840  0.71882  1.0000
  S   S67       1.0  0.14158  0.88753  0.60417  1.0000
  Fe  Fe32      1.0  0.20488  0.86127  0.73756  1.0000
  S   S68       1.0  0.21464  0.87654  0.81124  1.0000
  Fe  Fe33      1.0  0.18490  0.81172  0.69099  1.0000
  S   S69       1.0  0.16264  0.77572  0.71099  1.0000
  S   S70       1.0  0.21192  0.88099  0.66663  1.0000
  S   S71       1.0  0.19001  0.82722  0.61669  1.0000
  S   S72       1.0  0.02271  0.86723  0.65076  1.0000
  C   C181      1.0  0.10856  0.88123  0.61635  1.0000
  C   C182      1.0  0.08905  0.88957  0.58397  1.0000
  C   C183      1.0  0.06251  0.88551  0.59394  1.0000
  C   C184      1.0  0.05547  0.87286  0.63622  1.0000
  C   C185      1.0  0.07495  0.86449  0.66841  1.0000
  C   C186      1.0  0.10133  0.86886  0.65871  1.0000
  H   H182      1.0  0.09448  0.89933  0.55121  1.0000
  H   H183      1.0  0.04758  0.89202  0.56887  1.0000
  H   H184      1.0  0.06957  0.85483  0.70130  1.0000
  H   H185      1.0  0.11598  0.86283  0.68432  1.0000
  C   C187      1.0  0.15378  0.91587  0.91157  1.0000
  C   C188      1.0  0.14772  0.91204  0.86345  1.0000
  C   C189      1.0  0.16616  0.90017  0.83226  1.0000
  C   C190      1.0  0.19105  0.89238  0.84875  1.0000
  C   C191      1.0  0.19731  0.89677  0.89663  1.0000
  C   C192      1.0  0.17875  0.90830  0.92798  1.0000
  H   H186      1.0  0.12853  0.91798  0.85031  1.0000
  H   H187      1.0  0.16112  0.89711  0.79546  1.0000
  H   H188      1.0  0.21657  0.89104  0.90965  1.0000
  H   H189      1.0  0.18383  0.91156  0.96469  1.0000
  C   C193      1.0  0.12614  0.53493  0.70768  1.0000
  C   C194      1.0  0.03548  0.96651  0.62682  1.0000
  C   C195      1.0  0.13473  0.54964  0.74600  1.0000
  H   H190      1.0  0.10839  0.70369  0.59548  1.0000
  H   H191      1.0  0.13809  0.57035  0.74106  1.0000
  C   C196      1.0  0.13467  0.51059  0.79822  1.0000
  H   H192      1.0  0.06272  0.56215  0.67337  1.0000
  C   C197      1.0  0.03307  0.65427  0.59690  1.0000
  C   C198      1.0  0.03005  0.62760  0.58746  1.0000
  H   H193      1.0  0.09702  0.96977  0.58151  1.0000
  H   H194      1.0  0.07006  0.72885  0.62725  1.0000
  H   H195      1.0  0.04706  0.61474  0.58271  1.0000
  C   C199      1.0  0.00489  0.61734  0.58582  1.0000
  C   C200      1.0  0.18498  0.69462  0.65198  1.0000
  C   C201      1.0  0.20207  0.71537  0.64592  1.0000
  C   C202      1.0  0.19552  0.74043  0.66392  1.0000
  C   C203      1.0  0.17218  0.74457  0.68917  1.0000
  C   C204      1.0  0.15542  0.72367  0.69609  1.0000
  C   C205      1.0  0.16160  0.69886  0.67697  1.0000
  H   H196      1.0  0.22019  0.71219  0.62655  1.0000
  H   H197      1.0  0.20853  0.75649  0.65843  1.0000
  H   H198      1.0  0.13732  0.72681  0.71555  1.0000
  H   H199      1.0  0.14844  0.68291  0.68211  1.0000
  C   C206      1.0  0.17980  0.82982  0.88273  1.0000
  C   C207      1.0  0.28067  0.84192  0.54804  1.0000
  C   C208      1.0  0.29343  0.86556  0.71667  1.0000
  H   H200      1.0  0.04654  0.64228  0.71256  1.0000
  C   C209      1.0  0.30413  0.68372  0.93255  1.0000
  H   H201      1.0  0.01845  0.95092  0.72554  1.0000
  C   C210      1.0  0.30291  0.87881  0.79671  1.0000
  H   H202      1.0  0.26354  0.69035  0.91401  1.0000
  C   C211      1.0  0.03946  0.62294  0.70491  1.0000
  H   H203      1.0  0.07835  0.60605  0.69361  1.0000
  H   H204      1.0  0.30897  0.67878  0.77239  1.0000
  H   H205      1.0  0.14537  0.54918  0.82033  1.0000
  H   H206      1.0  0.31947  0.85898  0.63438  1.0000
  C   C212      1.0  0.01854  0.93954  0.69208  1.0000
  H   H207      1.0  0.13007  0.86389  0.96732  1.0000
  H   H208      1.0  0.02042  0.91815  0.70049  1.0000
  S   S73       1.0  0.31484  0.68591  0.87228  1.0000
  H   H209      1.0  0.17665  0.56609  0.93950  1.0000
  C   C213      1.0  0.30624  0.83338  0.53543  1.0000
  C   C214      1.0  0.28496  0.87611  0.76000  1.0000
  H   H210      1.0  0.09556  0.81709  0.62054  1.0000
  N   N18       1.0  0.03998  0.94767  0.66121  1.0000
  C   C215      1.0  0.32721  0.84660  0.66439  1.0000
  C   C216      1.0  0.05586  0.97470  0.59755  1.0000
  C   C217      1.0  0.08104  0.96383  0.60423  1.0000
  H   H211      1.0  0.31803  0.82216  0.56080  1.0000
  H   H212      1.0  0.11827  0.85718  0.88327  1.0000
  N   N19       1.0  0.16787  0.84513  0.96069  1.0000
  H   H213      1.0  0.00278  0.59657  0.58003  1.0000
  H   H214      1.0  0.32742  0.66549  0.69466  1.0000
  C   C218      1.0  0.08987  0.76580  0.62742  1.0000
  C   C219      1.0  0.26568  0.85622  0.51445  1.0000
  H   H215      1.0  0.06826  0.92229  0.69572  1.0000
  H   H216      1.0  0.24605  0.86305  0.52351  1.0000
  C   C220      1.0  0.30642  0.66794  0.69910  1.0000
  H   H217      1.0  0.01481  0.55454  0.67379  1.0000
  C   C221      1.0  0.13259  0.73748  0.59121  1.0000
  H   H218      1.0  0.05212  0.98932  0.56981  1.0000
  H   H219      1.0  0.10505  0.93637  0.64530  1.0000
  H   H220      1.0  0.15052  0.83560  0.82841  1.0000
  C   C222      1.0  0.08796  0.73886  0.61913  1.0000
  C   C223      1.0  0.13707  0.84986  0.89653  1.0000
  H   H221      1.0  0.19435  0.82151  0.85849  1.0000
  N   N20       1.0  0.31911  0.85798  0.71001  1.0000
  C   C224      1.0  0.10949  0.72468  0.60096  1.0000
  C   C225      1.0  0.25899  0.68622  0.79554  1.0000
  H   H222      1.0  0.20529  0.82798  0.94318  1.0000
  C   C226      1.0  0.25280  0.67413  0.71183  1.0000
  C   C227      1.0  0.32904  0.87087  0.78978  1.0000
  H   H223      1.0  0.27932  0.86351  0.68834  1.0000
  C   C228      1.0  0.02192  0.57365  0.68284  1.0000
  C   C229      1.0  0.16033  0.53031  0.96643  1.0000
  H   H224      1.0  0.26915  0.70363  0.80889  1.0000
  C   C230      1.0  0.13885  0.53755  0.79099  1.0000
  C   C231      1.0  0.00433  0.59434  0.69436  1.0000
  C   C232      1.0  0.27723  0.68681  0.94276  1.0000
  N   N21       1.0  0.26937  0.67867  0.74881  1.0000
  H   H225      1.0  0.11954  0.80869  0.66600  1.0000
  C   C233      1.0  0.28975  0.66353  0.66110  1.0000
  H   H226      1.0  0.24954  0.66302  0.63822  1.0000
  C   C234      1.0  0.32156  0.67924  0.97026  1.0000
  H   H227      1.0  0.23175  0.67629  0.71626  1.0000
  C   C235      1.0  0.05757  0.60263  0.69389  1.0000
  C   C236      1.0  0.26275  0.66657  0.66743  1.0000
  H   H228      1.0  0.15227  0.77397  0.59467  1.0000
  C   C237      1.0  0.04873  0.57789  0.68257  1.0000
  H   H229      1.0  0.26456  0.88212  0.76502  1.0000
  H   H230      1.0  0.26241  0.66981  0.82146  1.0000
  C   C238      1.0  0.06467  0.93723  0.66850  1.0000
  C   C239      1.0  0.08556  0.94515  0.64017  1.0000
  H   H231      1.0  0.14975  0.72639  0.57879  1.0000
  N   N22       1.0  0.11254  0.77825  0.61743  1.0000
  H   H232      1.0  0.12955  0.81566  0.60584  1.0000
  C   C240      1.0  0.29584  0.67549  0.74298  1.0000
  C   C241      1.0  0.13387  0.76440  0.60017  1.0000
  C   C242      1.0  0.18589  0.83371  0.93057  1.0000
  C   C243      1.0  0.01078  0.67070  0.60311  1.0000
  H   H233      1.0  0.07318  0.77666  0.64226  1.0000
  H   H234      1.0  0.01598  0.97515  0.62152  1.0000
  H   H235      1.0  0.23771  0.69138  0.79431  1.0000
  C   C244      1.0  0.11438  0.80626  0.62797  1.0000
  H   H236      1.0  0.01288  0.69139  0.61001  1.0000
  C   C245      1.0  0.14386  0.85356  0.94409  1.0000
  H   H237      1.0  0.29652  0.88702  0.83043  1.0000
  H   H238      1.0  0.16531  0.51941  0.93447  1.0000
  H   H239      1.0  0.13741  0.98412  0.96837  1.0000
  H   H240      1.0  0.29779  0.65770  0.62689  1.0000
  H   H241      1.0  0.12298  0.99756  0.89127  1.0000
  C   C246      1.0  0.16687  0.55670  0.96910  1.0000
  N   N23       1.0  0.01320  0.61868  0.70463  1.0000
  H   H242      1.0  0.31921  0.82668  0.66089  1.0000
  C   C247      1.0  0.14103  0.00446  0.97643  1.0000
  C   C248      1.0  0.31673  0.83902  0.49004  1.0000
  C   C249      1.0  0.12191  0.50799  0.71499  1.0000
  H   H243      1.0  0.35058  0.20015  0.26816  1.0000
  S   S74       1.0  0.42958  0.43021  0.04322  1.0000
  Fe  Fe34      1.0  0.49505  0.39851  0.08685  1.0000
  S   S75       1.0  0.46260  0.41039  0.13715  1.0000
  S   S76       1.0  0.52769  0.37512  0.12307  1.0000
  Fe  Fe35      1.0  0.43692  0.39229  0.08313  1.0000
  S   S77       1.0  0.40493  0.36503  0.10352  1.0000
  Fe  Fe36      1.0  0.45877  0.44729  0.09308  1.0000
  S   S78       1.0  0.45013  0.48934  0.11757  1.0000
  S   S79       1.0  0.46933  0.37803  0.03531  1.0000
  S   S80       1.0  0.49333  0.43684  0.04626  1.0000
  H   H244      1.0  0.44138  0.31878  0.00301  1.0000
  S   S81       1.0  0.64847  0.39318  0.09465  1.0000
  Fe  Fe37      1.0  0.60457  0.12807  0.06284  1.0000
  S   S82       1.0  0.62448  0.11384  0.12984  1.0000
  S   S83       1.0  0.57057  0.15735  0.06428  1.0000
  S   S84       1.0  0.60743  0.08906  0.02673  1.0000
  S   S85       1.0  0.64091  0.14278  0.02839  1.0000
  Fe  Fe38      1.0  0.42974  0.15650  0.13520  1.0000
  S   S86       1.0  0.44554  0.18231  0.19145  1.0000
  S   S87       1.0  0.45546  0.12274  0.10890  1.0000
  Fe  Fe39      1.0  0.37646  0.18568  0.13132  1.0000
  S   S88       1.0  0.38856  0.21393  0.18804  1.0000
  Fe  Fe40      1.0  0.42660  0.21512  0.14836  1.0000
  S   S89       1.0  0.45206  0.24968  0.13398  1.0000
  Fe  Fe41      1.0  0.40662  0.17873  0.22679  1.0000
  S   S90       1.0  0.40040  0.17406  0.30693  1.0000
  S   S91       1.0  0.41356  0.18947  0.08885  1.0000
  S   S92       1.0  0.39171  0.15033  0.17338  1.0000
  S   S93       1.0  0.47887  0.11470  0.45262  1.0000
  C   C250      1.0  0.42275  0.15781  0.34683  1.0000
  C   C251      1.0  0.44554  0.14461  0.33090  1.0000
  C   C252      1.0  0.46248  0.13158  0.36371  1.0000
  C   C253      1.0  0.45696  0.13164  0.41280  1.0000
  C   C254      1.0  0.43422  0.14495  0.42871  1.0000
  C   C255      1.0  0.41720  0.15787  0.39588  1.0000
  H   H245      1.0  0.45004  0.14432  0.29332  1.0000
  H   H246      1.0  0.47998  0.12134  0.35103  1.0000
  C   C256      1.0  0.66084  0.40432  0.38364  1.0000
  H   H247      1.0  0.39964  0.16795  0.40862  1.0000
  C   C257      1.0  0.53844  0.14717  0.07331  1.0000
  C   C258      1.0  0.51888  0.16621  0.08385  1.0000
  C   C259      1.0  0.49327  0.15883  0.09370  1.0000
  C   C260      1.0  0.48699  0.13235  0.09267  1.0000
  C   C261      1.0  0.50639  0.11331  0.08081  1.0000
  C   C262      1.0  0.53215  0.12068  0.07134  1.0000
  H   H248      1.0  0.52362  0.18673  0.08514  1.0000
  H   H249      1.0  0.47842  0.17367  0.10237  1.0000
  H   H250      1.0  0.50155  0.09282  0.07970  1.0000
  H   H251      1.0  0.54709  0.10594  0.06268  1.0000
  C   C263      1.0  0.46706  0.48542  0.21133  1.0000
  S   S94       1.0  0.64236  0.42820  0.41606  1.0000
  C   C264      1.0  0.56072  0.38305  0.11752  1.0000
  C   C265      1.0  0.57895  0.37017  0.14757  1.0000
  C   C266      1.0  0.60578  0.37373  0.14150  1.0000
  C   C267      1.0  0.61470  0.38994  0.10495  1.0000
  C   C268      1.0  0.59642  0.40337  0.07556  1.0000
  C   C269      1.0  0.56943  0.39991  0.08174  1.0000
  H   H252      1.0  0.57229  0.35711  0.17531  1.0000
  H   H253      1.0  0.61949  0.36399  0.16521  1.0000
  H   H254      1.0  0.60318  0.41612  0.04742  1.0000
  H   H255      1.0  0.55549  0.40982  0.05824  1.0000
  C   C270      1.0  0.41767  0.33330  0.11738  1.0000
  C   C271      1.0  0.44470  0.32845  0.11894  1.0000
  C   C272      1.0  0.45490  0.30278  0.12569  1.0000
  C   C273      1.0  0.43819  0.28178  0.13147  1.0000
  C   C274      1.0  0.41109  0.28667  0.13168  1.0000
  C   C275      1.0  0.40084  0.31244  0.12457  1.0000
  H   H256      1.0  0.45786  0.34444  0.11490  1.0000
  H   H257      1.0  0.47585  0.29916  0.12601  1.0000
  H   H258      1.0  0.39808  0.27054  0.13622  1.0000
  H   H259      1.0  0.37989  0.31612  0.12382  1.0000
  C   C276      1.0  0.63517  0.03237  0.21807  1.0000
  H   H260      1.0  0.64145  0.05232  0.21362  1.0000
  C   C277      1.0  0.38534  0.28663  0.01245  1.0000
  H   H261      1.0  0.59193  0.40560  0.43178  1.0000
  C   C278      1.0  0.42239  0.25648  0.02279  1.0000
  H   H262      1.0  0.47153  0.46486  0.20451  1.0000
  C   C279      1.0  0.62734  0.34809  0.31532  1.0000
  N   N24       1.0  0.54712  0.09430  0.18120  1.0000
  C   C280      1.0  0.55270  0.12035  0.18348  1.0000
  C   C281      1.0  0.52224  0.08636  0.18974  1.0000
  C   C282      1.0  0.53326  0.13914  0.19562  1.0000
  C   C283      1.0  0.50233  0.10465  0.20196  1.0000
  C   C284      1.0  0.50795  0.13117  0.20506  1.0000
  C   C285      1.0  0.56766  0.07514  0.16680  1.0000
  H   H263      1.0  0.57207  0.12686  0.17459  1.0000
  H   H264      1.0  0.51751  0.06589  0.18626  1.0000
  H   H265      1.0  0.53757  0.15984  0.19600  1.0000
  H   H266      1.0  0.48242  0.09852  0.20729  1.0000
  H   H267      1.0  0.49249  0.14559  0.21311  1.0000
  H   H268      1.0  0.58632  0.07871  0.18540  1.0000
  H   H269      1.0  0.56256  0.05460  0.17559  1.0000
  H   H270      1.0  0.57105  0.07653  0.12782  1.0000
  N   N25       1.0  0.40179  0.30699  0.00597  1.0000
  H   H271      1.0  0.52154  0.31928  0.08903  1.0000
  H   H272      1.0  0.40474  0.39461  0.19140  1.0000
  H   H273      1.0  0.35343  0.18649  0.00840  1.0000
  C   C286      1.0  0.58160  0.38794  0.42030  1.0000
  C   C287      1.0  0.53966  0.28248  0.11278  1.0000
  H   H274      1.0  0.47819  0.48281  0.28525  1.0000
  C   C288      1.0  0.58673  0.27986  0.10574  1.0000
  N   N26       1.0  0.58658  0.30464  0.08640  1.0000
  C   C289      1.0  0.38980  0.42845  0.15210  1.0000
  C   C290      1.0  0.53971  0.30777  0.09315  1.0000
  H   H275      1.0  0.63968  0.33844  0.28876  1.0000
  H   H276      1.0  0.58379  0.39935  0.32772  1.0000
  C   C291      1.0  0.56346  0.31850  0.07966  1.0000
  S   S95       1.0  0.66371  0.33343  0.18111  1.0000
  H   H277      1.0  0.64684  0.02946  0.29176  1.0000
  H   H278      1.0  0.42968  0.14513  0.46630  1.0000
  H   H279      1.0  0.38262  0.41694  0.12292  1.0000
  C   C292      1.0  0.43900  0.27729  0.01561  1.0000
  C   C293      1.0  0.56331  0.26833  0.11889  1.0000
  H   H280      1.0  0.63109  0.22380  0.10417  1.0000
  C   C294      1.0  0.46015  0.48153  0.46599  1.0000
  C   C295      1.0  0.61366  0.35334  0.39701  1.0000
  C   C296      1.0  0.62406  0.01958  0.17969  1.0000
  H   H281      1.0  0.60877  0.33585  0.05610  1.0000
  C   C297      1.0  0.61150  0.31641  0.07417  1.0000
  S   S96       1.0  0.65974  0.27000  0.11563  1.0000
  H   H282      1.0  0.37543  0.33853  0.02404  1.0000
  H   H283      1.0  0.64316  0.17657  0.11009  1.0000
  S   S97       1.0  0.61983  0.03488  0.12266  1.0000
  Fe  Fe42      1.0  0.63020  0.07527  0.09200  1.0000
  C   C298      1.0  0.40220  0.41590  0.19063  1.0000
  H   H284      1.0  0.61546  0.34738  0.43405  1.0000
  H   H285      1.0  0.42180  0.42126  0.25728  1.0000
  H   H286      1.0  0.41587  0.46975  0.25468  1.0000
  Fe  Fe43      1.0  0.66119  0.12540  0.09230  1.0000
  C   C299      1.0  0.62882  0.34000  0.36281  1.0000
  C   C300      1.0  0.63821  0.01931  0.26241  1.0000
  Fe  Fe44      1.0  0.46418  0.41731  0.99906  1.0000
  N   N27       1.0  0.39605  0.47039  0.18793  1.0000
  C   C301      1.0  0.65091  0.21773  0.11346  1.0000
  H   H287      1.0  0.56356  0.24862  0.13404  1.0000
  H   H288      1.0  0.38231  0.24505  0.02757  1.0000
  C   C302      1.0  0.65778  0.19089  0.11651  1.0000
  H   H289      1.0  0.61027  0.37640  0.26592  1.0000
  Fe  Fe45      1.0  0.64570  0.10280  0.99727  1.0000
  H   H290      1.0  0.56206  0.39420  0.40630  1.0000
  C   C303      1.0  0.40836  0.45826  0.22581  1.0000
  C   C304      1.0  0.39537  0.26108  0.02116  1.0000
  H   H291      1.0  0.37757  0.46551  0.12088  1.0000
  C   C305      1.0  0.38698  0.45588  0.15121  1.0000
  H   H292      1.0  0.52135  0.27393  0.12345  1.0000
  C   C306      1.0  0.47075  0.49565  0.25713  1.0000
  C   C307      1.0  0.59603  0.38236  0.33770  1.0000
  H   H293      1.0  0.65263  0.42332  0.31615  1.0000
  C   C308      1.0  0.45735  0.50173  0.17468  1.0000
  H   H294      1.0  0.35698  0.14042  0.30819  1.0000
  C   C309      1.0  0.39151  0.49899  0.18712  1.0000
  C   C310      1.0  0.61092  0.36947  0.30258  1.0000
  C   C311      1.0  0.34576  0.11731  0.24875  1.0000
  C   C312      1.0  0.65597  0.49872  0.44657  1.0000
  C   C313      1.0  0.41174  0.43086  0.22760  1.0000
  H   H295      1.0  0.62325  0.30323  0.05043  1.0000
  H   H296      1.0  0.46782  0.46582  0.44359  1.0000
  H   H297      1.0  0.60506  0.26890  0.11125  1.0000
  N   N28       1.0  0.59717  0.37393  0.38406  1.0000
  H   H298      1.0  0.57817  0.37534  0.45216  1.0000
  H   H299      1.0  0.62301  0.31941  0.10698  1.0000
  H   H300      1.0  0.40877  0.24612  0.45360  1.0000
  H   H301      1.0  0.64233  0.32406  0.37320  1.0000
  H   H302      1.0  0.56322  0.33815  0.06439  1.0000
  H   H303      1.0  0.43051  0.23698  0.03108  1.0000
  H   H304      1.0  0.59486  0.16382  0.48596  1.0000
  H   H305      1.0  0.36432  0.29014  0.01177  1.0000
  C   C314      1.0  0.42832  0.30260  0.00719  1.0000
  C   C315      1.0  0.66243  0.40680  0.33391  1.0000
  H   H306      1.0  0.35587  0.09958  0.26175  1.0000
  S   S98       1.0  0.66887  0.08580  0.05912  1.0000
  H   H307      1.0  0.45999  0.27395  0.01859  1.0000
  H   H308      1.0  0.40568  0.34873  0.00001  1.0000
  C   C316      1.0  0.39069  0.33354  0.99705  1.0000
  H   H309      1.0  0.66047  0.47775  0.44468  1.0000
  H   H310      1.0  0.34152  0.18392  0.32233  1.0000
  C   C317      1.0  0.34628  0.14051  0.27492  1.0000
  H   H311      1.0  0.46921  0.49612  0.01363  1.0000
  H   H312      1.0  0.37040  0.50394  0.19228  1.0000
  H   H313      1.0  0.39485  0.29722  0.48510  1.0000
  S   S99       1.0  0.46334  0.42429  0.91897  1.0000
  Fe  Fe46      1.0  0.36152  0.35431  0.61063  1.0000
  S   S100      1.0  0.37885  0.32270  0.65931  1.0000
  Fe  Fe47      1.0  0.41129  0.38512  0.61231  1.0000
  S   S101      1.0  0.43228  0.35578  0.65901  1.0000
  S   S102      1.0  0.43488  0.42032  0.59275  1.0000
  Fe  Fe48      1.0  0.41450  0.32531  0.61391  1.0000
  S   S103      1.0  0.44038  0.29121  0.58924  1.0000
  Fe  Fe49      1.0  0.39556  0.35547  0.70174  1.0000
  S   S104      1.0  0.39944  0.35066  0.78219  1.0000
  S   S105      1.0  0.39665  0.35477  0.56228  1.0000
  S   S106      1.0  0.37489  0.38708  0.65773  1.0000
  S   S107      1.0  0.59783  0.44513  0.52259  1.0000
  S   S108      1.0  0.62238  0.38475  0.52703  1.0000
  H   H314      1.0  0.53661  0.17928  0.59299  1.0000
  Fe  Fe50      1.0  0.58850  0.40731  0.55966  1.0000
  H   H315      1.0  0.38203  0.33488  0.96089  1.0000
  S   S109      1.0  0.61002  0.41676  0.62677  1.0000
  H   H316      1.0  0.60031  0.48968  0.78306  1.0000
  Fe  Fe51      1.0  0.44944  0.14108  0.61834  1.0000
  S   S110      1.0  0.48523  0.14926  0.57535  1.0000
  S   S111      1.0  0.42021  0.17232  0.64466  1.0000
  Fe  Fe52      1.0  0.46239  0.08144  0.62414  1.0000
  S   S112      1.0  0.49902  0.08552  0.58016  1.0000
  S   S113      1.0  0.44675  0.04230  0.65148  1.0000
  Fe  Fe53      1.0  0.50581  0.12085  0.62522  1.0000
  S   S114      1.0  0.54131  0.13311  0.66573  1.0000
  Fe  Fe54      1.0  0.47485  0.11376  0.53358  1.0000
  S   S115      1.0  0.47064  0.11514  0.67168  1.0000
  S   S116      1.0  0.43768  0.10698  0.57386  1.0000
  C   C318      1.0  0.48616  0.31670  0.67788  1.0000
  C   C319      1.0  0.62347  0.12944  0.60169  1.0000
  C   C320      1.0  0.60320  0.11684  0.57859  1.0000
  C   C321      1.0  0.57783  0.11729  0.59817  1.0000
  C   C322      1.0  0.57282  0.13029  0.64098  1.0000
  C   C323      1.0  0.59321  0.14232  0.66445  1.0000
  C   C324      1.0  0.61846  0.14182  0.64501  1.0000
  H   H317      1.0  0.60702  0.10698  0.54526  1.0000
  H   H318      1.0  0.56216  0.10783  0.58000  1.0000
  H   H319      1.0  0.58930  0.15243  0.69746  1.0000
  H   H320      1.0  0.63406  0.15081  0.66380  1.0000
  H   H321      1.0  0.62962  0.11328  0.73468  1.0000
  C   C325      1.0  0.39463  0.09835  0.67282  1.0000
  H   H322      1.0  0.44631  0.28805  0.69908  1.0000
  C   C326      1.0  0.43515  0.25864  0.60799  1.0000
  C   C327      1.0  0.41479  0.25230  0.63891  1.0000
  C   C328      1.0  0.41051  0.22579  0.65055  1.0000
  C   C329      1.0  0.42659  0.20555  0.63145  1.0000
  C   C330      1.0  0.44707  0.21211  0.60112  1.0000
  C   C331      1.0  0.45145  0.23848  0.58974  1.0000
  H   H323      1.0  0.40207  0.26769  0.65323  1.0000
  H   H324      1.0  0.39460  0.22094  0.67409  1.0000
  H   H325      1.0  0.45939  0.19689  0.58573  1.0000
  H   H326      1.0  0.46724  0.24320  0.56581  1.0000
  C   C332      1.0  0.46773  0.41062  0.58179  1.0000
  C   C333      1.0  0.47408  0.38468  0.56934  1.0000
  C   C334      1.0  0.50011  0.37691  0.56005  1.0000
  C   C335      1.0  0.52012  0.39483  0.56390  1.0000
  C   C336      1.0  0.51391  0.42086  0.57639  1.0000
  C   C337      1.0  0.48766  0.42880  0.58496  1.0000
  H   H327      1.0  0.45885  0.37063  0.56602  1.0000
  H   H328      1.0  0.39917  0.11742  0.65552  1.0000
  H   H329      1.0  0.52927  0.43479  0.57939  1.0000
  H   H330      1.0  0.48289  0.44888  0.59478  1.0000
  C   C338      1.0  0.44557  0.40363  0.88124  1.0000
  C   C339      1.0  0.43182  0.38248  0.89943  1.0000
  C   C340      1.0  0.41775  0.36655  0.86861  1.0000
  C   C341      1.0  0.41713  0.37164  0.81938  1.0000
  C   C342      1.0  0.43103  0.39269  0.80109  1.0000
  C   C343      1.0  0.44519  0.40857  0.83191  1.0000
  H   H331      1.0  0.43196  0.37847  0.93725  1.0000
  H   H332      1.0  0.40716  0.35026  0.88296  1.0000
  H   H333      1.0  0.43074  0.39680  0.76326  1.0000
  H   H334      1.0  0.45578  0.42487  0.81748  1.0000
  C   C344      1.0  0.57347  0.19775  0.60239  1.0000
  H   H335      1.0  0.64104  0.17337  0.51055  1.0000
  C   C345      1.0  0.47208  0.03317  0.73842  1.0000
  S   S117      1.0  0.62684  0.49494  0.61407  1.0000
  H   H336      1.0  0.48115  0.05183  0.73283  1.0000
  H   H337      1.0  0.43582  0.30630  0.74979  1.0000
  C   C346      1.0  0.45349  0.29800  0.73130  1.0000
  H   H338      1.0  0.45090  0.47985  0.88956  1.0000
  C   C347      1.0  0.42771  0.11409  0.78722  1.0000
  C   C348      1.0  0.42190  0.06732  0.78404  1.0000
  C   C349      1.0  0.56350  0.17045  0.53576  1.0000
  N   N29       1.0  0.60295  0.12871  0.86052  1.0000
  C   C350      1.0  0.60550  0.10319  0.84591  1.0000
  C   C351      1.0  0.61023  0.14878  0.83111  1.0000
  C   C352      1.0  0.61479  0.09729  0.80027  1.0000
  C   C353      1.0  0.61984  0.14356  0.78541  1.0000
  C   C354      1.0  0.62195  0.11763  0.76988  1.0000
  C   C355      1.0  0.59421  0.13435  0.90920  1.0000
  H   H339      1.0  0.37312  0.09743  0.67708  1.0000
  H   H340      1.0  0.61694  0.07704  0.78891  1.0000
  H   H341      1.0  0.62623  0.15943  0.76259  1.0000
  H   H342      1.0  0.55010  0.15800  0.51735  1.0000
  H   H343      1.0  0.44045  0.08659  0.84208  1.0000
  N   N30       1.0  0.47138  0.31880  0.71843  1.0000
  H   H344      1.0  0.57954  0.12016  0.92140  1.0000
  S   S118      1.0  0.65466  0.13039  0.57525  1.0000
  C   C356      1.0  0.47677  0.01863  0.78083  1.0000
  H   H345      1.0  0.60517  0.47193  0.70131  1.0000
  N   N31       1.0  0.39091  0.25951  0.51754  1.0000
  N   N32       1.0  0.40739  0.09529  0.71923  1.0000
  Fe  Fe55      1.0  0.63339  0.42301  0.49466  1.0000
  H   H346      1.0  0.40361  0.05368  0.72078  1.0000
  H   H347      1.0  0.46145  0.34190  0.77920  1.0000
  C   C357      1.0  0.50247  0.33694  0.66408  1.0000
  H   H348      1.0  0.46354  0.28323  0.75480  1.0000
  H   H349      1.0  0.51572  0.37542  0.68091  1.0000
  C   C358      1.0  0.35537  0.25549  0.57294  1.0000
  H   H350      1.0  0.65727  0.15469  0.92653  1.0000
  H   H351      1.0  0.48465  0.29977  0.65502  1.0000
  H   H352      1.0  0.65934  0.49736  0.85091  1.0000
  H   H353      1.0  0.56783  0.20666  0.63590  1.0000
  H   H354      1.0  0.35605  0.31711  0.52569  1.0000
  H   H355      1.0  0.65633  0.45031  0.66482  1.0000
  H   H356      1.0  0.58492  0.15435  0.91193  1.0000
  H   H357      1.0  0.51361  0.33560  0.63123  1.0000
  C   C359      1.0  0.41566  0.11686  0.74275  1.0000
  C   C360      1.0  0.55587  0.18248  0.57815  1.0000
  C   C361      1.0  0.48918  0.36090  0.73419  1.0000
  H   H358      1.0  0.50474  0.35686  0.54971  1.0000
  H   H359      1.0  0.63546  0.49585  0.51297  1.0000
  C   C362      1.0  0.43091  0.08911  0.80784  1.0000
  H   H360      1.0  0.40164  0.08250  0.64843  1.0000
  H   H361      1.0  0.48977  0.37829  0.75612  1.0000
  Fe  Fe56      1.0  0.62219  0.45311  0.58740  1.0000
  H   H362      1.0  0.43468  0.13118  0.80531  1.0000
  S   S119      1.0  0.55240  0.38343  0.55261  1.0000
  H   H363      1.0  0.60931  0.16892  0.84331  1.0000
  H   H364      1.0  0.60097  0.08721  0.87004  1.0000
  H   H365      1.0  0.38282  0.22415  0.55552  1.0000
  S   S120      1.0  0.65843  0.09714  0.92003  1.0000
  C   C363      1.0  0.47321  0.34022  0.74712  1.0000
  H   H366      1.0  0.44523  0.45527  0.51879  1.0000
  C   C364      1.0  0.44738  0.47569  0.50865  1.0000
  C   C365      1.0  0.45520  0.02382  0.70389  1.0000
  C   C366      1.0  0.41006  0.07081  0.73955  1.0000
  C   C367      1.0  0.58885  0.17373  0.51836  1.0000
  H   H367      1.0  0.61119  0.13288  0.93370  1.0000
  H   H368      1.0  0.48952  0.02631  0.80755  1.0000
  H   H369      1.0  0.41340  0.13634  0.72678  1.0000
  H   H370      1.0  0.64556  0.45103  0.85247  1.0000
  C   C368      1.0  0.37694  0.24452  0.54855  1.0000
  C   C369      1.0  0.50372  0.35929  0.69214  1.0000
  H   H371      1.0  0.64926  0.42434  0.77942  1.0000
  H   H372      1.0  0.42456  0.04774  0.79940  1.0000
  Fe  Fe57      1.0  0.64471  0.39694  0.59095  1.0000
  H   H373      1.0  0.64567  0.20033  0.54933  1.0000
  C   C370      1.0  0.59859  0.20082  0.58376  1.0000
  C   C371      1.0  0.66178  0.48519  0.81956  1.0000
  C   C372      1.0  0.61089  0.49172  0.70871  1.0000
  H   H374      1.0  0.33772  0.37362  0.49852  1.0000
  N   N33       1.0  0.60603  0.18868  0.54243  1.0000
  C   C373      1.0  0.36189  0.29670  0.53241  1.0000
  H   H375      1.0  0.61219  0.21268  0.60286  1.0000
  C   C374      1.0  0.34781  0.28174  0.56466  1.0000
  H   H376      1.0  0.34474  0.24377  0.59840  1.0000
  S   S121      1.0  0.65861  0.43391  0.55615  1.0000
  H   H377      1.0  0.40973  0.47377  0.57577  1.0000
  C   C375      1.0  0.65580  0.44437  0.77872  1.0000
  C   C376      1.0  0.66743  0.33096  0.56771  1.0000
  H   H378      1.0  0.41932  0.22815  0.50609  1.0000
  C   C377      1.0  0.63217  0.19245  0.52256  1.0000
  C   C378      1.0  0.65377  0.45928  0.82022  1.0000
  H   H379      1.0  0.43942  0.47978  0.60731  1.0000
  H   H380      1.0  0.65820  0.42007  0.69819  1.0000
  C   C379      1.0  0.38365  0.28528  0.50932  1.0000
  C   C380      1.0  0.41345  0.24797  0.49193  1.0000
  N   N34       1.0  0.66542  0.45508  0.73767  1.0000
  C   C381      1.0  0.42482  0.48856  0.58200  1.0000
  N   N35       1.0  0.43772  0.49540  0.53716  1.0000
  H   H381      1.0  0.63099  0.20648  0.49211  1.0000
  H   H382      1.0  0.43062  0.26058  0.49590  1.0000
  C   C382      1.0  0.66889  0.30486  0.55222  1.0000
  C   C383      1.0  0.60806  0.50187  0.75501  1.0000
  S   S122      1.0  0.66640  0.19299  0.65016  1.0000
  C   C384      1.0  0.66533  0.14912  0.89240  1.0000
  C   C385      1.0  0.66820  0.12253  0.88062  1.0000
  C   C386      1.0  0.45120  0.50060  0.89829  1.0000
  H   H383      1.0  0.66157  0.34644  0.54318  1.0000
  H   H384      1.0  0.66354  0.30046  0.51606  1.0000
  C   C387      1.0  0.66700  0.43965  0.69394  1.0000
  H   H385      1.0  0.48651  0.47891  0.96645  1.0000
  H   H386      1.0  0.45282  0.47237  0.97919  1.0000
  C   C388      1.0  0.46737  0.48804  0.97723  1.0000
  Fe  Fe58      1.0  0.46195  0.57523  0.35429  1.0000
  S   S123      1.0  0.48898  0.58518  0.41422  1.0000
  S   S124      1.0  0.46934  0.53382  0.32552  1.0000
  Fe  Fe59      1.0  0.43311  0.62896  0.35990  1.0000
  S   S125      1.0  0.45807  0.64236  0.41982  1.0000
  S   S126      1.0  0.40281  0.65636  0.32418  1.0000
  Fe  Fe60      1.0  0.49143  0.62440  0.37826  1.0000
  S   S127      1.0  0.52557  0.65023  0.36486  1.0000
  C   C389      1.0  0.64138  0.62219  0.11775  1.0000
  S   S128      1.0  0.46704  0.61360  0.31581  1.0000
  S   S129      1.0  0.42569  0.58941  0.39361  1.0000
  Fe  Fe61      1.0  0.39914  0.81188  0.34763  1.0000
  S   S130      1.0  0.39250  0.84350  0.40228  1.0000
  S   S131      1.0  0.41896  0.77489  0.37723  1.0000
  Fe  Fe62      1.0  0.38035  0.84711  0.26535  1.0000
  S   S132      1.0  0.37147  0.88078  0.31441  1.0000
  S   S133      1.0  0.37221  0.85309  0.18606  1.0000
  Fe  Fe63      1.0  0.41040  0.86980  0.34741  1.0000
  S   S134      1.0  0.43977  0.90118  0.36138  1.0000
  Fe  Fe64      1.0  0.35416  0.85133  0.36512  1.0000
  S   S135      1.0  0.42007  0.83771  0.29567  1.0000
  S   S136      1.0  0.35980  0.81816  0.31293  1.0000
  S   S137      1.0  0.45687  0.89786  0.04252  1.0000
  C   C390      1.0  0.64451  0.55222  0.45284  1.0000
  Fe  Fe65      1.0  0.59369  0.88918  0.36703  1.0000
  S   S138      1.0  0.62362  0.89926  0.31152  1.0000
  S   S139      1.0  0.55921  0.86448  0.34997  1.0000
  H   H387      1.0  0.38472  0.70480  0.27795  1.0000
  S   S140      1.0  0.59669  0.92706  0.40670  1.0000
  S   S141      1.0  0.62226  0.86715  0.41449  1.0000
  H   H388      1.0  0.62351  0.61345  0.12958  1.0000
  C   C391      1.0  0.52454  0.56767  0.27490  1.0000
  C   C392      1.0  0.39931  0.92256  0.20450  1.0000
  C   C393      1.0  0.39652  0.86274  0.14467  1.0000
  C   C394      1.0  0.38911  0.87032  0.09820  1.0000
  C   C395      1.0  0.40761  0.87974  0.06541  1.0000
  C   C396      1.0  0.43380  0.88159  0.07877  1.0000
  C   C397      1.0  0.44138  0.87299  0.12457  1.0000
  C   C398      1.0  0.42288  0.86374  0.15740  1.0000
  H   H389      1.0  0.36880  0.86956  0.08789  1.0000
  H   H390      1.0  0.40143  0.88648  0.03047  1.0000
  H   H391      1.0  0.46159  0.87415  0.13522  1.0000
  H   H392      1.0  0.42896  0.85780  0.19280  1.0000
  C   C399      1.0  0.47298  0.89131  0.35560  1.0000
  C   C400      1.0  0.48035  0.86476  0.35140  1.0000
  C   C401      1.0  0.50688  0.85705  0.34854  1.0000
  C   C402      1.0  0.52630  0.87573  0.35059  1.0000
  C   C403      1.0  0.51904  0.90237  0.35467  1.0000
  C   C404      1.0  0.49237  0.91015  0.35685  1.0000
  H   H393      1.0  0.46565  0.85005  0.35126  1.0000
  H   H394      1.0  0.51241  0.83641  0.34556  1.0000
  H   H395      1.0  0.53394  0.91690  0.35626  1.0000
  H   H396      1.0  0.48676  0.93075  0.35995  1.0000
  H   H397      1.0  0.48479  0.95049  0.16817  1.0000
  S   S142      1.0  0.64344  0.73545  0.33166  1.0000
  C   C405      1.0  0.54994  0.60741  0.26727  1.0000
  S   S143      1.0  0.65601  0.66578  0.28485  1.0000
  S   S144      1.0  0.62487  0.60948  0.02808  1.0000
  C   C406      1.0  0.55810  0.63858  0.37280  1.0000
  C   C407      1.0  0.56447  0.61204  0.38220  1.0000
  C   C408      1.0  0.59090  0.60325  0.38358  1.0000
  C   C409      1.0  0.61091  0.62100  0.37579  1.0000
  C   C410      1.0  0.60441  0.64758  0.36800  1.0000
  C   C411      1.0  0.57814  0.65629  0.36628  1.0000
  H   H398      1.0  0.54910  0.59825  0.38730  1.0000
  H   H399      1.0  0.59581  0.58266  0.38971  1.0000
  H   H400      1.0  0.61963  0.66155  0.36324  1.0000
  H   H401      1.0  0.57337  0.67686  0.35936  1.0000
  C   C412      1.0  0.40346  0.68958  0.34164  1.0000
  C   C413      1.0  0.41470  0.69621  0.38482  1.0000
  C   C414      1.0  0.41811  0.72258  0.39609  1.0000
  C   C415      1.0  0.40963  0.74271  0.36493  1.0000
  C   C416      1.0  0.39670  0.73633  0.32298  1.0000
  C   C417      1.0  0.39370  0.70972  0.31129  1.0000
  H   H402      1.0  0.42070  0.68108  0.40983  1.0000
  H   H403      1.0  0.42768  0.72740  0.42897  1.0000
  H   H404      1.0  0.39015  0.75180  0.29869  1.0000
  H   H405      1.0  0.39049  0.93469  0.13246  1.0000
  S   S145      1.0  0.66035  0.91709  0.40131  1.0000
  Fe  Fe66      1.0  0.65231  0.87995  0.36224  1.0000
  H   H406      1.0  0.57199  0.54446  0.26514  1.0000
  Fe  Fe67      1.0  0.62893  0.93589  0.35413  1.0000
  C   C418      1.0  0.62339  0.71656  0.20658  1.0000
  H   H407      1.0  0.40270  0.50871  0.21539  1.0000
  H   H408      1.0  0.60906  0.72658  0.18235  1.0000
  H   H409      1.0  0.57396  0.64142  0.26314  1.0000
  H   H410      1.0  0.34672  0.67116  0.34168  1.0000
  H   H411      1.0  0.34743  0.66852  0.25415  1.0000
  C   C419      1.0  0.64713  0.62312  0.06876  1.0000
  H   H412      1.0  0.65413  0.63102  0.18900  1.0000
  C   C420      1.0  0.45544  0.53868  0.23005  1.0000
  H   H413      1.0  0.44422  0.54124  0.15612  1.0000
  H   H414      1.0  0.63250  0.83068  0.33925  1.0000
  S   S146      1.0  0.63680  0.97721  0.32481  1.0000
  H   H415      1.0  0.43685  0.93982  0.11043  1.0000
  C   C421      1.0  0.41915  0.91737  0.23752  1.0000
  Fe  Fe68      1.0  0.62789  0.90542  0.45032  1.0000
  H   H416      1.0  0.61707  0.78533  0.33858  1.0000
  H   H417      1.0  0.48162  0.92383  0.12666  1.0000
  H   H418      1.0  0.62317  0.69501  0.20060  1.0000
  C   C422      1.0  0.57362  0.62013  0.26230  1.0000
  N   N36       1.0  0.54946  0.58055  0.26765  1.0000
  C   C423      1.0  0.46484  0.52227  0.26684  1.0000
  H   H419      1.0  0.37908  0.91952  0.21414  1.0000
  C   C424      1.0  0.43198  0.93389  0.14651  1.0000
  H   H420      1.0  0.46890  0.90532  0.45872  1.0000
  H   H421      1.0  0.60721  0.98356  0.15717  1.0000
  Fe  Fe69      1.0  0.45304  0.60222  0.45088  1.0000
  H   H422      1.0  0.45080  0.55919  0.23695  1.0000
  C   C425      1.0  0.40570  0.93109  0.15876  1.0000
  C   C426      1.0  0.45176  0.52844  0.18422  1.0000
  N   N37       1.0  0.47880  0.71687  0.34970  1.0000
  C   C427      1.0  0.47354  0.74209  0.33431  1.0000
  C   C428      1.0  0.47221  0.69606  0.32237  1.0000
  C   C429      1.0  0.46072  0.74697  0.29109  1.0000
  C   C430      1.0  0.45921  0.70020  0.27913  1.0000
  C   C431      1.0  0.45340  0.72585  0.26351  1.0000
  C   C432      1.0  0.49235  0.71203  0.39497  1.0000
  H   H423      1.0  0.47825  0.75866  0.35629  1.0000
  H   H424      1.0  0.47642  0.67609  0.33451  1.0000
  H   H425      1.0  0.45546  0.76701  0.28032  1.0000
  C   C433      1.0  0.61905  0.98055  0.23082  1.0000
  H   H426      1.0  0.44260  0.72937  0.23081  1.0000
  H   H427      1.0  0.48897  0.72865  0.41980  1.0000
  H   H428      1.0  0.48506  0.69418  0.41298  1.0000
  H   H429      1.0  0.51367  0.70893  0.38849  1.0000
  C   C434      1.0  0.64656  0.81441  0.33662  1.0000
  H   H430      1.0  0.41443  0.91091  0.27324  1.0000
  C   C435      1.0  0.51503  0.88326  0.46666  1.0000
  C   C436      1.0  0.61594  0.99364  0.18650  1.0000
  H   H431      1.0  0.52518  0.54726  0.26111  1.0000
  C   C437      1.0  0.59629  0.57786  0.25933  1.0000
  H   H432      1.0  0.65636  0.77473  0.44888  1.0000
  H   H433      1.0  0.50837  0.57844  0.25587  1.0000
  H   H434      1.0  0.46048  0.91555  0.24992  1.0000
  H   H435      1.0  0.66621  0.82069  0.43967  1.0000
  C   C438      1.0  0.63781  0.78866  0.33589  1.0000
  H   H436      1.0  0.49187  0.91672  0.18620  1.0000
  H   H437      1.0  0.61286  0.96057  0.23524  1.0000
  C   C439      1.0  0.47879  0.92988  0.16435  1.0000
  H   H438      1.0  0.61439  0.56616  0.25678  1.0000
  N   N38       1.0  0.45136  0.92770  0.17859  1.0000
  C   C440      1.0  0.44524  0.92006  0.22398  1.0000
  C   C441      1.0  0.63036  0.99328  0.26909  1.0000
  H   H439      1.0  0.46660  0.54034  0.98793  1.0000
  C   C442      1.0  0.65870  0.63215  0.15151  1.0000
  H   H440      1.0  0.45295  0.68358  0.25876  1.0000
  C   C443      1.0  0.46298  0.50772  0.45255  1.0000
  H   H441      1.0  0.48196  0.93727  0.45237  1.0000
  S   S147      1.0  0.64388  0.60976  0.37371  1.0000
  H   H442      1.0  0.51970  0.56690  0.31343  1.0000
  H   H443      1.0  0.61551  0.61484  0.25606  1.0000
  C   C444      1.0  0.57226  0.56576  0.26408  1.0000
  C   C445      1.0  0.66438  0.51556  0.41067  1.0000
  H   H444      1.0  0.53204  0.61920  0.27204  1.0000
  C   C446      1.0  0.59693  0.60523  0.25853  1.0000
  H   H445      1.0  0.47280  0.51258  0.41953  1.0000
  H   H446      1.0  0.61723  0.71988  0.24409  1.0000
  C   C447      1.0  0.54066  0.87293  0.47050  1.0000
  C   C448      1.0  0.65564  0.76730  0.33187  1.0000
  H   H447      1.0  0.54563  0.85333  0.45768  1.0000
  H   H448      1.0  0.64041  0.57326  0.45506  1.0000
  H   H449      1.0  0.64068  0.76236  0.23532  1.0000
  C   C449      1.0  0.65872  0.54251  0.41381  1.0000
  H   H450      1.0  0.33637  0.83221  0.48101  1.0000
  H   H451      1.0  0.45526  0.54810  0.47181  1.0000
  N   N39       1.0  0.64948  0.72675  0.19840  1.0000
  H   H452      1.0  0.66295  0.69362  0.15817  1.0000
  C   C450      1.0  0.48216  0.91941  0.47547  1.0000
  H   H453      1.0  0.50022  0.87120  0.45136  1.0000
  C   C451      1.0  0.45315  0.52768  0.48187  1.0000
  N   N40       1.0  0.50896  0.90848  0.48034  1.0000
  H   H454      1.0  0.66535  0.55591  0.38634  1.0000
  H   H455      1.0  0.66402  0.92272  0.19877  1.0000
  C   C452      1.0  0.65522  0.75093  0.21544  1.0000
  H   H456      1.0  0.39806  0.50730  0.15252  1.0000
  C   C453      1.0  0.66762  0.71255  0.17262  1.0000
  C   C454      1.0  0.64178  0.50908  0.48506  1.0000
  S   S148      1.0  0.44753  0.59367  0.52995  1.0000
  Fe  Fe70      1.0  0.40650  0.70889  0.81878  1.0000
  S   S149      1.0  0.39467  0.68436  0.88171  1.0000
  S   S150      1.0  0.43439  0.74206  0.82457  1.0000
  Fe  Fe71      1.0  0.38386  0.67172  0.74585  1.0000
  S   S151      1.0  0.36968  0.64414  0.80258  1.0000
  S   S152      1.0  0.37951  0.66927  0.66555  1.0000
  Fe  Fe72      1.0  0.35650  0.68051  0.84291  1.0000
  Fe  Fe73      1.0  0.40870  0.65016  0.83721  1.0000
  S   S153      1.0  0.43679  0.61766  0.86197  1.0000
  S   S154      1.0  0.36758  0.70785  0.78281  1.0000
  S   S155      1.0  0.42340  0.67492  0.77762  1.0000
  H   H457      1.0  0.47410  0.70258  0.79668  1.0000
  S   S156      1.0  0.42763  0.92125  0.91171  1.0000
  Fe  Fe74      1.0  0.49196  0.88252  0.87835  1.0000
  S   S157      1.0  0.46520  0.90021  0.82244  1.0000
  S   S158      1.0  0.52708  0.85718  0.85619  1.0000
  Fe  Fe75      1.0  0.46234  0.93559  0.86971  1.0000
  S   S159      1.0  0.47089  0.97753  0.84427  1.0000
  Fe  Fe76      1.0  0.43286  0.88452  0.86780  1.0000
  S   S160      1.0  0.39899  0.86176  0.83971  1.0000
  S   S161      1.0  0.49128  0.91845  0.92339  1.0000
  S   S162      1.0  0.45985  0.86377  0.91963  1.0000
  Fe  Fe77      1.0  0.58737  0.63167  0.86792  1.0000
  S   S163      1.0  0.61327  0.61667  0.80891  1.0000
  S   S164      1.0  0.55210  0.65862  0.85320  1.0000
  S   S165      1.0  0.61976  0.64993  0.90809  1.0000
  S   S166      1.0  0.59002  0.59410  0.91001  1.0000
  H   H458      1.0  0.43841  0.59281  0.63088  1.0000
  S   S167      1.0  0.64422  0.89388  0.86364  1.0000
  Fe  Fe78      1.0  0.62471  0.61128  0.94657  1.0000
  C   C455      1.0  0.45998  0.53429  0.95324  1.0000
  H   H459      1.0  0.52089  0.89616  0.76844  1.0000
  Fe  Fe79      1.0  0.64611  0.63203  0.85243  1.0000
  H   H460      1.0  0.58707  0.74548  0.92120  1.0000
  C   C456      1.0  0.57045  0.93695  0.78193  1.0000
  C   C457      1.0  0.40720  0.80636  0.94336  1.0000
  C   C458      1.0  0.44852  0.98481  0.75422  1.0000
  H   H461      1.0  0.35719  0.85408  0.74121  1.0000
  H   H462      1.0  0.43918  0.96632  0.76004  1.0000
  C   C459      1.0  0.56094  0.88673  0.75072  1.0000
  C   C460      1.0  0.55949  0.86718  0.86322  1.0000
  C   C461      1.0  0.56525  0.89208  0.88008  1.0000
  C   C462      1.0  0.59138  0.89994  0.88122  1.0000
  C   C463      1.0  0.61181  0.88294  0.86568  1.0000
  C   C464      1.0  0.60599  0.85782  0.85024  1.0000
  C   C465      1.0  0.57997  0.85004  0.84876  1.0000
  H   H463      1.0  0.54960  0.90540  0.89153  1.0000
  H   H464      1.0  0.59570  0.91936  0.89357  1.0000
  H   H465      1.0  0.62146  0.84446  0.83883  1.0000
  H   H466      1.0  0.57561  0.83083  0.83549  1.0000
  H   H467      1.0  0.51239  0.65996  0.76392  1.0000
  C   C466      1.0  0.42369  0.77528  0.82153  1.0000
  C   C467      1.0  0.44250  0.79452  0.82413  1.0000
  C   C468      1.0  0.43492  0.82113  0.82800  1.0000
  C   C469      1.0  0.40844  0.82876  0.82892  1.0000
  C   C470      1.0  0.38952  0.80968  0.82388  1.0000
  C   C471      1.0  0.39713  0.78289  0.82041  1.0000
  H   H468      1.0  0.46308  0.78880  0.82449  1.0000
  H   H469      1.0  0.44967  0.83573  0.83066  1.0000
  H   H470      1.0  0.36898  0.81548  0.82441  1.0000
  H   H471      1.0  0.38251  0.76813  0.81826  1.0000
  C   C472      1.0  0.46907  0.62862  0.86290  1.0000
  C   C473      1.0  0.47360  0.65552  0.86404  1.0000
  C   C474      1.0  0.49926  0.66432  0.86310  1.0000
  C   C475      1.0  0.52059  0.64636  0.86052  1.0000
  C   C476      1.0  0.51619  0.61939  0.86030  1.0000
  C   C477      1.0  0.49043  0.61053  0.86164  1.0000
  H   H472      1.0  0.45731  0.66959  0.86603  1.0000
  H   H473      1.0  0.50260  0.68516  0.86420  1.0000
  H   H474      1.0  0.53257  0.60541  0.85808  1.0000
  H   H475      1.0  0.48712  0.58970  0.86055  1.0000
  C   C478      1.0  0.42871  0.61501  0.56723  1.0000
  C   C479      1.0  0.41472  0.63695  0.54897  1.0000
  C   C480      1.0  0.39971  0.65329  0.57954  1.0000
  C   C481      1.0  0.39888  0.64818  0.62874  1.0000
  C   C482      1.0  0.41315  0.62644  0.64714  1.0000
  C   C483      1.0  0.42775  0.60979  0.61641  1.0000
  H   H476      1.0  0.41519  0.64118  0.51121  1.0000
  H   H477      1.0  0.38871  0.67003  0.56496  1.0000
  H   H478      1.0  0.41259  0.62222  0.68492  1.0000
  C   C484      1.0  0.49881  0.66309  0.73466  1.0000
  H   H479      1.0  0.62691  0.78130  0.91375  1.0000
  H   H480      1.0  0.62901  0.90069  0.63329  1.0000
  H   H481      1.0  0.50716  0.62458  0.70567  1.0000
  H   H482      1.0  0.50517  0.94140  0.78120  1.0000
  H   H483      1.0  0.62608  0.79446  0.85456  1.0000
  C   C485      1.0  0.61523  0.78228  0.88046  1.0000
  C   C486      1.0  0.59646  0.73899  0.88856  1.0000
  S   S168      1.0  0.61482  0.53799  0.82571  1.0000
  H   H484      1.0  0.45735  0.80156  0.92541  1.0000
  C   C487      1.0  0.47835  0.64667  0.66427  1.0000
  H   H485      1.0  0.34325  0.87291  0.81801  1.0000
  H   H486      1.0  0.65975  0.87661  0.68818  1.0000
  C   C488      1.0  0.58649  0.89542  0.75073  1.0000
  H   H487      1.0  0.55703  0.86677  0.74052  1.0000
  H   H488      1.0  0.57443  0.95629  0.79529  1.0000
  N   N41       1.0  0.61161  0.75564  0.86292  1.0000
  N   N42       1.0  0.54540  0.92839  0.78117  1.0000
  H   H489      1.0  0.34227  0.67676  0.96309  1.0000
  C   C489      1.0  0.55363  0.91396  0.50356  1.0000
  C   C490      1.0  0.36684  0.78348  0.93788  1.0000
  H   H490      1.0  0.41966  0.74154  0.93048  1.0000
  C   C491      1.0  0.37986  0.80693  0.94277  1.0000
  H   H491      1.0  0.41499  0.50591  0.59887  1.0000
  C   C492      1.0  0.46360  0.67018  0.66048  1.0000
  H   H492      1.0  0.63671  0.76009  0.80282  1.0000
  C   C493      1.0  0.46689  0.68985  0.69408  1.0000
  C   C494      1.0  0.66277  0.87562  0.65016  1.0000
  H   H493      1.0  0.63146  0.71463  0.77483  1.0000
  H   H494      1.0  0.45475  0.70775  0.69173  1.0000
  C   C495      1.0  0.62104  0.72156  0.80619  1.0000
  H   H495      1.0  0.63163  0.56273  0.73665  1.0000
  H   H496      1.0  0.50760  0.70721  0.77928  1.0000
  C   C496      1.0  0.59309  0.71326  0.87340  1.0000
  S   S169      1.0  0.65355  0.59407  0.89325  1.0000
  H   H497      1.0  0.43038  0.99210  0.68580  1.0000
  H   H498      1.0  0.47589  0.63123  0.63850  1.0000
  N   N43       1.0  0.42118  0.78311  0.93865  1.0000
  C   C497      1.0  0.44399  0.54606  0.87494  1.0000
  H   H499      1.0  0.44931  0.67295  0.63221  1.0000
  H   H500      1.0  0.63655  0.54505  0.65498  1.0000
  C   C498      1.0  0.61563  0.52749  0.76560  1.0000
  H   H501      1.0  0.59604  0.79243  0.88748  1.0000
  H   H502      1.0  0.52755  0.96646  0.79344  1.0000
  H   H503      1.0  0.48157  0.72651  0.75179  1.0000
  C   C499      1.0  0.62560  0.54306  0.72902  1.0000
  N   N44       1.0  0.48460  0.68627  0.73019  1.0000
  C   C500      1.0  0.62390  0.74724  0.82224  1.0000
  H   H504      1.0  0.45682  0.77995  0.97687  1.0000
  C   C501      1.0  0.64901  0.88837  0.56932  1.0000
  H   H505      1.0  0.58122  0.69998  0.89397  1.0000
  H   H506      1.0  0.43804  0.56093  0.84876  1.0000
  C   C502      1.0  0.49595  0.64298  0.70176  1.0000
  C   C503      1.0  0.52786  0.92382  0.49858  1.0000
  H   H507      1.0  0.60263  0.88235  0.73998  1.0000
  H   H508      1.0  0.47398  0.92463  0.51089  1.0000
  H   H509      1.0  0.43332  0.53697  0.54710  1.0000
  C   C504      1.0  0.60547  0.70453  0.83194  1.0000
  C   C505      1.0  0.64535  0.88925  0.61893  1.0000
  S   S170      1.0  0.66729  0.83124  0.79020  1.0000
  C   C506      1.0  0.59135  0.92065  0.76655  1.0000
  Fe  Fe80      1.0  0.45679  0.90103  0.96118  1.0000
  C   C507      1.0  0.52391  0.94527  0.79934  1.0000
  C   C508      1.0  0.48717  0.70666  0.76611  1.0000
  H   H510      1.0  0.52131  0.94175  0.83809  1.0000
  C   C509      1.0  0.62845  0.53291  0.68273  1.0000
  C   C510      1.0  0.45234  0.55360  0.91979  1.0000
  Fe  Fe81      1.0  0.61846  0.57994  0.85335  1.0000
  S   S171      1.0  0.62661  0.90615  0.53150  1.0000
  C   C511      1.0  0.54053  0.90350  0.76654  1.0000
  C   C512      1.0  0.44354  0.99953  0.71210  1.0000
  C   C513      1.0  0.44983  0.78283  0.93980  1.0000
  C   C514      1.0  0.38124  0.75980  0.93388  1.0000
  C   C515      1.0  0.44064  0.52118  0.52446  1.0000
  H   H511      1.0  0.60333  0.68444  0.82030  1.0000
  H   H512      1.0  0.61128  0.92717  0.76833  1.0000
  H   H513      1.0  0.56876  0.92613  0.51765  1.0000
  H   H514      1.0  0.63524  0.54714  0.55962  1.0000
  C   C516      1.0  0.46500  0.99439  0.78913  1.0000
  H   H515      1.0  0.60572  0.53274  0.53936  1.0000
  C   C517      1.0  0.62171  0.54590  0.52893  1.0000
  C   C518      1.0  0.44345  0.51940  0.86398  1.0000
  C   C519      1.0  0.40858  0.75997  0.93462  1.0000
  H   H516      1.0  0.58001  0.88068  0.49224  1.0000
  H   H517      1.0  0.45292  0.57434  0.92837  1.0000
  H   H518      1.0  0.34564  0.78364  0.93677  1.0000
  H   H519      1.0  0.37133  0.74147  0.92950  1.0000
  H   H520      1.0  0.34882  0.84501  0.66054  1.0000
  N   N45       1.0  0.63599  0.53549  0.48754  1.0000
  H   H521      1.0  0.66521  0.68010  0.90283  1.0000
  H   H522      1.0  0.52312  0.94388  0.50909  1.0000
  H   H523      1.0  0.61267  0.56570  0.52158  1.0000
  H   H524      1.0  0.45828  0.76687  0.91708  1.0000
  C   C520      1.0  0.62137  0.50713  0.67240  1.0000
  H   H525      1.0  0.41714  0.82475  0.94644  1.0000
  H   H526      1.0  0.66729  0.72618  0.92858  1.0000
  H   H527      1.0  0.36895  0.82555  0.94519  1.0000
  C   C521      1.0  0.56000  0.88837  0.48930  1.0000
  C   C522      1.0  0.33683  0.86030  0.74602  1.0000
  N   N46       1.0  0.45908  0.50819  0.94235  1.0000
  H   H528      1.0  0.43711  0.51333  0.82913  1.0000
  Fe  Fe82      1.0  0.95815  0.45055  0.37315  1.0000
  H   H529      1.0  0.71483  0.25336  0.47707  1.0000
  H   H530      1.0  0.97760  0.34808  0.98801  1.0000
  Fe  Fe83      1.0  0.92863  0.39969  0.37729  1.0000
  S   S172      1.0  0.95432  0.38178  0.43379  1.0000
  S   S173      1.0  0.89638  0.37375  0.35316  1.0000
  C   C523      1.0  0.70553  0.18281  0.00205  1.0000
  Fe  Fe84      1.0  0.98722  0.39807  0.39152  1.0000
  S   S174      1.0  0.92279  0.43834  0.41531  1.0000
  S   S175      1.0  0.96183  0.41306  0.33131  1.0000
  S   S176      1.0  0.97684  0.09799  0.04892  1.0000
  Fe  Fe85      1.0  0.91788  0.22052  0.32124  1.0000
  S   S177      1.0  0.90667  0.19930  0.38841  1.0000
  S   S178      1.0  0.94138  0.25739  0.32281  1.0000
  Fe  Fe86      1.0  0.90038  0.17636  0.25589  1.0000
  S   S179      1.0  0.88726  0.15195  0.31826  1.0000
  S   S180      1.0  0.89580  0.16433  0.17810  1.0000
  Fe  Fe87      1.0  0.87003  0.18948  0.34932  1.0000
  S   S181      1.0  0.82799  0.19317  0.37826  1.0000
  Fe  Fe88      1.0  0.92469  0.16380  0.35251  1.0000
  S   S182      1.0  0.95135  0.13416  0.39020  1.0000
  S   S183      1.0  0.88013  0.21333  0.28380  1.0000
  S   S184      1.0  0.93881  0.18551  0.28827  1.0000
  Fe  Fe89      1.0  0.73221  0.33804  0.12139  1.0000
  S   S185      1.0  0.72266  0.30681  0.17582  1.0000
  S   S186      1.0  0.77504  0.34049  0.09858  1.0000
  H   H531      1.0  0.75905  0.36389  0.25430  1.0000
  Fe  Fe90      1.0  0.70215  0.33970  0.21598  1.0000
  S   S187      1.0  0.70629  0.34177  0.29641  1.0000
  C   C524      1.0  0.95204  0.29469  0.44717  1.0000
  C   C525      1.0  0.97694  0.30015  0.43034  1.0000
  S   S188      1.0  0.71386  0.37114  0.16443  1.0000
  S   S189      1.0  0.69585  0.33231  0.07852  1.0000
  C   C526      1.0  0.80654  0.11668  0.47259  1.0000
  S   S190      1.0  0.69269  0.14905  0.12523  1.0000
  C   C527      1.0  0.83048  0.12359  0.39973  1.0000
  H   H532      1.0  0.76521  0.34852  0.19846  1.0000
  H   H533      1.0  0.80218  0.12102  0.30398  1.0000
  C   C528      1.0  0.97953  0.01053  0.06295  1.0000
  C   C529      1.0  0.69505  0.22859  0.13426  1.0000
  Fe  Fe91      1.0  0.68499  0.30359  0.13585  1.0000
  C   C530      1.0  0.94752  0.50158  0.20465  1.0000
  C   C531      1.0  0.98853  0.10184  0.29929  1.0000
  C   C532      1.0  0.99138  0.31922  0.45291  1.0000
  H   H534      1.0  0.77490  0.26345  0.43866  1.0000
  C   C533      1.0  0.78335  0.12312  0.44854  1.0000
  H   H535      1.0  0.76447  0.32869  0.25200  1.0000
  C   C534      1.0  0.77237  0.33580  0.99998  1.0000
  C   C535      1.0  0.83170  0.18034  0.47480  1.0000
  C   C536      1.0  0.68339  0.18269  0.12766  1.0000
  C   C537      1.0  0.67369  0.38293  0.40621  1.0000
  C   C538      1.0  0.90519  0.20492  0.07008  1.0000
  Fe  Fe92      1.0  0.67656  0.36243  0.12628  1.0000
  H   H536      1.0  0.99873  0.10767  0.42360  1.0000
  H   H537      1.0  0.94008  0.19724  0.11060  1.0000
  H   H538      1.0  0.73129  0.27957  0.44676  1.0000
  H   H539      1.0  0.67274  0.38088  0.44450  1.0000
  C   C539      1.0  0.68799  0.36420  0.37913  1.0000
  C   C540      1.0  0.81554  0.18768  0.43653  1.0000
  C   C541      1.0  0.77516  0.25784  0.47597  1.0000
  C   C542      1.0  0.81531  0.34085  0.03341  1.0000
  H   H540      1.0  0.67728  0.38989  0.26847  1.0000
  H   H541      1.0  0.77567  0.19605  0.41495  1.0000
  C   C543      1.0  0.98376  0.14447  0.39418  1.0000
  C   C544      1.0  0.95374  0.11568  0.08493  1.0000
  C   C545      1.0  0.92937  0.12441  0.06732  1.0000
  C   C546      1.0  0.91160  0.13847  0.09685  1.0000
  C   C547      1.0  0.91813  0.14455  0.14397  1.0000
  C   C548      1.0  0.94251  0.13581  0.16161  1.0000
  C   C549      1.0  0.96009  0.12126  0.13235  1.0000
  H   H542      1.0  0.92410  0.12016  0.03106  1.0000
  H   H543      1.0  0.89278  0.14503  0.08285  1.0000
  H   H544      1.0  0.94785  0.14036  0.19771  1.0000
  H   H545      1.0  0.97888  0.11459  0.14635  1.0000
  C   C550      1.0  0.66947  0.23666  0.12214  1.0000
  C   C551      1.0  0.78815  0.33893  0.03992  1.0000
  C   C552      1.0  0.78837  0.19029  0.44424  1.0000
  H   H546      1.0  0.82771  0.34331  0.06398  1.0000
  H   H547      1.0  0.97502  0.18331  0.36623  1.0000
  C   C553      1.0  0.90834  0.34127  0.34393  1.0000
  C   C554      1.0  0.93502  0.33626  0.33613  1.0000
  C   C555      1.0  0.94456  0.31051  0.32820  1.0000
  C   C556      1.0  0.92768  0.28943  0.32910  1.0000
  C   C557      1.0  0.90092  0.29432  0.33686  1.0000
  C   C558      1.0  0.89124  0.32028  0.34392  1.0000
  H   H548      1.0  0.94833  0.35227  0.33560  1.0000
  H   H549      1.0  0.96521  0.30691  0.32167  1.0000
  H   H550      1.0  0.88778  0.27814  0.33767  1.0000
  H   H551      1.0  0.87058  0.32400  0.35014  1.0000
  H   H552      1.0  0.70949  0.24310  0.14093  1.0000
  C   C559      1.0  0.95063  0.49046  0.25059  1.0000
  H   H553      1.0  0.94482  0.47056  0.25761  1.0000
  H   H554      1.0  0.98454  0.02074  0.09516  1.0000
  H   H555      1.0  0.98186  0.09231  0.26637  1.0000
  H   H556      1.0  0.98476  0.28991  0.39944  1.0000
  N   N47       1.0  0.79873  0.35054  0.24279  1.0000
  C   C560      1.0  0.80797  0.36169  0.28319  1.0000
  C   C561      1.0  0.81573  0.34081  0.20910  1.0000
  C   C562      1.0  0.83487  0.36395  0.29007  1.0000
  C   C563      1.0  0.84275  0.34273  0.21485  1.0000
  C   C564      1.0  0.85233  0.35446  0.25558  1.0000
  C   C565      1.0  0.77053  0.34775  0.23672  1.0000
  H   H557      1.0  0.79451  0.36896  0.31029  1.0000
  H   H558      1.0  0.75147  0.33431  0.00438  1.0000
  H   H559      1.0  0.84226  0.37293  0.32198  1.0000
  H   H560      1.0  0.85614  0.33515  0.18790  1.0000
  H   H561      1.0  0.87325  0.35609  0.26064  1.0000
  C   C566      1.0  0.68921  0.36644  0.32930  1.0000
  H   H562      1.0  0.97667  0.17188  0.08253  1.0000
  C   C567      1.0  0.89333  0.20312  0.02569  1.0000
  H   H563      1.0  0.69806  0.17838  0.03709  1.0000
  S   S191      1.0  0.96461  0.49250  0.34630  1.0000
  C   C568      1.0  0.78427  0.12987  0.40020  1.0000
  H   H564      1.0  0.71492  0.13421  0.02929  1.0000
  C   C569      1.0  0.93350  0.18386  0.99450  1.0000
  C   C570      1.0  0.72825  0.26983  0.48179  1.0000
  C   C571      1.0  0.70201  0.20157  0.13690  1.0000
  H   H565      1.0  0.72191  0.19533  0.14534  1.0000
  C   C572      1.0  0.80807  0.13774  0.32606  1.0000
  H   H566      1.0  0.84907  0.12415  0.38122  1.0000
  H   H567      1.0  0.80844  0.33155  0.17741  1.0000
  C   C573      1.0  0.82662  0.33969  0.98759  1.0000
  C   C574      1.0  0.83027  0.11672  0.44804  1.0000
  H   H568      1.0  0.69831  0.22460  0.00992  1.0000
  H   H569      1.0  0.98553  0.19135  0.03099  1.0000
  C   C575      1.0  0.71391  0.13565  0.98978  1.0000
  H   H570      1.0  0.69790  0.34773  0.39683  1.0000
  H   H571      1.0  0.89417  0.21241  0.10042  1.0000
  H   H572      1.0  0.98168  0.12283  0.29821  1.0000
  H   H573      1.0  0.97892  0.09284  0.33071  1.0000
  H   H574      1.0  0.81615  0.24591  0.47420  1.0000
  N   N48       1.0  0.94491  0.18546  0.03827  1.0000
  H   H575      1.0  0.93933  0.49003  0.17665  1.0000
  C   C576      1.0  0.93126  0.19623  0.07565  1.0000
  C   C577      1.0  0.97994  0.02425  0.01963  1.0000
  C   C578      1.0  0.99018  0.16952  0.37823  1.0000
  S   S192      1.0  0.98629  0.43618  0.43031  1.0000
  H   H576      1.0  0.76623  0.13540  0.38194  1.0000
  H   H577      1.0  0.97607  0.15762  0.02511  1.0000
  H   H578      1.0  0.82780  0.14382  0.31458  1.0000
  H   H579      1.0  0.79470  0.15508  0.31926  1.0000
  H   H580      1.0  0.85263  0.17833  0.46952  1.0000
  C   C579      1.0  0.67641  0.38788  0.30679  1.0000
  N   N49       1.0  0.80768  0.13039  0.37662  1.0000
  C   C580      1.0  0.97218  0.17627  0.04454  1.0000
  H   H581      1.0  0.94053  0.28024  0.42929  1.0000
  H   H582      1.0  0.76488  0.12368  0.46766  1.0000
  H   H583      1.0  0.99960  0.50058  0.43096  1.0000
  Fe  Fe93      1.0  0.95126  0.42082  0.46888  1.0000
  H   H584      1.0  0.84849  0.11221  0.46656  1.0000
  H   H585      1.0  0.98509  0.04474  0.01851  1.0000
  H   H586      1.0  0.87310  0.20972  0.02092  1.0000
  C   C581      1.0  0.90756  0.19260  0.98756  1.0000
  C   C582      1.0  0.70551  0.20902  0.98662  1.0000
  S   S193      1.0  0.95040  0.42441  0.54953  1.0000
  Fe  Fe94      1.0  0.89827  0.34390  0.77320  1.0000
  S   S194      1.0  0.88073  0.37271  0.82558  1.0000
  S   S195      1.0  0.89335  0.34660  0.69252  1.0000
  Fe  Fe95      1.0  0.91893  0.30704  0.85285  1.0000
  S   S196      1.0  0.90293  0.33298  0.91100  1.0000
  S   S197      1.0  0.94811  0.27401  0.87021  1.0000
  Fe  Fe96      1.0  0.86675  0.33736  0.86618  1.0000
  S   S198      1.0  0.82393  0.33507  0.88898  1.0000
  Fe  Fe97      1.0  0.91825  0.36588  0.86621  1.0000
  S   S199      1.0  0.94082  0.39719  0.90309  1.0000
  S   S200      1.0  0.88173  0.30875  0.81069  1.0000
  S   S201      1.0  0.93665  0.33965  0.81100  1.0000
  Fe  Fe98      1.0  0.95116  0.12463  0.88175  1.0000
  H   H587      1.0  0.68068  0.09536  0.82612  1.0000
  S   S202      1.0  0.91904  0.15419  0.86147  1.0000
  Fe  Fe99      1.0  0.96730  0.06613  0.87558  1.0000
  C   C583      1.0  0.78367  0.33464  0.95416  1.0000
  S   S203      1.0  0.95599  0.02563  0.84899  1.0000
  H   H588      1.0  0.91986  0.05720  0.68400  1.0000
  H   H589      1.0  0.67057  0.18918  0.86928  1.0000
  S   S204      1.0  0.94027  0.08918  0.92477  1.0000
  S   S205      1.0  0.97494  0.10103  0.82918  1.0000
  H   H590      1.0  0.83542  0.33873  0.67410  1.0000
  C   C584      1.0  0.68354  0.16199  0.81520  1.0000
  H   H591      1.0  0.89856  0.19102  0.95284  1.0000
  C   C585      1.0  0.82233  0.40621  0.78976  1.0000
  H   H592      1.0  0.97405  0.02173  0.94402  1.0000
  Fe  Fe100     1.0  0.73840  0.17733  0.61024  1.0000
  S   S206      1.0  0.72682  0.21231  0.65532  1.0000
  S   S207      1.0  0.78082  0.17096  0.58524  1.0000
  C   C586      1.0  0.97377  0.01135  0.97786  1.0000
  H   H593      1.0  0.80997  0.32533  0.71028  1.0000
  N   N50       1.0  0.90677  0.05323  0.75577  1.0000
  S   S208      1.0  0.67129  0.36975  0.63464  1.0000
  Fe  Fe101     1.0  0.70141  0.18441  0.69679  1.0000
  S   S209      1.0  0.69458  0.18740  0.77715  1.0000
  S   S210      1.0  0.70567  0.18397  0.55870  1.0000
  S   S211      1.0  0.71590  0.14889  0.65603  1.0000
  C   C587      1.0  0.83749  0.38234  0.72068  1.0000
  C   C588      1.0  0.98168  0.38959  0.84116  1.0000
  H   H594      1.0  0.73525  0.25282  0.57048  1.0000
  C   C589      1.0  0.67398  0.33699  0.61445  1.0000
  N   N51       1.0  0.75287  0.25989  0.50294  1.0000
  H   H595      1.0  0.84540  0.42302  0.73357  1.0000
  H   H596      1.0  0.80107  0.38329  0.84098  1.0000
  H   H597      1.0  0.77615  0.23452  0.60690  1.0000
  C   C590      1.0  0.79907  0.24004  0.54349  1.0000
  H   H598      1.0  0.84378  0.32237  0.72904  1.0000
  C   C591      1.0  0.77741  0.18532  0.48942  1.0000
  H   H599      1.0  0.98897  0.31237  0.85196  1.0000
  Fe  Fe102     1.0  0.68204  0.15903  0.60753  1.0000
  H   H600      1.0  0.68038  0.48915  0.70395  1.0000
  C   C592      1.0  0.77615  0.24169  0.57041  1.0000
  C   C593      1.0  0.89950  0.02584  0.75026  1.0000
  C   C594      1.0  0.91740  0.10612  0.76505  1.0000
  C   C595      1.0  0.82073  0.17526  0.51996  1.0000
  C   C596      1.0  0.79354  0.17761  0.52757  1.0000
  H   H601      1.0  0.68813  0.32118  0.68137  1.0000
  H   H602      1.0  0.83343  0.16945  0.54923  1.0000
  S   S212      1.0  0.98526  0.13447  0.92715  1.0000
  C   C597      1.0  0.81083  0.33656  0.94766  1.0000
  C   C598      1.0  0.81289  0.36050  0.77982  1.0000
  H   H603      1.0  0.97385  0.46785  0.87577  1.0000
  C   C599      1.0  0.83576  0.40569  0.74649  1.0000
  H   H604      1.0  0.77126  0.33220  0.92359  1.0000
  C   C600      1.0  0.93952  0.24096  0.86574  1.0000
  C   C601      1.0  0.95907  0.22122  0.87179  1.0000
  C   C602      1.0  0.95304  0.19462  0.86919  1.0000
  C   C603      1.0  0.92731  0.18752  0.86129  1.0000
  C   C604      1.0  0.90772  0.20724  0.85484  1.0000
  C   C605      1.0  0.91380  0.23395  0.85702  1.0000
  H   H605      1.0  0.97903  0.22655  0.87817  1.0000
  H   H606      1.0  0.96839  0.17967  0.87303  1.0000
  H   H607      1.0  0.88776  0.20188  0.84852  1.0000
  H   H608      1.0  0.89860  0.24908  0.85230  1.0000
  C   C606      1.0  0.97374  0.39865  0.88574  1.0000
  H   H609      1.0  0.82142  0.42394  0.81086  1.0000
  H   H610      1.0  0.96744  0.38296  0.81627  1.0000
  C   C607      1.0  0.93492  0.40213  0.58863  1.0000
  C   C608      1.0  0.91881  0.38267  0.57181  1.0000
  C   C609      1.0  0.90642  0.36571  0.60408  1.0000
  C   C610      1.0  0.91013  0.36789  0.65344  1.0000
  C   C611      1.0  0.92643  0.38719  0.67024  1.0000
  C   C612      1.0  0.93868  0.40426  0.63797  1.0000
  H   H611      1.0  0.91552  0.38098  0.53399  1.0000
  H   H612      1.0  0.89374  0.35093  0.59074  1.0000
  H   H613      1.0  0.92944  0.38913  0.70809  1.0000
  H   H614      1.0  0.95108  0.41927  0.65132  1.0000
  Fe  Fe103     1.0  0.97578  0.09777  0.96767  1.0000
  C   C613      1.0  0.96797  0.02861  0.75223  1.0000
  C   C614      1.0  0.68285  0.31666  0.64523  1.0000
  C   C615      1.0  0.68611  0.13543  0.80316  1.0000
  H   H615      1.0  0.92994  0.10421  0.69195  1.0000
  H   H616      1.0  0.69434  0.12995  0.76904  1.0000
  H   H617      1.0  0.98361  0.44554  0.79937  1.0000
  H   H618      1.0  0.84857  0.38193  0.68772  1.0000
  C   C616      1.0  0.68441  0.29041  0.62965  1.0000
  C   C617      1.0  0.99681  0.32317  0.88144  1.0000
  H   H619      1.0  0.72963  0.15281  0.90471  1.0000
  C   C618      1.0  0.72342  0.16856  0.92836  1.0000
  C   C619      1.0  0.81079  0.38350  0.80657  1.0000
  C   C620      1.0  0.99032  0.34286  0.95838  1.0000
  C   C621      1.0  0.72351  0.19455  0.91153  1.0000
  C   C622      1.0  0.90253  0.06541  0.79838  1.0000
  C   C623      1.0  0.92199  0.09348  0.72189  1.0000
  C   C624      1.0  0.96838  0.01845  0.70568  1.0000
  H   H620      1.0  0.97267  0.04886  0.75817  1.0000
  H   H621      1.0  0.72978  0.19877  0.87537  1.0000
  H   H622      1.0  0.80454  0.34272  0.79393  1.0000
  H   H623      1.0  0.73064  0.12367  0.97543  1.0000
  H   H624      1.0  0.98385  0.36792  0.53094  1.0000
  H   H625      1.0  0.89539  0.05449  0.82878  1.0000
  H   H626      1.0  0.80614  0.11234  0.51048  1.0000
  H   H627      1.0  0.71446  0.23511  0.92835  1.0000
  C   C625      1.0  0.79863  0.24809  0.49592  1.0000
  S   S213      1.0  0.67847  0.25212  0.56141  1.0000
  H   H628      1.0  0.91072  0.01612  0.72099  1.0000
  H   H629      1.0  0.98611  0.41615  0.95104  1.0000
  C   C626      1.0  0.99227  0.40884  0.91664  1.0000
  C   C627      1.0  0.91630  0.06691  0.71770  1.0000
  Fe  Fe104     1.0  0.69275  0.21733  0.60561  1.0000
  C   C628      1.0  0.82882  0.33545  0.71133  1.0000
  N   N52       1.0  0.82599  0.36017  0.73739  1.0000
  C   C629      1.0  0.90760  0.09203  0.80355  1.0000
  H   H630      1.0  0.87831  0.02501  0.74240  1.0000
  H   H631      1.0  0.92171  0.12674  0.76899  1.0000
  C   C630      1.0  0.96062  0.01281  0.79068  1.0000
  H   H632      1.0  0.90417  0.10169  0.83732  1.0000
  H   H633      1.0  0.90397  0.01427  0.78320  1.0000
  H   H634      1.0  0.75649  0.18733  0.49467  1.0000
  H   H635      1.0  0.71850  0.28455  0.50551  1.0000
  C   C631      1.0  0.67189  0.49581  0.77776  1.0000
  H   H636      1.0  0.97351  0.03107  0.67613  1.0000
  H   H637      1.0  0.94916  0.33714  0.53941  1.0000
  H   H638      1.0  0.94434  0.17555  0.96471  1.0000
  C   C632      1.0  0.75308  0.25176  0.54946  1.0000
  H   H639      1.0  0.69093  0.27482  0.65373  1.0000
  C   C633      1.0  0.67716  0.28449  0.58315  1.0000
  H   H640      1.0  0.96051  0.32283  0.92057  1.0000
  C   C634      1.0  0.67848  0.11584  0.83574  1.0000
  C   C635      1.0  0.67285  0.16868  0.85977  1.0000
  C   C636      1.0  0.67350  0.48042  0.73684  1.0000
  H   H641      1.0  0.68772  0.43624  0.68311  1.0000
  C   C637      1.0  0.99672  0.35233  0.51462  1.0000
  C   C638      1.0  0.99340  0.46820  0.86064  1.0000
  H   H642      1.0  0.69544  0.12698  0.97801  1.0000
  H   H643      1.0  0.84751  0.34123  0.98321  1.0000
  C   C639      1.0  0.95709  0.32681  0.50873  1.0000
  H   H644      1.0  0.81690  0.23156  0.55902  1.0000
  C   C640      1.0  0.98059  0.32895  0.92029  1.0000
  C   C641      1.0  0.71460  0.21488  0.94102  1.0000
  N   N53       1.0  0.71477  0.16303  0.97333  1.0000
  N   N54       1.0  0.98126  0.33248  0.49126  1.0000
  C   C642      1.0  0.99886  0.45572  0.81766  1.0000
  H   H645      1.0  0.92259  0.30407  0.49983  1.0000
  C   C643      1.0  0.94200  0.30806  0.48665  1.0000
  H   H646      1.0  0.89848  0.55611  0.09703  1.0000
  C   C644      1.0  0.68517  0.74372  0.43781  1.0000
  Fe  Fe105     1.0  0.67049  0.69971  0.32626  1.0000
  Fe  Fe106     1.0  0.72132  0.67104  0.35631  1.0000
  S   S214      1.0  0.71029  0.69738  0.29359  1.0000
  S   S215      1.0  0.76045  0.68148  0.39033  1.0000
  C   C645      1.0  0.99452  0.83978  0.26445  1.0000
  C   C646      1.0  0.68010  0.76094  0.20875  1.0000
  Fe  Fe107     1.0  0.69682  0.66103  0.25713  1.0000
  S   S216      1.0  0.70479  0.65547  0.17793  1.0000
  S   S217      1.0  0.68169  0.67582  0.39099  1.0000
  S   S218      1.0  0.71102  0.63424  0.31680  1.0000
  H   H647      1.0  0.92268  0.69803  0.02494  1.0000
  C   C647      1.0  0.72981  0.75716  0.43300  1.0000
  C   C648      1.0  0.67708  0.76993  0.44503  1.0000
  H   H648      1.0  0.68945  0.99731  0.31345  1.0000
  H   H649      1.0  0.70686  0.90310  0.32620  1.0000
  C   C649      1.0  0.97322  0.97038  0.11008  1.0000
  S   S219      1.0  0.96454  0.61689  0.15362  1.0000
  C   C650      1.0  0.70435  0.94426  0.30623  1.0000
  S   S220      1.0  0.93211  0.60328  0.05708  1.0000
  Fe  Fe108     1.0  0.94070  0.63927  0.09905  1.0000
  S   S221      1.0  0.90891  0.66919  0.11866  1.0000
  Fe  Fe109     1.0  0.95949  0.58154  0.10826  1.0000
  S   S222      1.0  0.94917  0.54086  0.13665  1.0000
  S   S223      1.0  0.97484  0.65044  0.05421  1.0000
  C   C651      1.0  0.98684  0.56141  0.47175  1.0000
  Fe  Fe110     1.0  0.87112  0.84529  0.10164  1.0000
  S   S224      1.0  0.88215  0.82245  0.16871  1.0000
  S   S225      1.0  0.83284  0.83340  0.06594  1.0000
  Fe  Fe111     1.0  0.92191  0.87528  0.10477  1.0000
  S   S226      1.0  0.93636  0.85485  0.17088  1.0000
  S   S227      1.0  0.94858  0.90237  0.06473  1.0000
  Fe  Fe112     1.0  0.92223  0.81841  0.13694  1.0000
  S   S228      1.0  0.95108  0.78382  0.13785  1.0000
  Fe  Fe113     1.0  0.89557  0.86075  0.19824  1.0000
  S   S229      1.0  0.88694  0.87140  0.27578  1.0000
  S   S230      1.0  0.91077  0.83827  0.06829  1.0000
  S   S231      1.0  0.88137  0.88418  0.13377  1.0000
  S   S232      1.0  0.96822  0.90091  0.43801  1.0000
  C   C652      1.0  0.90996  0.87947  0.32029  1.0000
  C   C653      1.0  0.93665  0.88154  0.31039  1.0000
  C   C654      1.0  0.95411  0.88827  0.34673  1.0000
  C   C655      1.0  0.94521  0.89296  0.39340  1.0000
  C   C656      1.0  0.91855  0.89088  0.40332  1.0000
  C   C657      1.0  0.90109  0.88415  0.36700  1.0000
  H   H650      1.0  0.94373  0.87837  0.27459  1.0000
  H   H651      1.0  0.97461  0.89019  0.33853  1.0000
  H   H652      1.0  0.91132  0.89496  0.43872  1.0000
  H   H653      1.0  0.88047  0.88288  0.37493  1.0000
  C   C658      1.0  0.95483  0.52746  0.19465  1.0000
  C   C659      1.0  0.96530  0.54217  0.23131  1.0000
  C   C660      1.0  0.96820  0.53113  0.27737  1.0000
  H   H654      1.0  0.94043  0.72748  0.02760  1.0000
  C   C661      1.0  0.71613  0.87388  0.00203  1.0000
  H   H655      1.0  0.86623  0.55165  0.12146  1.0000
  C   C662      1.0  0.67586  0.92851  0.22854  1.0000
  C   C663      1.0  0.92071  0.70063  0.12976  1.0000
  C   C664      1.0  0.90307  0.72195  0.13711  1.0000
  C   C665      1.0  0.91214  0.74763  0.14038  1.0000
  C   C666      1.0  0.93892  0.75195  0.13705  1.0000
  C   C667      1.0  0.95659  0.73051  0.13182  1.0000
  C   C668      1.0  0.94752  0.70493  0.12826  1.0000
  H   H656      1.0  0.88232  0.71870  0.13917  1.0000
  H   H657      1.0  0.89840  0.76405  0.14506  1.0000
  H   H658      1.0  0.97735  0.73371  0.12993  1.0000
  H   H659      1.0  0.96133  0.68858  0.12417  1.0000
  C   C669      1.0  0.98002  0.90385  0.08972  1.0000
  C   C670      1.0  0.68122  0.95498  0.23515  1.0000
  H   H660      1.0  0.96627  0.90144  0.16195  1.0000
  H   H661      1.0  0.87306  0.58103  0.08839  1.0000
  H   H662      1.0  0.97099  0.56210  0.22425  1.0000
  N   N55       1.0  0.89909  0.73364  0.02396  1.0000
  H   H663      1.0  0.71855  0.75338  0.17914  1.0000
  C   C671      1.0  0.96716  0.97182  0.02368  1.0000
  C   C672      1.0  0.88135  0.56629  0.11413  1.0000
  C   C673      1.0  0.70027  0.99036  0.28131  1.0000
  H   H664      1.0  0.68474  0.77982  0.22349  1.0000
  C   C674      1.0  0.77674  0.67542  0.44582  1.0000
  H   H665      1.0  0.73285  0.85933  0.00447  1.0000
  C   C675      1.0  0.80247  0.68390  0.45139  1.0000
  H   H666      1.0  0.91723  0.77071  0.01926  1.0000
  H   H667      1.0  0.81194  0.69356  0.42192  1.0000
  C   C676      1.0  0.69900  0.74616  0.18386  1.0000
  H   H668      1.0  0.69911  0.83067  0.43641  1.0000
  H   H669      1.0  0.91399  0.60954  0.27419  1.0000
  H   H670      1.0  0.71487  0.95032  0.33744  1.0000
  C   C677      1.0  0.69117  0.79770  0.32854  1.0000
  C   C678      1.0  0.68238  0.77181  0.32764  1.0000
  H   H671      1.0  0.89133  0.84665  0.45943  1.0000
  H   H672      1.0  0.78508  0.81691  0.02427  1.0000
  H   H673      1.0  0.71187  0.80117  0.32605  1.0000
  H   H674      1.0  0.69626  0.75541  0.32420  1.0000
  C   C679      1.0  0.69979  0.91757  0.30021  1.0000
  H   H675      1.0  0.91213  0.56085  0.26760  1.0000
  N   N56       1.0  0.69531  0.96253  0.27367  1.0000
  C   C680      1.0  0.96553  0.81173  0.47293  1.0000
  C   C681      1.0  0.68785  0.64406  0.08772  1.0000
  N   N57       1.0  0.88954  0.57843  0.15846  1.0000
  H   H676      1.0  0.00150  0.52824  0.39097  1.0000
  H   H677      1.0  0.70594  0.65234  0.07582  1.0000
  C   C682      1.0  0.85331  0.73493  0.04375  1.0000
  C   C683      1.0  0.68220  0.64288  0.13669  1.0000
  H   H678      1.0  0.99961  0.90850  0.02231  1.0000
  H   H679      1.0  0.97957  0.83643  0.29108  1.0000
  H   H680      1.0  0.83570  0.77366  0.05489  1.0000
  H   H681      1.0  0.89691  0.54142  0.19297  1.0000
  C   C684      1.0  0.72104  0.78320  0.44026  1.0000
  Fe  Fe114     1.0  0.96797  0.61306  0.01524  1.0000
  H   H682      1.0  0.96978  0.98379  0.14054  1.0000
  H   H683      1.0  0.97550  0.81774  0.21061  1.0000
  H   H684      1.0  0.94708  0.84946  0.45851  1.0000
  N   N58       1.0  0.98213  0.53668  0.45596  1.0000
  H   H685      1.0  0.99245  0.95982  0.11485  1.0000
  C   C685      1.0  0.87644  0.72082  0.03233  1.0000
  H   H686      1.0  0.98726  0.83415  0.12182  1.0000
  S   S233      1.0  0.68437  0.85121  0.33879  1.0000
  H   H687      1.0  0.75048  0.75222  0.42816  1.0000
  H   H688      1.0  0.67511  0.63515  0.01640  1.0000
  C   C686      1.0  0.89064  0.60519  0.16165  1.0000
  H   H689      1.0  0.70721  0.71010  0.14597  1.0000
  C   C687      1.0  0.89924  0.61676  0.20342  1.0000
  C   C688      1.0  0.90688  0.60081  0.24191  1.0000
  C   C689      1.0  0.69268  0.72192  0.16526  1.0000
  H   H690      1.0  0.83552  0.72469  0.05129  1.0000
  H   H691      1.0  0.88521  0.61780  0.13168  1.0000
  H   H692      1.0  0.98417  0.81715  0.45796  1.0000
  H   H693      1.0  0.90038  0.63799  0.20547  1.0000
  C   C690      1.0  0.81736  0.84207  0.01081  1.0000
  C   C691      1.0  0.85339  0.76231  0.04587  1.0000
  H   H694      1.0  0.95756  0.95577  0.11128  1.0000
  C   C692      1.0  0.87645  0.77520  0.03654  1.0000
  C   C693      1.0  0.90570  0.57356  0.23834  1.0000
  N   N59       1.0  0.69493  0.78930  0.44569  1.0000
  Fe  Fe115     1.0  0.99850  0.62525  0.10547  1.0000
  C   C694      1.0  0.89693  0.56266  0.19610  1.0000
  Fe  Fe116     1.0  0.67043  0.64143  0.34690  1.0000
  C   C695      1.0  0.98314  0.90293  0.13901  1.0000
  H   H695      1.0  0.97618  0.54277  0.30541  1.0000
  C   C696      1.0  0.71172  0.73735  0.43177  1.0000
  H   H696      1.0  0.87634  0.69950  0.03143  1.0000
  N   N60       1.0  0.97288  0.98472  0.06461  1.0000
  C   C697      1.0  0.67325  0.81903  0.33371  1.0000
  H   H697      1.0  0.67538  0.50772  0.38062  1.0000
  H   H698      1.0  0.96234  0.95125  0.02483  1.0000
  H   H699      1.0  0.87654  0.79647  0.03811  1.0000
  S   S234      1.0  0.99511  0.58843  0.06289  1.0000
  H   H700      1.0  0.72149  0.99318  0.28626  1.0000
  C   C698      1.0  0.94447  0.83000  0.47344  1.0000
  C   C699      1.0  0.95824  0.52603  0.46322  1.0000
  H   H701      1.0  0.71837  0.71713  0.42591  1.0000
  H   H702      1.0  0.68116  0.88910  0.25696  1.0000
  C   C700      1.0  0.68612  0.81657  0.45439  1.0000
  C   C701      1.0  0.68536  0.90971  0.26121  1.0000
  H   H703      1.0  0.74509  0.65633  0.48090  1.0000
  H   H704      1.0  0.71386  0.88408  0.03656  1.0000
  C   C702      1.0  0.76482  0.66298  0.48441  1.0000
  C   C703      1.0  0.89928  0.76050  0.02560  1.0000
  C   C704      1.0  0.67038  0.63436  0.05390  1.0000
  H   H705      1.0  0.69838  0.86252  0.99517  1.0000
  H   H706      1.0  0.67347  0.96951  0.20992  1.0000
  H   H707      1.0  0.73522  0.79851  0.44111  1.0000
  C   C705      1.0  0.92307  0.71864  0.01134  1.0000
  C   C706      1.0  0.99219  0.82948  0.21876  1.0000
  C   C707      1.0  0.79348  0.83067  0.99949  1.0000
  H   H708      1.0  0.67083  0.72858  0.43595  1.0000
  H   H709      1.0  0.69350  0.00292  0.25085  1.0000
  C   C708      1.0  0.00195  0.90745  0.06051  1.0000
  H   H710      1.0  0.95421  0.50672  0.44939  1.0000
  C   C709      1.0  0.96091  0.50522  0.28732  1.0000
  H   H711      1.0  0.84626  0.86874  0.98631  1.0000
  S   S235      1.0  0.68169  0.77295  0.88138  1.0000
  C   C710      1.0  0.98264  0.63367  0.59361  1.0000
  C   C711      1.0  0.69976  0.90334  0.93820  1.0000
  H   H712      1.0  0.99930  0.94292  0.67447  1.0000
  C   C712      1.0  0.96185  0.99230  0.69693  1.0000
  C   C713      1.0  0.74519  0.90143  0.95542  1.0000
  H   H713      1.0  0.73238  0.94311  0.86248  1.0000
  Fe  Fe117     1.0  0.73495  0.85060  0.84327  1.0000
  S   S236      1.0  0.73046  0.81568  0.79578  1.0000
  S   S237      1.0  0.77490  0.86356  0.86955  1.0000
  Fe  Fe118     1.0  0.70365  0.84236  0.75103  1.0000
  S   S238      1.0  0.70700  0.84381  0.67004  1.0000
  Fe  Fe119     1.0  0.69439  0.80810  0.83897  1.0000
  S   S239      1.0  0.99176  0.92406  0.56555  1.0000
  S   S240      1.0  0.71073  0.87784  0.79542  1.0000
  S   S241      1.0  0.70049  0.84147  0.88894  1.0000
  H   H714      1.0  0.96868  0.67342  0.60615  1.0000
  Fe  Fe120     1.0  0.86221  0.66931  0.61501  1.0000
  S   S242      1.0  0.86844  0.69905  0.67284  1.0000
  S   S243      1.0  0.82038  0.66221  0.58913  1.0000
  Fe  Fe121     1.0  0.91939  0.64846  0.62217  1.0000
  S   S244      1.0  0.92903  0.67610  0.68034  1.0000
  S   S245      1.0  0.95145  0.61997  0.59652  1.0000
  Fe  Fe122     1.0  0.89053  0.66638  0.71221  1.0000
  S   S246      1.0  0.88358  0.65983  0.79158  1.0000
  Fe  Fe123     1.0  0.90664  0.70615  0.63604  1.0000
  S   S247      1.0  0.93007  0.74239  0.62412  1.0000
  S   S248      1.0  0.88205  0.63617  0.65717  1.0000
  S   S249      1.0  0.89917  0.67890  0.57534  1.0000
  S   S250      1.0  0.97107  0.61285  0.93424  1.0000
  C   C714      1.0  0.70372  0.92153  0.90149  1.0000
  S   S251      1.0  0.95692  0.90383  0.65745  1.0000
  C   C715      1.0  0.91782  0.79914  0.51231  1.0000
  S   S252      1.0  0.92785  0.92366  0.55805  1.0000
  Fe  Fe124     1.0  0.95757  0.93926  0.60950  1.0000
  S   S253      1.0  0.96023  0.98138  0.63705  1.0000
  Fe  Fe125     1.0  0.93043  0.88676  0.60320  1.0000
  S   S254      1.0  0.89511  0.86263  0.62035  1.0000
  C   C716      1.0  0.96737  0.98497  0.97974  1.0000
  S   S255      1.0  0.96310  0.86783  0.56114  1.0000
  C   C717      1.0  0.72898  0.92947  0.89155  1.0000
  C   C718      1.0  0.96761  0.57584  0.49677  1.0000
  C   C719      1.0  0.95544  0.97622  0.73559  1.0000
  Fe  Fe126     1.0  0.96203  0.90526  0.51837  1.0000
  H   H715      1.0  0.95027  0.95610  0.72956  1.0000
  C   C720      1.0  0.91887  0.77525  0.63006  1.0000
  C   C721      1.0  0.89233  0.78289  0.62748  1.0000
  C   C722      1.0  0.88487  0.80983  0.62586  1.0000
  C   C723      1.0  0.90392  0.82902  0.62730  1.0000
  C   C724      1.0  0.93019  0.82121  0.63225  1.0000
  C   C725      1.0  0.93764  0.79450  0.63301  1.0000
  H   H716      1.0  0.87776  0.76808  0.62493  1.0000
  H   H717      1.0  0.86447  0.81568  0.62208  1.0000
  H   H718      1.0  0.94493  0.83574  0.63542  1.0000
  H   H719      1.0  0.95816  0.78872  0.63538  1.0000
  C   C726      1.0  0.90843  0.64737  0.83083  1.0000
  C   C727      1.0  0.90354  0.64674  0.88010  1.0000
  C   C728      1.0  0.92258  0.63655  0.91224  1.0000
  C   C729      1.0  0.94669  0.62662  0.89538  1.0000
  C   C730      1.0  0.95160  0.62730  0.84612  1.0000
  C   C731      1.0  0.93266  0.63771  0.81402  1.0000
  H   H720      1.0  0.88486  0.65406  0.89346  1.0000
  H   H721      1.0  0.91847  0.63605  0.94997  1.0000
  H   H722      1.0  0.97013  0.61957  0.83278  1.0000
  H   H723      1.0  0.93664  0.63796  0.77625  1.0000
  C   C732      1.0  0.89983  0.84371  0.49549  1.0000
  C   C733      1.0  0.95472  0.98646  0.78208  1.0000
  C   C734      1.0  0.79104  0.85442  0.92379  1.0000
  C   C735      1.0  0.81486  0.86589  0.93509  1.0000
  C   C736      1.0  0.68282  0.74020  0.86207  1.0000
  H   H724      1.0  0.82329  0.87966  0.91038  1.0000
  C   C737      1.0  0.81619  0.67990  0.49461  1.0000
  Fe  Fe127     1.0  0.98957  0.88797  0.61122  1.0000
  H   H725      1.0  0.97131  0.59546  0.50931  1.0000
  H   H726      1.0  0.91984  0.53118  0.49474  1.0000
  C   C738      1.0  0.78042  0.83676  0.95635  1.0000
  Fe  Fe128     1.0  0.67575  0.86509  0.83734  1.0000
  C   C739      1.0  0.68779  0.86000  0.58249  1.0000
  H   H727      1.0  0.68578  0.82046  0.49318  1.0000
  C   C740      1.0  0.67355  0.72091  0.89305  1.0000
  H   H728      1.0  0.94899  0.97402  0.81146  1.0000
  C   C741      1.0  0.77848  0.65912  0.52775  1.0000
  C   C742      1.0  0.80428  0.66747  0.53321  1.0000
  H   H729      1.0  0.70433  0.84884  0.56819  1.0000
  H   H730      1.0  0.76901  0.64949  0.55721  1.0000
  H   H731      1.0  0.97869  0.77244  0.49328  1.0000
  H   H732      1.0  0.97526  0.63747  0.70003  1.0000
  H   H733      1.0  0.68005  0.89705  0.94517  1.0000
  C   C743      1.0  0.67204  0.69481  0.87832  1.0000
  H   H734      1.0  0.93578  0.76094  0.52763  1.0000
  H   H735      1.0  0.76163  0.89350  0.97601  1.0000
  H   H736      1.0  0.83595  0.68649  0.49805  1.0000
  C   C744      1.0  0.69110  0.73319  0.81632  1.0000
  C   C745      1.0  0.68966  0.70692  0.80160  1.0000
  H   H737      1.0  0.69825  0.74802  0.79222  1.0000
  C   C746      1.0  0.98567  0.66048  0.60124  1.0000
  N   N61       1.0  0.79188  0.65661  0.73562  1.0000
  C   C747      1.0  0.77905  0.66186  0.77742  1.0000
  C   C748      1.0  0.77822  0.64980  0.69610  1.0000
  C   C749      1.0  0.75175  0.66078  0.78015  1.0000
  C   C750      1.0  0.75096  0.64861  0.69753  1.0000
  C   C751      1.0  0.73769  0.65413  0.73987  1.0000
  C   C752      1.0  0.82050  0.65730  0.73394  1.0000
  H   H738      1.0  0.78993  0.66688  0.80891  1.0000
  H   H739      1.0  0.78836  0.64525  0.66311  1.0000
  H   H740      1.0  0.74144  0.66496  0.81323  1.0000
  H   H741      1.0  0.74023  0.64339  0.66599  1.0000
  H   H742      1.0  0.71654  0.65313  0.74161  1.0000
  H   H743      1.0  0.82754  0.67501  0.75210  1.0000
  H   H744      1.0  0.82942  0.63956  0.75168  1.0000
  H   H745      1.0  0.82787  0.65807  0.69673  1.0000
  N   N62       1.0  0.83238  0.85457  0.72046  1.0000
  C   C753      1.0  0.81314  0.85297  0.75424  1.0000
  C   C754      1.0  0.82601  0.85811  0.67355  1.0000
  C   C755      1.0  0.78677  0.85523  0.74128  1.0000
  C   C756      1.0  0.79981  0.86032  0.65940  1.0000
  C   C757      1.0  0.78009  0.85885  0.69357  1.0000
  C   C758      1.0  0.86002  0.85157  0.73387  1.0000
  H   H746      1.0  0.81798  0.84999  0.79154  1.0000
  H   H747      1.0  0.84126  0.85929  0.64679  1.0000
  H   H748      1.0  0.77160  0.85414  0.76814  1.0000
  H   H749      1.0  0.79480  0.86310  0.62218  1.0000
  H   H750      1.0  0.75966  0.86046  0.68314  1.0000
  H   H751      1.0  0.86285  0.85316  0.77288  1.0000
  H   H752      1.0  0.86811  0.83212  0.72220  1.0000
  H   H753      1.0  0.87158  0.86710  0.71644  1.0000
  H   H754      1.0  0.69570  0.70158  0.76601  1.0000
  C   C759      1.0  0.93838  0.78028  0.51200  1.0000
  H   H755      1.0  0.68728  0.92903  0.88040  1.0000
  H   H756      1.0  0.98348  0.59104  0.69387  1.0000
  H   H757      1.0  0.92544  0.71821  0.97209  1.0000
  C   C760      1.0  0.74986  0.91953  0.91888  1.0000
  H   H758      1.0  0.76221  0.82764  0.94821  1.0000
  C   C761      1.0  0.68417  0.86096  0.63211  1.0000
  H   H759      1.0  0.90716  0.86271  0.50822  1.0000
  H   H760      1.0  0.96268  0.97481  0.94728  1.0000
  S   S256      1.0  0.67645  0.65533  0.81274  1.0000
  C   C762      1.0  0.67971  0.68777  0.83240  1.0000
  H   H761      1.0  0.00148  0.65935  0.70503  1.0000
  H   H762      1.0  0.89933  0.79400  0.52810  1.0000
  C   C763      1.0  0.96246  0.78675  0.49267  1.0000
  H   H763      1.0  0.67347  0.87283  0.51325  1.0000
  H   H764      1.0  0.76968  0.92511  0.91098  1.0000
  N   N63       1.0  0.72048  0.89311  0.96391  1.0000
  C   C764      1.0  0.94348  0.56486  0.50562  1.0000
  H   H765      1.0  0.67720  0.51626  0.77662  1.0000
  C   C765      1.0  0.67031  0.87356  0.55125  1.0000
  H   H766      1.0  0.92858  0.57588  0.52553  1.0000
  C   C766      1.0  0.82797  0.85976  0.97823  1.0000
  N   N64       1.0  0.92122  0.82381  0.49406  1.0000
  H   H767      1.0  0.88417  0.83813  0.52072  1.0000
  C   C767      1.0  0.93865  0.53983  0.48854  1.0000
  C   C768      1.0  0.99452  0.63999  0.71736  1.0000
  H   H768      1.0  0.99162  0.64039  0.75650  1.0000
