data_image0
_chemical_formula_structural       CSFeHCHSHSCFeS2FeS2FeHFeS3FeS2FeS2FeSFeS3C2HCSH2CHC7H5C4SH3CSC6H4C6H4C6H2CNC6H8NC2NCHCH2CH2CHCH4C2FeC3HSCH4C2H2NCH2CH3SH2CHFeSCHCHFeHCSH2C2FeHCH2CHCNHC2H2FeS2FeS2FeHFeS3FeS2FeS2FeSFeS3C2SC6FeHCHC6H5NHCSFeCH3C2HC4H3C6H4C5HCH6CHCHC3H2CHC2H2C2H2CHSH3CHSH3CSCH2CFeCSNCH2CHCHCNH2C2HCHCNCH2C2HCH3C4H3CHCH5C4NSCFeHCSC3HC5HCSCHC2H4CH3SHCH3C2H2N2CH2C2H3CH3C3H4C3HCNH3C2H2CH2CNH2C3H3FeS2FeS2FeHFeS3FeS2FeS2FeSFeS3FeSFeS2FeSFeS3FeSFeS2FeSFeS3FeHNHS2NH2FeH2SCFeHCHSHFeCFeSHFeC7HCH2C4H3C4HCH4C6S2CHC6H3C6HSH2C6HCH2C3SC2H4C6H2C7H4SHC4HCHNHC2SCH2NC6H2FeS2H3C2NH3NH3SH2SFeH3CHNC2HCHCH6NC6H8NH4C7HC2H3CHC2H2SC2H7CHC2SHNSH2CHCHCH2CHSFeHFeS3FeSHCH3SFeSCHCNCSHCFeCFeS2FeS2FeCFeCS2FeS2FeS2FeSFeS3FeS2FeSFeSFeS3FeS2FeS2FeSFeS2C6H4C6H4C2HC4H2CHC4HCHC2H2C2HCH2C6HFeH2CHC4H3C4HCH2C8H3CHC4H8CHSH3SHSH3SN2SHC2H4NCH3CHC3H2NH2NC2HC6SC3HC2H3CH4NCHNHC3HC2H6CHCNH3FeCHCHC2H4C3HSHC3H3CNCHCSH2CH2SHSHSCHC3HC2H2C2H7CH3CHC2H3C3HC2HSHCH2C2H5CSNCH2C2H2C2H2C2HC2H2NCHNC2H2CFeCSC2FeS2FeS2FeHFeS3FeS2FeS2FeSFeS3C2NC5H2CH2C8H4NFeC3SHC6H5C6H5CHC6HCH2CNC6H9C2H5C2HCH2SNC6H7CH2C2H2FeH2CHCH3SHC2NCH3CSCHCHNCSH2FeCFeS2FeS2FeSFeS3FeS2FeS2FeSFeS3CH3C2SH3C6H4C6H3CH2C7HCFeHC6H4CHCHC6H9CHS2HC2H2CSNCSCHNC5H5NC6H6SHSCFeHFeHCH3SH3CHCNH3FeCSH3CH2CHCHC2H2CNH
_chemical_formula_sum              "C576 S192 Fe96 H576 N48"
_cell_length_a       40.8253
_cell_length_b       40.5511
_cell_length_c       49.1311
_cell_angle_alpha    90.1064
_cell_angle_beta     88.8297
_cell_angle_gamma    91.7535

_space_group_name_H-M_alt    "P 1"
_space_group_IT_number       1

loop_
  _space_group_symop_operation_xyz
  'x, y, z'

loop_
  _atom_site_type_symbol
  _atom_site_label
  _atom_site_symmetry_multiplicity
  _atom_site_fract_x
  _atom_site_fract_y
  _atom_site_fract_z
  _atom_site_occupancy
  C   C1        1.0  0.11394  0.41580  0.26131  1.0000
  S   S1        1.0  0.46162  0.44366  0.30055  1.0000
  Fe  Fe1       1.0  0.50015  0.05827  0.31660  1.0000
  H   H1        1.0  0.15346  0.38992  0.34925  1.0000
  C   C2        1.0  0.50873  0.41018  0.20175  1.0000
  H   H2        1.0  0.42071  0.09868  0.38880  1.0000
  S   S2        1.0  0.06151  0.47424  0.34576  1.0000
  H   H3        1.0  0.29121  0.48194  0.49430  1.0000
  S   S3        1.0  0.46976  0.06949  0.35450  1.0000
  C   C3        1.0  0.14952  0.39752  0.29656  1.0000
  Fe  Fe2       1.0  0.31096  0.44861  0.40343  1.0000
  S   S4        1.0  0.29443  0.43520  0.44591  1.0000
  S   S5        1.0  0.36414  0.46611  0.40095  1.0000
  Fe  Fe3       1.0  0.24154  0.43967  0.38188  1.0000
  S   S6        1.0  0.21995  0.42550  0.42282  1.0000
  S   S7        1.0  0.21289  0.44557  0.34315  1.0000
  Fe  Fe4       1.0  0.25185  0.46713  0.43899  1.0000
  H   H4        1.0  0.36362  0.04196  0.31315  1.0000
  Fe  Fe5       1.0  0.26464  0.39461  0.42612  1.0000
  S   S8        1.0  0.26590  0.34500  0.44714  1.0000
  S   S9        1.0  0.27014  0.48349  0.39771  1.0000
  S   S10       1.0  0.28442  0.40563  0.38397  1.0000
  Fe  Fe6       1.0  0.21071  0.09940  0.39966  1.0000
  S   S11       1.0  0.22519  0.13786  0.43059  1.0000
  S   S12       1.0  0.15589  0.08871  0.39835  1.0000
  Fe  Fe7       1.0  0.28225  0.09096  0.38092  1.0000
  S   S13       1.0  0.30141  0.12920  0.40996  1.0000
  S   S14       1.0  0.31442  0.06308  0.35122  1.0000
  Fe  Fe8       1.0  0.26629  0.10421  0.44009  1.0000
  S   S15       1.0  0.28328  0.09378  0.48293  1.0000
  Fe  Fe9       1.0  0.25843  0.15894  0.39764  1.0000
  S   S16       1.0  0.25797  0.21090  0.38028  1.0000
  S   S17       1.0  0.24943  0.06418  0.41157  1.0000
  S   S18       1.0  0.24165  0.12212  0.36618  1.0000
  C   C4        1.0  0.27391  0.05568  0.49926  1.0000
  C   C5        1.0  0.51126  0.35425  0.21559  1.0000
  H   H5        1.0  0.11004  0.42423  0.24067  1.0000
  C   C6        1.0  0.35693  0.37503  0.44254  1.0000
  S   S19       1.0  0.50773  0.12501  0.23113  1.0000
  H   H6        1.0  0.19193  0.18808  0.39399  1.0000
  H   H7        1.0  0.09697  0.13406  0.32816  1.0000
  C   C7        1.0  0.51653  0.20808  0.08754  1.0000
  H   H8        1.0  0.37789  0.39540  0.39331  1.0000
  C   C8        1.0  0.34091  0.32565  0.41671  1.0000
  C   C9        1.0  0.26127  0.30781  0.42863  1.0000
  C   C10       1.0  0.26399  0.27759  0.44222  1.0000
  C   C11       1.0  0.26251  0.24756  0.42779  1.0000
  C   C12       1.0  0.25843  0.24765  0.39962  1.0000
  C   C13       1.0  0.25543  0.27787  0.38607  1.0000
  C   C14       1.0  0.25680  0.30786  0.40050  1.0000
  H   H9        1.0  0.26752  0.27738  0.46399  1.0000
  H   H10       1.0  0.26490  0.22442  0.43840  1.0000
  H   H11       1.0  0.25230  0.27809  0.36426  1.0000
  H   H12       1.0  0.25480  0.33099  0.38982  1.0000
  H   H13       1.0  0.11112  0.39565  0.35689  1.0000
  C   C15       1.0  0.42676  0.07128  0.35151  1.0000
  C   C16       1.0  0.40831  0.08659  0.37211  1.0000
  C   C17       1.0  0.37382  0.08581  0.37152  1.0000
  C   C18       1.0  0.35751  0.06933  0.35047  1.0000
  S   S20       1.0  0.08203  0.05138  0.28956  1.0000
  H   H14       1.0  0.46827  0.20458  0.14474  1.0000
  H   H15       1.0  0.46767  0.48296  0.34997  1.0000
  H   H16       1.0  0.35992  0.09697  0.38784  1.0000
  C   C19       1.0  0.33850  0.30774  0.39243  1.0000
  S   S21       1.0  0.05289  0.50224  0.26751  1.0000
  C   C20       1.0  0.10468  0.47213  0.34548  1.0000
  C   C21       1.0  0.12027  0.46373  0.36961  1.0000
  C   C22       1.0  0.15400  0.45759  0.36952  1.0000
  C   C23       1.0  0.17236  0.45964  0.34521  1.0000
  C   C24       1.0  0.15716  0.46985  0.32139  1.0000
  C   C25       1.0  0.12343  0.47612  0.32150  1.0000
  H   H17       1.0  0.10597  0.46092  0.38830  1.0000
  H   H18       1.0  0.16542  0.44994  0.38803  1.0000
  H   H19       1.0  0.17131  0.47190  0.30258  1.0000
  H   H20       1.0  0.11177  0.48300  0.30287  1.0000
  C   C26       1.0  0.10214  0.06027  0.32029  1.0000
  C   C27       1.0  0.08467  0.06551  0.34459  1.0000
  C   C28       1.0  0.10157  0.07340  0.36853  1.0000
  C   C29       1.0  0.13597  0.07634  0.36829  1.0000
  C   C30       1.0  0.15345  0.07087  0.34402  1.0000
  C   C31       1.0  0.13655  0.06269  0.32014  1.0000
  H   H21       1.0  0.05816  0.06361  0.34494  1.0000
  H   H22       1.0  0.08793  0.07757  0.38727  1.0000
  H   H23       1.0  0.17993  0.07311  0.34363  1.0000
  H   H24       1.0  0.33140  0.31455  0.43547  1.0000
  C   C32       1.0  0.43396  0.45189  0.32772  1.0000
  C   C33       1.0  0.40228  0.43726  0.32773  1.0000
  C   C34       1.0  0.38013  0.44233  0.34958  1.0000
  C   C35       1.0  0.38987  0.46144  0.37190  1.0000
  C   C36       1.0  0.42144  0.47618  0.37183  1.0000
  C   C37       1.0  0.44332  0.47168  0.34973  1.0000
  H   H25       1.0  0.39484  0.42209  0.31067  1.0000
  H   H26       1.0  0.35574  0.43115  0.34930  1.0000
  C   C38       1.0  0.28312  0.50351  0.50516  1.0000
  N   N1        1.0  0.15863  0.16974  0.36390  1.0000
  C   C39       1.0  0.18192  0.17313  0.34359  1.0000
  C   C40       1.0  0.12833  0.15625  0.35850  1.0000
  C   C41       1.0  0.17543  0.16194  0.31722  1.0000
  C   C42       1.0  0.12077  0.14548  0.33223  1.0000
  C   C43       1.0  0.14464  0.14798  0.31158  1.0000
  C   C44       1.0  0.16561  0.18104  0.39160  1.0000
  H   H27       1.0  0.20594  0.18395  0.34778  1.0000
  H   H28       1.0  0.11017  0.15279  0.37476  1.0000
  H   H29       1.0  0.19435  0.16373  0.30141  1.0000
  H   H30       1.0  0.21076  0.06374  0.53090  1.0000
  H   H31       1.0  0.13938  0.13852  0.29139  1.0000
  H   H32       1.0  0.15092  0.20283  0.39674  1.0000
  H   H33       1.0  0.15965  0.16093  0.40644  1.0000
  H   H34       1.0  0.51087  0.33582  0.23157  1.0000
  N   N2        1.0  0.12344  0.39529  0.31450  1.0000
  C   C45       1.0  0.50170  0.39642  0.25028  1.0000
  C   C46       1.0  0.09267  0.40273  0.30633  1.0000
  N   N3        1.0  0.35433  0.35698  0.41676  1.0000
  C   C47       1.0  0.35550  0.05244  0.44895  1.0000
  H   H35       1.0  0.07208  0.40172  0.32068  1.0000
  C   C48       1.0  0.51901  0.36807  0.16810  1.0000
  H   H36       1.0  0.33402  0.37143  0.45500  1.0000
  H   H37       1.0  0.48062  0.24065  0.10439  1.0000
  C   C49       1.0  0.38698  0.04662  0.43881  1.0000
  H   H38       1.0  0.51978  0.38502  0.26370  1.0000
  H   H39       1.0  0.37791  0.36606  0.45416  1.0000
  C   C50       1.0  0.14521  0.40804  0.26977  1.0000
  H   H40       1.0  0.15023  0.05860  0.30140  1.0000
  C   C51       1.0  0.12823  0.38361  0.34232  1.0000
  H   H41       1.0  0.17968  0.48400  0.51418  1.0000
  H   H42       1.0  0.35186  0.06738  0.46710  1.0000
  H   H43       1.0  0.30399  0.04336  0.44342  1.0000
  H   H44       1.0  0.42439  0.04386  0.31402  1.0000
  C   C52       1.0  0.36442  0.35375  0.36848  1.0000
  C   C53       1.0  0.36656  0.37086  0.39317  1.0000
  Fe  Fe10      1.0  0.03277  0.48549  0.30811  1.0000
  C   C54       1.0  0.48618  0.19741  0.12940  1.0000
  C   C55       1.0  0.25479  0.03102  0.48676  1.0000
  C   C56       1.0  0.35010  0.32204  0.36815  1.0000
  H   H45       1.0  0.42920  0.49095  0.38902  1.0000
  S   S22       1.0  0.48315  0.04469  0.27483  1.0000
  C   C57       1.0  0.19103  0.49091  0.53326  1.0000
  H   H46       1.0  0.24526  0.03505  0.46673  1.0000
  H   H47       1.0  0.50436  0.42353  0.25318  1.0000
  H   H48       1.0  0.37374  0.36513  0.34977  1.0000
  H   H49       1.0  0.17404  0.39232  0.30322  1.0000
  C   C58       1.0  0.32844  0.03906  0.43555  1.0000
  C   C59       1.0  0.37601  0.05478  0.32951  1.0000
  H   H50       1.0  0.30049  0.06905  0.53532  1.0000
  H   H51       1.0  0.12409  0.35647  0.34331  1.0000
  N   N4        1.0  0.50743  0.38681  0.22184  1.0000
  C   C60       1.0  0.41049  0.05586  0.32995  1.0000
  H   H52       1.0  0.36054  0.40203  0.43910  1.0000
  H   H53       1.0  0.34797  0.30851  0.34916  1.0000
  C   C61       1.0  0.08752  0.41306  0.27964  1.0000
  H   H54       1.0  0.32720  0.28312  0.39247  1.0000
  H   H55       1.0  0.06329  0.41939  0.27324  1.0000
  H   H56       1.0  0.16607  0.41062  0.25583  1.0000
  S   S23       1.0  0.23357  0.50676  0.46772  1.0000
  H   H57       1.0  0.03266  0.37274  0.18071  1.0000
  H   H58       1.0  0.40822  0.05715  0.44894  1.0000
  C   C62       1.0  0.25618  0.52053  0.49603  1.0000
  H   H59       1.0  0.52194  0.31877  0.18398  1.0000
  Fe  Fe11      1.0  0.50758  0.47586  0.29362  1.0000
  S   S24       1.0  0.51211  0.49775  0.25179  1.0000
  C   C63       1.0  0.49304  0.21758  0.10688  1.0000
  H   H60       1.0  0.50640  0.43610  0.20672  1.0000
  C   C64       1.0  0.29883  0.51368  0.52912  1.0000
  H   H61       1.0  0.51690  0.41992  0.15891  1.0000
  Fe  Fe12      1.0  0.51931  0.08345  0.25940  1.0000
  H   H62       1.0  0.31911  0.49989  0.53651  1.0000
  C   C65       1.0  0.50260  0.16796  0.13214  1.0000
  S   S25       1.0  0.03298  0.42562  0.21983  1.0000
  H   H63       1.0  0.49768  0.15215  0.14969  1.0000
  H   H64       1.0  0.47648  0.38880  0.25712  1.0000
  C   C66       1.0  0.51461  0.40118  0.17461  1.0000
  C   C67       1.0  0.28566  0.05012  0.52549  1.0000
  Fe  Fe13      1.0  0.02676  0.05188  0.28563  1.0000
  H   H65       1.0  0.22610  0.45235  0.53113  1.0000
  C   C68       1.0  0.51725  0.34440  0.18868  1.0000
  H   H66       1.0  0.32994  0.50471  0.44975  1.0000
  H   H67       1.0  0.52156  0.22382  0.07010  1.0000
  C   C69       1.0  0.32026  0.31248  0.84977  1.0000
  H   H68       1.0  0.41685  0.47498  0.84734  1.0000
  C   C70       1.0  0.02712  0.27605  0.97194  1.0000
  N   N5        1.0  0.03751  0.17565  0.91498  1.0000
  H   H69       1.0  0.22759  0.08239  0.57687  1.0000
  C   C71       1.0  0.09089  0.34295  0.96937  1.0000
  C   C72       1.0  0.22291  0.33744  0.87188  1.0000
  H   H70       1.0  0.11089  0.45118  0.78224  1.0000
  H   H71       1.0  0.02549  0.33751  0.03099  1.0000
  Fe  Fe14      1.0  0.43637  0.24492  0.86797  1.0000
  S   S26       1.0  0.41625  0.23176  0.90955  1.0000
  S   S27       1.0  0.43711  0.21021  0.83183  1.0000
  Fe  Fe15      1.0  0.45800  0.31473  0.88485  1.0000
  S   S28       1.0  0.43989  0.30696  0.92792  1.0000
  S   S29       1.0  0.48837  0.36108  0.87517  1.0000
  Fe  Fe16      1.0  0.46222  0.25716  0.92505  1.0000
  H   H72       1.0  0.05633  0.36028  0.86906  1.0000
  Fe  Fe17      1.0  0.39548  0.28263  0.90877  1.0000
  S   S30       1.0  0.34528  0.29796  0.92411  1.0000
  S   S31       1.0  0.48351  0.26665  0.88324  1.0000
  S   S32       1.0  0.41222  0.29412  0.86582  1.0000
  Fe  Fe18      1.0  0.09179  0.24558  0.87168  1.0000
  S   S33       1.0  0.12086  0.22239  0.90425  1.0000
  S   S34       1.0  0.05565  0.21593  0.84655  1.0000
  Fe  Fe19      1.0  0.11912  0.31464  0.88385  1.0000
  S   S35       1.0  0.15019  0.29661  0.91772  1.0000
  S   S36       1.0  0.12774  0.36833  0.87258  1.0000
  Fe  Fe20      1.0  0.16270  0.25534  0.88935  1.0000
  S   S37       1.0  0.21276  0.23517  0.87938  1.0000
  Fe  Fe21      1.0  0.10556  0.26556  0.92972  1.0000
  S   S38       1.0  0.09163  0.25711  0.97408  1.0000
  S   S39       1.0  0.13457  0.27535  0.85448  1.0000
  S   S40       1.0  0.07344  0.28694  0.89815  1.0000
  C   C73       1.0  0.05086  0.18777  0.93842  1.0000
  C   C74       1.0  0.45488  0.50503  0.86557  1.0000
  S   S41       1.0  0.45719  0.46752  0.78559  1.0000
  C   C75       1.0  0.46689  0.43703  0.80948  1.0000
  C   C76       1.0  0.44612  0.40899  0.81281  1.0000
  C   C77       1.0  0.45263  0.38504  0.83255  1.0000
  C   C78       1.0  0.48014  0.38896  0.84887  1.0000
  C   C79       1.0  0.50112  0.41674  0.84525  1.0000
  C   C80       1.0  0.49449  0.44074  0.82571  1.0000
  Fe  Fe22      1.0  0.49811  0.03240  0.81303  1.0000
  H   H73       1.0  0.43639  0.36365  0.83516  1.0000
  C   C81       1.0  0.47927  0.50633  0.88503  1.0000
  H   H74       1.0  0.51081  0.46202  0.82316  1.0000
  C   C82       1.0  0.30877  0.27724  0.91413  1.0000
  C   C83       1.0  0.30910  0.25167  0.89500  1.0000
  C   C84       1.0  0.27939  0.23823  0.88521  1.0000
  C   C85       1.0  0.24920  0.25015  0.89453  1.0000
  C   C86       1.0  0.24886  0.27495  0.91433  1.0000
  C   C87       1.0  0.27857  0.28838  0.92411  1.0000
  H   H75       1.0  0.33224  0.24276  0.88733  1.0000
  H   H76       1.0  0.27980  0.21889  0.87002  1.0000
  H   H77       1.0  0.22578  0.28413  0.92179  1.0000
  H   H78       1.0  0.27816  0.30798  0.93907  1.0000
  H   H79       1.0  0.21336  0.04689  0.73630  1.0000
  N   N6        1.0  0.28665  0.32061  0.85783  1.0000
  H   H80       1.0  0.08742  0.11193  0.90285  1.0000
  C   C88       1.0  0.22850  0.31310  0.85239  1.0000
  S   S42       1.0  0.50103  0.07104  0.84636  1.0000
  Fe  Fe23      1.0  0.03447  0.51003  0.80499  1.0000
  C   C89       1.0  0.22172  0.51092  0.58061  1.0000
  H   H81       1.0  0.24542  0.37179  0.89987  1.0000
  H   H82       1.0  0.39031  0.13164  0.85205  1.0000
  H   H83       1.0  0.37982  0.16121  0.80942  1.0000
  C   C90       1.0  0.06370  0.34414  0.80131  1.0000
  C   C91       1.0  0.20437  0.04052  0.59727  1.0000
  H   H84       1.0  0.46455  0.43093  0.93942  1.0000
  C   C92       1.0  0.09677  0.39485  0.86238  1.0000
  C   C93       1.0  0.10595  0.42669  0.85340  1.0000
  C   C94       1.0  0.08249  0.44804  0.84352  1.0000
  C   C95       1.0  0.38644  0.13547  0.80872  1.0000
  H   H85       1.0  0.42481  0.40592  0.80021  1.0000
  H   H86       1.0  0.13145  0.43479  0.85375  1.0000
  H   H87       1.0  0.09001  0.47236  0.83655  1.0000
  C   C96       1.0  0.07857  0.10778  0.82859  1.0000
  C   C97       1.0  0.04831  0.12031  0.82163  1.0000
  C   C98       1.0  0.04176  0.15374  0.82663  1.0000
  C   C99       1.0  0.06532  0.17474  0.83875  1.0000
  C   C100      1.0  0.09556  0.16217  0.84562  1.0000
  C   C101      1.0  0.10213  0.12886  0.84055  1.0000
  H   H88       1.0  0.19799  0.34347  0.87774  1.0000
  H   H89       1.0  0.09611  0.35728  0.92721  1.0000
  H   H90       1.0  0.11399  0.17809  0.85479  1.0000
  H   H91       1.0  0.45144  0.40228  0.91352  1.0000
  C   C102      1.0  0.48312  0.10956  0.84184  1.0000
  C   C103      1.0  0.47501  0.12845  0.86484  1.0000
  C   C104      1.0  0.46155  0.15969  0.86198  1.0000
  C   C105      1.0  0.45585  0.17209  0.83604  1.0000
  C   C106      1.0  0.46416  0.15333  0.81302  1.0000
  H   H92       1.0  0.16548  0.06640  0.76308  1.0000
  C   C107      1.0  0.09617  0.35592  0.80114  1.0000
  H   H93       1.0  0.45524  0.17399  0.87985  1.0000
  H   H94       1.0  0.30199  0.35646  0.88712  1.0000
  H   H95       1.0  0.11268  0.13426  0.94513  1.0000
  H   H96       1.0  0.45990  0.16289  0.79289  1.0000
  H   H97       1.0  0.20804  0.29963  0.84340  1.0000
  H   H98       1.0  0.12564  0.11938  0.84589  1.0000
  C   C108      1.0  0.04945  0.37069  0.94460  1.0000
  H   H99       1.0  0.48408  0.10784  0.79804  1.0000
  C   C109      1.0  0.24951  0.35337  0.88424  1.0000
  H   H100      1.0  0.02818  0.41256  0.77726  1.0000
  C   C110      1.0  0.28143  0.34466  0.87687  1.0000
  C   C111      1.0  0.40911  0.06928  0.85740  1.0000
  C   C112      1.0  0.05215  0.26412  0.98788  1.0000
  H   H101      1.0  0.33733  0.31652  0.86692  1.0000
  H   H102      1.0  0.43039  0.05298  0.85467  1.0000
  C   C113      1.0  0.39984  0.08662  0.78324  1.0000
  H   H103      1.0  0.03142  0.28042  0.95046  1.0000
  C   C114      1.0  0.39024  0.11935  0.78378  1.0000
  C   C115      1.0  0.08752  0.44137  0.77375  1.0000
  H   H104      1.0  0.50255  0.48021  0.91690  1.0000
  H   H105      1.0  0.17733  0.51540  0.69882  1.0000
  C   C116      1.0  0.21300  0.05978  0.57457  1.0000
  C   C117      1.0  0.04988  0.14826  0.90268  1.0000
  H   H106      1.0  0.12888  0.39712  0.79233  1.0000
  H   H107      1.0  0.43416  0.49836  0.72284  1.0000
  C   C118      1.0  0.06370  0.38477  0.86218  1.0000
  H   H108      1.0  0.26472  0.28539  0.83089  1.0000
  S   S43       1.0  0.49760  0.23246  0.95324  1.0000
  H   H109      1.0  0.41336  0.04520  0.80710  1.0000
  H   H110      1.0  0.41557  0.08675  0.87404  1.0000
  H   H111      1.0  0.32179  0.28601  0.84411  1.0000
  C   C119      1.0  0.50256  0.29005  0.02125  1.0000
  H   H112      1.0  0.25358  0.47007  0.57377  1.0000
  S   S44       1.0  0.48580  0.04071  0.76925  1.0000
  H   H113      1.0  0.40273  0.07361  0.76401  1.0000
  H   H114      1.0  0.47916  0.11888  0.88498  1.0000
  H   H115      1.0  0.47181  0.28635  0.98596  1.0000
  C   C120      1.0  0.04621  0.25876  0.01579  1.0000
  S   S45       1.0  0.08806  0.06602  0.82309  1.0000
  C   C121      1.0  0.23256  0.48306  0.56665  1.0000
  H   H116      1.0  0.04108  0.38164  0.92592  1.0000
  H   H117      1.0  0.04104  0.20943  0.94824  1.0000
  C   C122      1.0  0.43965  0.44991  0.88052  1.0000
  Fe  Fe24      1.0  0.48332  0.51742  0.78808  1.0000
  C   C123      1.0  0.07712  0.13300  0.91326  1.0000
  S   S46       1.0  0.11723  0.51270  0.72984  1.0000
  N   N7        1.0  0.07939  0.40789  0.78348  1.0000
  C   C124      1.0  0.10366  0.38798  0.79194  1.0000
  H   H118      1.0  0.48866  0.30954  0.03055  1.0000
  H   H119      1.0  0.11531  0.34063  0.80881  1.0000
  C   C125      1.0  0.42138  0.52185  0.72631  1.0000
  H   H120      1.0  0.08959  0.44176  0.75116  1.0000
  C   C126      1.0  0.40590  0.07060  0.80772  1.0000
  H   H121      1.0  0.38719  0.05409  0.86368  1.0000
  C   C127      1.0  0.04953  0.43781  0.84258  1.0000
  N   N8        1.0  0.40277  0.08677  0.83204  1.0000
  H   H122      1.0  0.08883  0.18319  0.96801  1.0000
  H   H123      1.0  0.42469  0.42760  0.87801  1.0000
  C   C128      1.0  0.04749  0.39648  0.78342  1.0000
  C   C129      1.0  0.47765  0.12207  0.81589  1.0000
  H   H124      1.0  0.06547  0.24953  0.02827  1.0000
  C   C130      1.0  0.08039  0.35705  0.94531  1.0000
  H   H125      1.0  0.21195  0.04805  0.61747  1.0000
  C   C131      1.0  0.26071  0.30503  0.84548  1.0000
  N   N9        1.0  0.46356  0.45148  0.89967  1.0000
  C   C132      1.0  0.39262  0.11863  0.83282  1.0000
  H   H126      1.0  0.38602  0.13224  0.76490  1.0000
  H   H127      1.0  0.32880  0.32797  0.83228  1.0000
  C   C133      1.0  0.04015  0.40629  0.85242  1.0000
  C   C134      1.0  0.07787  0.17290  0.94977  1.0000
  H   H128      1.0  0.35969  0.51875  0.70856  1.0000
  C   C135      1.0  0.43501  0.47663  0.86315  1.0000
  H   H129      1.0  0.23448  0.51900  0.59872  1.0000
  H   H130      1.0  0.49374  0.41443  0.91504  1.0000
  H   H131      1.0  0.40125  0.51752  0.74157  1.0000
  C   C136      1.0  0.49295  0.27696  0.99596  1.0000
  C   C137      1.0  0.07036  0.34294  0.99253  1.0000
  C   C138      1.0  0.48334  0.47914  0.90198  1.0000
  C   C139      1.0  0.46846  0.42352  0.91787  1.0000
  H   H132      1.0  0.06827  0.45859  0.78036  1.0000
  H   H133      1.0  0.52250  0.41983  0.85776  1.0000
  H   H134      1.0  0.11456  0.33148  0.97002  1.0000
  C   C140      1.0  0.09123  0.14552  0.93693  1.0000
  H   H135      1.0  0.03002  0.10430  0.81233  1.0000
  C   C141      1.0  0.51019  0.25118  0.98407  1.0000
  H   H136      1.0  0.14684  0.03163  0.69514  1.0000
  H   H137      1.0  0.07860  0.33143  0.01100  1.0000
  H   H138      1.0  0.51139  0.21481  0.84296  1.0000
  H   H139      1.0  0.03919  0.13837  0.88424  1.0000
  H   H140      1.0  0.05753  0.31950  0.80882  1.0000
  C   C142      1.0  0.17045  0.04029  0.76197  1.0000
  C   C143      1.0  0.02944  0.37007  0.96811  1.0000
  C   C144      1.0  0.03916  0.36449  0.79235  1.0000
  C   C145      1.0  0.20343  0.04940  0.54877  1.0000
  N   N10       1.0  0.03995  0.35616  0.99162  1.0000
  S   S47       1.0  0.02590  0.51129  0.75980  1.0000
  C   C146      1.0  0.19744  0.02908  0.74694  1.0000
  Fe  Fe25      1.0  0.05270  0.02808  0.80499  1.0000
  H   H141      1.0  0.45168  0.52591  0.85221  1.0000
  C   C147      1.0  0.18074  0.51861  0.54777  1.0000
  S   S48       1.0  0.08678  0.52765  0.80135  1.0000
  C   C148      1.0  0.21716  0.47313  0.54277  1.0000
  C   C149      1.0  0.40423  0.79483  0.07879  1.0000
  C   C150      1.0  0.28407  0.57084  0.38331  1.0000
  H   H142      1.0  0.36831  0.96781  0.38368  1.0000
  C   C151      1.0  0.43948  0.74813  0.07814  1.0000
  C   C152      1.0  0.31489  0.55809  0.37779  1.0000
  C   C153      1.0  0.24762  0.00107  0.50033  1.0000
  C   C154      1.0  0.05138  0.97885  0.21189  1.0000
  C   C155      1.0  0.24589  0.54845  0.51042  1.0000
  H   H143      1.0  0.44385  0.78853  0.10663  1.0000
  C   C156      1.0  0.38751  0.78128  0.05674  1.0000
  S   S49       1.0  0.51622  0.95983  0.25709  1.0000
  C   C157      1.0  0.39086  0.02737  0.41534  1.0000
  H   H144      1.0  0.03809  0.94135  0.18267  1.0000
  C   C158      1.0  0.33298  0.54567  0.39916  1.0000
  C   C159      1.0  0.02486  0.70179  0.12195  1.0000
  H   H145      1.0  0.33524  0.54400  0.46682  1.0000
  H   H146      1.0  0.06563  0.01020  0.24510  1.0000
  H   H147      1.0  0.04310  0.99904  0.19956  1.0000
  H   H148      1.0  0.05754  0.68632  0.15311  1.0000
  C   C160      1.0  0.06371  0.98496  0.23783  1.0000
  H   H149      1.0  0.39191  0.00069  0.36686  1.0000
  H   H150      1.0  0.09346  0.94436  0.29173  1.0000
  H   H151      1.0  0.04286  0.71816  0.11193  1.0000
  S   S50       1.0  0.51523  0.59170  0.25569  1.0000
  H   H152      1.0  0.46028  0.73573  0.08637  1.0000
  C   C161      1.0  0.05111  0.77879  0.04965  1.0000
  H   H153      1.0  0.39712  0.81834  0.08726  1.0000
  H   H154      1.0  0.10658  0.98455  0.27970  1.0000
  H   H155      1.0  0.22522  0.56188  0.50333  1.0000
  C   C162      1.0  0.36846  0.99422  0.37780  1.0000
  C   C163      1.0  0.05778  0.92059  0.21901  1.0000
  H   H156      1.0  0.23273  0.98217  0.49051  1.0000
  H   H157      1.0  0.48475  0.92303  0.20600  1.0000
  N   N11       1.0  0.07282  0.95948  0.25395  1.0000
  N   N12       1.0  0.36406  0.01488  0.40204  1.0000
  C   C164      1.0  0.26158  0.55860  0.53437  1.0000
  H   H158      1.0  0.06701  0.79179  0.08995  1.0000
  H   H159      1.0  0.51575  0.89217  0.24025  1.0000
  C   C165      1.0  0.49385  0.93963  0.18935  1.0000
  C   C166      1.0  0.27186  0.57123  0.41005  1.0000
  H   H160      1.0  0.07629  0.90723  0.25786  1.0000
  H   H161      1.0  0.26945  0.57987  0.36686  1.0000
  H   H162      1.0  0.51835  0.57515  0.19319  1.0000
  C   C167      1.0  0.33880  0.53072  0.44720  1.0000
  H   H163      1.0  0.50719  0.65409  0.22945  1.0000
  H   H164      1.0  0.47528  0.94044  0.17320  1.0000
  H   H165      1.0  0.41539  0.02329  0.40735  1.0000
  C   C168      1.0  0.50512  0.80174  0.07060  1.0000
  C   C169      1.0  0.04624  0.78501  0.07756  1.0000
  C   C170      1.0  0.08531  0.96677  0.28116  1.0000
  H   H166      1.0  0.49543  0.82490  0.07753  1.0000
  H   H167      1.0  0.41753  0.68344  0.05299  1.0000
  H   H168      1.0  0.24763  0.58038  0.41458  1.0000
  H   H169      1.0  0.34857  0.99814  0.36308  1.0000
  C   C171      1.0  0.04857  0.94646  0.20242  1.0000
  C   C172      1.0  0.06978  0.92756  0.24495  1.0000
  C   C173      1.0  0.49625  0.78911  0.04500  1.0000
  H   H170      1.0  0.50344  0.88253  0.16413  1.0000
  C   C174      1.0  0.33312  0.02039  0.41190  1.0000
  N   N13       1.0  0.42342  0.73541  0.05611  1.0000
  H   H171      1.0  0.36722  0.79404  0.04798  1.0000
  H   H172      1.0  0.28071  0.55855  0.45154  1.0000
  H   H173      1.0  0.06595  0.97819  0.29397  1.0000
  C   C175      1.0  0.43026  0.77808  0.08973  1.0000
  C   C176      1.0  0.29067  0.55873  0.43092  1.0000
  H   H174      1.0  0.49657  0.96473  0.19840  1.0000
  H   H175      1.0  0.31183  0.01082  0.40123  1.0000
  C   C177      1.0  0.39738  0.75127  0.04568  1.0000
  H   H176      1.0  0.35655  0.53505  0.39457  1.0000
  H   H177      1.0  0.17999  0.01072  0.52572  1.0000
  C   C178      1.0  0.25902  0.99564  0.52668  1.0000
  N   N14       1.0  0.32079  0.54612  0.42533  1.0000
  H   H178      1.0  0.05455  0.89522  0.21216  1.0000
  H   H179      1.0  0.32443  0.55709  0.35704  1.0000
  C   C179      1.0  0.03308  0.68389  0.14495  1.0000
  C   C180      1.0  0.27817  0.02026  0.53922  1.0000
  C   C181      1.0  0.43313  0.70387  0.04433  1.0000
  H   H180      1.0  0.45934  0.69919  0.04820  1.0000
  H   H181      1.0  0.36555  0.53067  0.44245  1.0000
  H   H182      1.0  0.16075  0.53261  0.54000  1.0000
  Fe  Fe26      1.0  0.08311  0.74868  0.93482  1.0000
  S   S51       1.0  0.06788  0.79440  0.95728  1.0000
  S   S52       1.0  0.04608  0.71788  0.91167  1.0000
  Fe  Fe27      1.0  0.15488  0.75734  0.94951  1.0000
  S   S53       1.0  0.14605  0.80379  0.97290  1.0000
  S   S54       1.0  0.20323  0.73423  0.93847  1.0000
  Fe  Fe28      1.0  0.10093  0.77717  0.98999  1.0000
  H   H183      1.0  0.14162  0.97013  0.54878  1.0000
  Fe  Fe29      1.0  0.11361  0.81728  0.93858  1.0000
  S   S55       1.0  0.11791  0.86852  0.92106  1.0000
  S   S56       1.0  0.11229  0.72921  0.96924  1.0000
  S   S57       1.0  0.12617  0.77319  0.91357  1.0000
  Fe  Fe30      1.0  0.42513  0.75792  0.92474  1.0000
  S   S58       1.0  0.46951  0.78607  0.93917  1.0000
  S   S59       1.0  0.42742  0.73708  0.88222  1.0000
  Fe  Fe31      1.0  0.38355  0.77694  0.97403  1.0000
  S   S60       1.0  0.42471  0.80723  0.99231  1.0000
  S   S61       1.0  0.33548  0.77497  0.99774  1.0000
  Fe  Fe32      1.0  0.43427  0.82559  0.94962  1.0000
  S   S62       1.0  0.44296  0.87915  0.93869  1.0000
  Fe  Fe33      1.0  0.45629  0.76508  0.98032  1.0000
  S   S63       1.0  0.49478  0.74059  0.00531  1.0000
  S   S64       1.0  0.39050  0.79896  0.93253  1.0000
  S   S65       1.0  0.41446  0.73313  0.96496  1.0000
  Fe  Fe34      1.0  0.25740  0.94931  0.58812  1.0000
  S   S66       1.0  0.21449  0.93180  0.61437  1.0000
  Fe  Fe35      1.0  0.30424  0.94687  0.63550  1.0000
  S   S67       1.0  0.26495  0.93068  0.66545  1.0000
  S   S68       1.0  0.35749  0.94915  0.64686  1.0000
  Fe  Fe36      1.0  0.24892  0.89588  0.63227  1.0000
  S   S69       1.0  0.23342  0.84444  0.64630  1.0000
  Fe  Fe37      1.0  0.23429  0.96779  0.64493  1.0000
  S   S70       1.0  0.20145  0.00376  0.66638  1.0000
  S   S71       1.0  0.29008  0.90985  0.60329  1.0000
  S   S72       1.0  0.27521  0.98764  0.61774  1.0000
  Fe  Fe38      1.0  0.28626  0.59097  0.60277  1.0000
  S   S73       1.0  0.25083  0.63035  0.59299  1.0000
  Fe  Fe39      1.0  0.29039  0.61206  0.66259  1.0000
  S   S74       1.0  0.25562  0.65326  0.65758  1.0000
  S   S75       1.0  0.30580  0.59691  0.70445  1.0000
  Fe  Fe40      1.0  0.22643  0.61655  0.63305  1.0000
  S   S76       1.0  0.17156  0.61213  0.63920  1.0000
  Fe  Fe41      1.0  0.28318  0.66367  0.61840  1.0000
  S   S77       1.0  0.30082  0.71444  0.60421  1.0000
  S   S78       1.0  0.25921  0.57461  0.64076  1.0000
  S   S79       1.0  0.32076  0.62502  0.62536  1.0000
  Fe  Fe42      1.0  0.49931  0.95775  0.80645  1.0000
  H   H184      1.0  0.19005  0.55255  0.76736  1.0000
  N   N15       1.0  0.17742  0.00076  0.56834  1.0000
  H   H185      1.0  0.24144  0.00323  0.71499  1.0000
  S   S80       1.0  0.48622  0.95990  0.76249  1.0000
  S   S81       1.0  0.46002  0.99191  0.81968  1.0000
  N   N16       1.0  0.20324  0.99606  0.74515  1.0000
  H   H186      1.0  0.43077  0.70416  0.02182  1.0000
  H   H187      1.0  0.37788  0.56916  0.63289  1.0000
  Fe  Fe43      1.0  0.05608  0.97075  0.76486  1.0000
  H   H188      1.0  0.15674  0.68136  0.94670  1.0000
  H   H189      1.0  0.34274  0.87606  0.63648  1.0000
  S   S82       1.0  0.07090  0.97646  0.80813  1.0000
  C   C182      1.0  0.09580  0.84850  0.83766  1.0000
  Fe  Fe44      1.0  0.06763  0.57867  0.80522  1.0000
  H   H190      1.0  0.29772  0.76261  0.68695  1.0000
  C   C183      1.0  0.16265  0.53557  0.69228  1.0000
  H   H191      1.0  0.49503  0.52825  0.88678  1.0000
  S   S83       1.0  0.06232  0.58466  0.76030  1.0000
  H   H192      1.0  0.18695  0.94737  0.75633  1.0000
  Fe  Fe45      1.0  0.48985  0.57830  0.82388  1.0000
  C   C184      1.0  0.13156  0.53987  0.70408  1.0000
  Fe  Fe46      1.0  0.47841  0.58559  0.76336  1.0000
  S   S84       1.0  0.45676  0.61403  0.72893  1.0000
  H   H193      1.0  0.11974  0.81739  0.86623  1.0000
  Fe  Fe47      1.0  0.52323  0.00200  0.76026  1.0000
  C   C185      1.0  0.34700  0.60525  0.71265  1.0000
  C   C186      1.0  0.35916  0.59276  0.73692  1.0000
  C   C187      1.0  0.39264  0.59645  0.74271  1.0000
  C   C188      1.0  0.41408  0.61265  0.72423  1.0000
  C   C189      1.0  0.40164  0.62627  0.70050  1.0000
  C   C190      1.0  0.36819  0.62252  0.69467  1.0000
  C   C191      1.0  0.09786  0.82092  0.85454  1.0000
  H   H194      1.0  0.40185  0.58640  0.76127  1.0000
  C   C192      1.0  0.03511  0.90697  0.86974  1.0000
  H   H195      1.0  0.35898  0.63256  0.67608  1.0000
  H   H196      1.0  0.18714  0.62190  0.87899  1.0000
  C   C193      1.0  0.11260  0.56586  0.69541  1.0000
  C   C194      1.0  0.12481  0.58751  0.67507  1.0000
  C   C195      1.0  0.15629  0.58372  0.66377  1.0000
  C   C196      1.0  0.17511  0.55761  0.67236  1.0000
  H   H197      1.0  0.11874  0.87439  0.98313  1.0000
  H   H198      1.0  0.08836  0.56904  0.70411  1.0000
  H   H199      1.0  0.10996  0.60745  0.66828  1.0000
  C   C197      1.0  0.36789  0.96337  0.67959  1.0000
  C   C198      1.0  0.40084  0.96380  0.68720  1.0000
  C   C199      1.0  0.40995  0.97490  0.71316  1.0000
  C   C200      1.0  0.38611  0.98560  0.73171  1.0000
  H   H200      1.0  0.10115  0.65522  0.94484  1.0000
  C   C201      1.0  0.34400  0.97409  0.69813  1.0000
  H   H201      1.0  0.41943  0.95568  0.67289  1.0000
  H   H202      1.0  0.43545  0.97535  0.71871  1.0000
  H   H203      1.0  0.37553  0.76724  0.62687  1.0000
  H   H204      1.0  0.31860  0.97406  0.69237  1.0000
  C   C202      1.0  0.16815  0.98524  0.68447  1.0000
  C   C203      1.0  0.08062  0.60765  0.91122  1.0000
  C   C204      1.0  0.11973  0.99080  0.71374  1.0000
  C   C205      1.0  0.11765  0.95656  0.71724  1.0000
  C   C206      1.0  0.14038  0.93670  0.70377  1.0000
  C   C207      1.0  0.16556  0.95098  0.68739  1.0000
  S   S85       1.0  0.48051  0.59350  0.86741  1.0000
  S   S86       1.0  0.50777  0.90700  0.82288  1.0000
  C   C208      1.0  0.16860  0.62884  0.89387  1.0000
  H   H205      1.0  0.18324  0.93544  0.67739  1.0000
  C   C209      1.0  0.25002  0.80840  0.63209  1.0000
  C   C210      1.0  0.23945  0.77755  0.64249  1.0000
  C   C211      1.0  0.25392  0.74841  0.63331  1.0000
  C   C212      1.0  0.27925  0.74994  0.61372  1.0000
  C   C213      1.0  0.28931  0.78073  0.60285  1.0000
  C   C214      1.0  0.27474  0.80988  0.61196  1.0000
  H   H206      1.0  0.22025  0.77625  0.65800  1.0000
  H   H207      1.0  0.24590  0.72488  0.64176  1.0000
  H   H208      1.0  0.30881  0.78207  0.58761  1.0000
  C   C215      1.0  0.46456  0.88690  0.90788  1.0000
  C   C216      1.0  0.47557  0.86098  0.89163  1.0000
  C   C217      1.0  0.49047  0.86756  0.86614  1.0000
  C   C218      1.0  0.49360  0.90000  0.85646  1.0000
  C   C219      1.0  0.48327  0.92602  0.87292  1.0000
  C   C220      1.0  0.46908  0.91948  0.89871  1.0000
  H   H209      1.0  0.47197  0.83582  0.89835  1.0000
  S   S87       1.0  0.24706  0.95861  0.54360  1.0000
  H   H210      1.0  0.48608  0.95116  0.86576  1.0000
  H   H211      1.0  0.39858  0.79979  0.87197  1.0000
  C   C221      1.0  0.43879  0.69586  0.87853  1.0000
  C   C222      1.0  0.44539  0.67660  0.90123  1.0000
  C   C223      1.0  0.45713  0.64465  0.89766  1.0000
  C   C224      1.0  0.46240  0.63199  0.87141  1.0000
  C   C225      1.0  0.45496  0.65090  0.84873  1.0000
  C   C226      1.0  0.44311  0.68279  0.85231  1.0000
  H   H212      1.0  0.44179  0.68642  0.92148  1.0000
  C   C227      1.0  0.15133  0.66243  0.93171  1.0000
  H   H213      1.0  0.45882  0.64122  0.82842  1.0000
  H   H214      1.0  0.43789  0.69757  0.83470  1.0000
  C   C228      1.0  0.08554  0.88288  0.90172  1.0000
  C   C229      1.0  0.08982  0.91291  0.88788  1.0000
  C   C230      1.0  0.06473  0.92489  0.87190  1.0000
  S   S88       1.0  0.50910  0.54222  0.75235  1.0000
  C   C231      1.0  0.14499  0.00510  0.69741  1.0000
  C   C232      1.0  0.05574  0.86511  0.89998  1.0000
  H   H215      1.0  0.11269  0.92695  0.88945  1.0000
  H   H216      1.0  0.06821  0.94822  0.86154  1.0000
  H   H217      1.0  0.17843  0.94996  0.55860  1.0000
  H   H218      1.0  0.05223  0.84192  0.91063  1.0000
  C   C233      1.0  0.06086  0.69196  0.88568  1.0000
  C   C234      1.0  0.09403  0.69271  0.87804  1.0000
  C   C235      1.0  0.10568  0.67033  0.85856  1.0000
  C   C236      1.0  0.08443  0.64660  0.84703  1.0000
  C   C237      1.0  0.31487  0.77692  0.67424  1.0000
  C   C238      1.0  0.33762  0.76101  0.65767  1.0000
  H   H219      1.0  0.11091  0.71001  0.88751  1.0000
  H   H220      1.0  0.13150  0.67070  0.85311  1.0000
  C   C239      1.0  0.35630  0.81395  0.63997  1.0000
  C   C240      1.0  0.23973  0.74755  0.95449  1.0000
  C   C241      1.0  0.23906  0.76390  0.97958  1.0000
  C   C242      1.0  0.26858  0.77236  0.99258  1.0000
  C   C243      1.0  0.29894  0.76523  0.98032  1.0000
  C   C244      1.0  0.29962  0.74951  0.95496  1.0000
  C   C245      1.0  0.27010  0.74037  0.94226  1.0000
  H   H221      1.0  0.21582  0.76936  0.98926  1.0000
  H   H222      1.0  0.26787  0.78444  0.01222  1.0000
  H   H223      1.0  0.32286  0.74377  0.94539  1.0000
  H   H224      1.0  0.27081  0.72767  0.92289  1.0000
  S   S89       1.0  0.09095  0.78352  0.03525  1.0000
  H   H225      1.0  0.08077  0.90383  0.81368  1.0000
  C   C246      1.0  0.50799  0.75883  0.03610  1.0000
  C   C247      1.0  0.18586  0.01945  0.54598  1.0000
  C   C248      1.0  0.02416  0.77024  0.03373  1.0000
  C   C249      1.0  0.03050  0.87724  0.88410  1.0000
  H   H226      1.0  0.25305  0.57976  0.54558  1.0000
  C   C250      1.0  0.07123  0.79859  0.85682  1.0000
  H   H227      1.0  0.13891  0.96594  0.78296  1.0000
  N   N17       1.0  0.06894  0.86919  0.99714  1.0000
  H   H228      1.0  0.13186  0.59512  0.87841  1.0000
  C   C251      1.0  0.35852  0.77957  0.64042  1.0000
  C   C252      1.0  0.23213  0.98459  0.73007  1.0000
  S   S90       1.0  0.08851  0.93799  0.73972  1.0000
  C   C253      1.0  0.03926  0.66931  0.87314  1.0000
  H   H229      1.0  0.33816  0.73424  0.65735  1.0000
  H   H230      1.0  0.42933  0.79769  0.82810  1.0000
  N   N18       1.0  0.40509  0.88164  0.85865  1.0000
  C   C254      1.0  0.42117  0.88072  0.83395  1.0000
  C   C255      1.0  0.39663  0.85302  0.87211  1.0000
  C   C256      1.0  0.43025  0.85059  0.82257  1.0000
  C   C257      1.0  0.40496  0.82246  0.86115  1.0000
  C   C258      1.0  0.42212  0.82130  0.83636  1.0000
  C   C259      1.0  0.39565  0.91332  0.87037  1.0000
  H   H231      1.0  0.42823  0.90339  0.82334  1.0000
  H   H232      1.0  0.38398  0.85379  0.89173  1.0000
  Fe  Fe48      1.0  0.45027  0.99780  0.77520  1.0000
  S   S91       1.0  0.39684  0.99973  0.76440  1.0000
  S   S92       1.0  0.52120  0.53439  0.81780  1.0000
  H   H233      1.0  0.37010  0.91856  0.86488  1.0000
  H   H234      1.0  0.39751  0.91287  0.89297  1.0000
  H   H235      1.0  0.41228  0.93377  0.86300  1.0000
  C   C260      1.0  0.04176  0.83197  0.82547  1.0000
  C   C261      1.0  0.05653  0.88130  0.97365  1.0000
  N   N19       1.0  0.19638  0.52852  0.57091  1.0000
  H   H236      1.0  0.41808  0.63903  0.68623  1.0000
  H   H237      1.0  0.13877  0.91018  0.70628  1.0000
  H   H238      1.0  0.07688  0.87629  0.78486  1.0000
  N   N20       1.0  0.33355  0.82929  0.65600  1.0000
  H   H239      1.0  0.04111  0.89055  0.80308  1.0000
  H   H240      1.0  0.07529  0.59702  0.89082  1.0000
  H   H241      1.0  0.11643  0.86598  0.83641  1.0000
  S   S93       1.0  0.30577  0.55051  0.57559  1.0000
  H   H242      1.0  0.46084  0.93963  0.91132  1.0000
  H   H243      1.0  0.03440  0.62844  0.84503  1.0000
  S   S94       1.0  0.10115  0.61537  0.82655  1.0000
  Fe  Fe49      1.0  0.07727  0.53232  0.75695  1.0000
  H   H244      1.0  0.37231  0.82820  0.62624  1.0000
  H   H245      1.0  0.29451  0.82344  0.68525  1.0000
  H   H246      1.0  0.28713  0.01635  0.55948  1.0000
  C   C262      1.0  0.31316  0.81130  0.67314  1.0000
  H   H247      1.0  0.45629  0.55424  0.68812  1.0000
  N   N21       1.0  0.11337  0.62352  0.91165  1.0000
  C   C263      1.0  0.18640  0.01096  0.59375  1.0000
  C   C264      1.0  0.38686  0.55896  0.65166  1.0000
  H   H248      1.0  0.22584  0.96197  0.71819  1.0000
  C   C265      1.0  0.35312  0.98518  0.72413  1.0000
  H   H249      1.0  0.06144  0.62598  0.91554  1.0000
  C   C266      1.0  0.15566  0.98393  0.77344  1.0000
  H   H250      1.0  0.46270  0.62997  0.91523  1.0000
  H   H251      1.0  0.13809  0.58270  0.77132  1.0000
  H   H252      1.0  0.44423  0.85017  0.80356  1.0000
  H   H253      1.0  0.47991  0.80260  0.03238  1.0000
  H   H254      1.0  0.10873  0.89637  0.01415  1.0000
  H   H255      1.0  0.50583  0.74880  0.89521  1.0000
  N   N22       1.0  0.17592  0.62757  0.72114  1.0000
  C   C267      1.0  0.15229  0.61771  0.73981  1.0000
  C   C268      1.0  0.20507  0.61179  0.71946  1.0000
  C   C269      1.0  0.15712  0.59075  0.75683  1.0000
  C   C270      1.0  0.21069  0.58467  0.73607  1.0000
  C   C271      1.0  0.18638  0.57395  0.75471  1.0000
  C   C272      1.0  0.17035  0.65609  0.70371  1.0000
  H   H256      1.0  0.12928  0.63036  0.74139  1.0000
  H   H257      1.0  0.22406  0.61975  0.70498  1.0000
  H   H258      1.0  0.34279  0.57969  0.75104  1.0000
  H   H259      1.0  0.23369  0.57200  0.73424  1.0000
  H   H260      1.0  0.11288  0.85203  0.01425  1.0000
  H   H261      1.0  0.14484  0.65528  0.69618  1.0000
  H   H262      1.0  0.17485  0.67933  0.71519  1.0000
  H   H263      1.0  0.18662  0.65616  0.68528  1.0000
  N   N23       1.0  0.06792  0.85383  0.82353  1.0000
  H   H264      1.0  0.14776  0.96027  0.58387  1.0000
  H   H265      1.0  0.51142  0.73230  0.84700  1.0000
  H   H266      1.0  0.30502  0.87213  0.65539  1.0000
  H   H267      1.0  0.19910  0.55408  0.66358  1.0000
  C   C273      1.0  0.43078  0.55026  0.68280  1.0000
  C   C274      1.0  0.18283  0.97357  0.75823  1.0000
  C   C275      1.0  0.12012  0.64732  0.93068  1.0000
  C   C276      1.0  0.06666  0.88239  0.80534  1.0000
  C   C277      1.0  0.05103  0.64654  0.85393  1.0000
  C   C278      1.0  0.41990  0.56273  0.65812  1.0000
  C   C279      1.0  0.51577  0.72497  0.89027  1.0000
  H   H268      1.0  0.10221  0.00627  0.72398  1.0000
  C   C280      1.0  0.10403  0.87333  0.00247  1.0000
  C   C281      1.0  0.51891  0.71579  0.86289  1.0000
  H   H269      1.0  0.28296  0.83346  0.60368  1.0000
  H   H270      1.0  0.43684  0.57601  0.64450  1.0000
  H   H271      1.0  0.34335  0.87672  0.67308  1.0000
  C   C282      1.0  0.17556  0.65342  0.91300  1.0000
  H   H272      1.0  0.19956  0.66578  0.91330  1.0000
  C   C283      1.0  0.13728  0.61376  0.89369  1.0000
  C   C284      1.0  0.51911  0.71348  0.93904  1.0000
  H   H273      1.0  0.07229  0.77721  0.87007  1.0000
  H   H274      1.0  0.07247  0.89402  0.95892  1.0000
  S   S95       1.0  0.45004  0.55935  0.79676  1.0000
  C   C285      1.0  0.33114  0.86525  0.65524  1.0000
  C   C286      1.0  0.04856  0.85447  0.01627  1.0000
  H   H275      1.0  0.07865  0.58771  0.92665  1.0000
  H   H276      1.0  0.05826  0.84576  0.03525  1.0000
  H   H277      1.0  0.33461  0.99355  0.73838  1.0000
  H   H278      1.0  0.17728  0.57703  0.57165  1.0000
  H   H279      1.0  0.49273  0.71097  0.94493  1.0000
  H   H280      1.0  0.25201  0.97923  0.74432  1.0000
  H   H281      1.0  0.49843  0.84736  0.85347  1.0000
  C   C287      1.0  0.28777  0.54089  0.54406  1.0000
  H   H282      1.0  0.12819  0.02587  0.78668  1.0000
  C   C288      1.0  0.36518  0.54276  0.66982  1.0000
  C   C289      1.0  0.16038  0.96873  0.56475  1.0000
  S   S96       1.0  0.51555  0.60871  0.79140  1.0000
  H   H283      1.0  0.18001  0.99607  0.61150  1.0000
  N   N24       1.0  0.40929  0.53462  0.70059  1.0000
  S   S97       1.0  0.04165  0.02356  0.76037  1.0000
  H   H284      1.0  0.33925  0.54070  0.66540  1.0000
  H   H285      1.0  0.38426  0.74100  0.02847  1.0000
  C   C290      1.0  0.04298  0.80410  0.84220  1.0000
  H   H286      1.0  0.20511  0.56897  0.59803  1.0000
  C   C291      1.0  0.14948  0.01751  0.77530  1.0000
  H   H287      1.0  0.43878  0.54003  0.73554  1.0000
  C   C292      1.0  0.18519  0.55758  0.58580  1.0000
  H   H288      1.0  0.16444  0.55066  0.59986  1.0000
  H   H289      1.0  0.02764  0.76537  0.01221  1.0000
  C   C293      1.0  0.37691  0.53052  0.69428  1.0000
  H   H290      1.0  0.97836  0.36763  0.25710  1.0000
  S   S98       1.0  0.55774  0.45390  0.29143  1.0000
  Fe  Fe50      1.0  0.57503  0.50270  0.30886  1.0000
  H   H291      1.0  0.84766  0.10635  0.49004  1.0000
  Fe  Fe51      1.0  0.56324  0.47957  0.25102  1.0000
  S   S99       1.0  0.99231  0.52199  0.30947  1.0000
  S   S100      1.0  0.98984  0.08348  0.30701  1.0000
  S   S101      1.0  0.93564  0.05035  0.26503  1.0000
  Fe  Fe52      1.0  0.97157  0.09326  0.26493  1.0000
  S   S102      1.0  0.95249  0.14319  0.25407  1.0000
  H   H292      1.0  0.56470  0.08091  0.35361  1.0000
  C   C294      1.0  0.94338  0.14258  0.12584  1.0000
  H   H293      1.0  0.56787  0.19176  0.05888  1.0000
  H   H294      1.0  0.67454  0.51514  0.36812  1.0000
  H   H295      1.0  0.58586  0.18812  0.27476  1.0000
  S   S103      1.0  0.97672  0.49993  0.24609  1.0000
  Fe  Fe53      1.0  0.96210  0.48308  0.28824  1.0000
  S   S104      1.0  0.90863  0.46942  0.29511  1.0000
  C   C295      1.0  0.59690  0.40718  0.18008  1.0000
  H   H296      1.0  0.95884  0.31401  0.19867  1.0000
  C   C296      1.0  0.96468  0.32133  0.21992  1.0000
  N   N25       1.0  0.87086  0.06423  0.47446  1.0000
  C   C297      1.0  0.89086  0.37309  0.22964  1.0000
  S   S105      1.0  0.01082  0.06511  0.24351  1.0000
  H   H297      1.0  0.85522  0.40772  0.53514  1.0000
  C   C298      1.0  0.66186  0.44380  0.44804  1.0000
  Fe  Fe54      1.0  0.57225  0.06307  0.29792  1.0000
  C   C299      1.0  0.53988  0.16906  0.19763  1.0000
  Fe  Fe55      1.0  0.79800  0.11281  0.42909  1.0000
  S   S106      1.0  0.78046  0.06380  0.44589  1.0000
  S   S107      1.0  0.84508  0.12627  0.40648  1.0000
  Fe  Fe56      1.0  0.74168  0.15007  0.45505  1.0000
  S   S108      1.0  0.71928  0.10429  0.47453  1.0000
  S   S109      1.0  0.71727  0.19943  0.45528  1.0000
  Fe  Fe57      1.0  0.77081  0.09142  0.48478  1.0000
  C   C300      1.0  0.76086  0.24229  0.39563  1.0000
  Fe  Fe58      1.0  0.73032  0.08023  0.43417  1.0000
  C   C301      1.0  0.86828  0.09037  0.49495  1.0000
  S   S110      1.0  0.79212  0.13959  0.46873  1.0000
  S   S111      1.0  0.74891  0.12693  0.41402  1.0000
  Fe  Fe59      1.0  0.75423  0.44414  0.47145  1.0000
  S   S112      1.0  0.73336  0.39504  0.45780  1.0000
  S   S113      1.0  0.72747  0.46982  0.50593  1.0000
  Fe  Fe60      1.0  0.80903  0.44353  0.42871  1.0000
  S   S114      1.0  0.79282  0.39461  0.41137  1.0000
  S   S115      1.0  0.85603  0.47097  0.41680  1.0000
  Fe  Fe61      1.0  0.74211  0.41446  0.41543  1.0000
  S   S116      1.0  0.70362  0.40032  0.38483  1.0000
  Fe  Fe62      1.0  0.78521  0.37899  0.45481  1.0000
  S   S117      1.0  0.80374  0.33053  0.47008  1.0000
  S   S118      1.0  0.75878  0.46507  0.42916  1.0000
  S   S119      1.0  0.80557  0.42640  0.47219  1.0000
  Fe  Fe63      1.0  0.60680  0.28833  0.15066  1.0000
  S   S120      1.0  0.64740  0.25266  0.14521  1.0000
  S   S121      1.0  0.59740  0.30837  0.19295  1.0000
  Fe  Fe64      1.0  0.58179  0.27706  0.09273  1.0000
  S   S122      1.0  0.62019  0.24008  0.08284  1.0000
  Fe  Fe65      1.0  0.60943  0.22046  0.12506  1.0000
  S   S123      1.0  0.60567  0.16601  0.13482  1.0000
  Fe  Fe66      1.0  0.65497  0.27551  0.10395  1.0000
  S   S124      1.0  0.70430  0.29224  0.08597  1.0000
  S   S125      1.0  0.56822  0.25446  0.13322  1.0000
  S   S126      1.0  0.61717  0.31422  0.11099  1.0000
  Fe  Fe67      1.0  0.88620  0.25552  0.11030  1.0000
  S   S127      1.0  0.89628  0.30439  0.09019  1.0000
  S   S128      1.0  0.83771  0.22974  0.12101  1.0000
  Fe  Fe68      1.0  0.95791  0.24786  0.12450  1.0000
  S   S129      1.0  0.97418  0.29658  0.10587  1.0000
  S   S130      1.0  0.99276  0.21181  0.14218  1.0000
  Fe  Fe69      1.0  0.92839  0.31563  0.12578  1.0000
  S   S131      1.0  0.91923  0.36263  0.14896  1.0000
  Fe  Fe70      1.0  0.94120  0.28129  0.07165  1.0000
  S   S132      1.0  0.91514  0.26838  0.14727  1.0000
  S   S133      1.0  0.92815  0.23111  0.08882  1.0000
  C   C302      1.0  0.74083  0.27278  0.09439  1.0000
  C   C303      1.0  0.77067  0.28458  0.08282  1.0000
  C   C304      1.0  0.80053  0.27127  0.09049  1.0000
  C   C305      1.0  0.80069  0.24581  0.10963  1.0000
  C   C306      1.0  0.77081  0.23360  0.12085  1.0000
  C   C307      1.0  0.74097  0.24712  0.11336  1.0000
  H   H298      1.0  0.77072  0.30428  0.06800  1.0000
  H   H299      1.0  0.82336  0.28069  0.08158  1.0000
  H   H300      1.0  0.77075  0.21380  0.13559  1.0000
  H   H301      1.0  0.71811  0.23776  0.12229  1.0000
  C   C308      1.0  0.74074  0.23579  0.46161  1.0000
  C   C309      1.0  0.77297  0.23463  0.47058  1.0000
  C   C310      1.0  0.79179  0.26394  0.47369  1.0000
  C   C311      1.0  0.77864  0.29455  0.46761  1.0000
  C   C312      1.0  0.74620  0.29584  0.45921  1.0000
  C   C313      1.0  0.72725  0.26652  0.45640  1.0000
  H   H302      1.0  0.78346  0.21116  0.47502  1.0000
  H   H303      1.0  0.81682  0.26281  0.48039  1.0000
  H   H304      1.0  0.73581  0.31929  0.45447  1.0000
  H   H305      1.0  0.70228  0.26760  0.44953  1.0000
  C   C314      1.0  0.64222  0.07217  0.33737  1.0000
  C   C315      1.0  0.62950  0.13161  0.39877  1.0000
  H   H306      1.0  0.90529  0.11497  0.21206  1.0000
  C   C316      1.0  0.67397  0.05497  0.38550  1.0000
  C   C317      1.0  0.68581  0.08166  0.36984  1.0000
  C   C318      1.0  0.67003  0.09018  0.34585  1.0000
  C   C319      1.0  0.55843  0.07895  0.37567  1.0000
  H   H307      1.0  0.00306  0.12858  0.21335  1.0000
  H   H308      1.0  0.70708  0.09581  0.37618  1.0000
  C   C320      1.0  0.63076  0.04493  0.35260  1.0000
  H   H309      1.0  0.01149  0.26195  0.04948  1.0000
  C   C321      1.0  0.56173  0.17852  0.17650  1.0000
  C   C322      1.0  0.57970  0.15482  0.16255  1.0000
  C   C323      1.0  0.57659  0.12167  0.17055  1.0000
  C   C324      1.0  0.55540  0.11228  0.19229  1.0000
  H   H310      1.0  0.52549  0.18746  0.20794  1.0000
  C   C325      1.0  0.00847  0.38295  0.18132  1.0000
  H   H311      1.0  0.59900  0.42390  0.16296  1.0000
  C   C326      1.0  0.95210  0.38167  0.16629  1.0000
  C   C327      1.0  0.98350  0.36876  0.16536  1.0000
  H   H312      1.0  0.91005  0.04772  0.41483  1.0000
  H   H313      1.0  0.64394  0.15288  0.39165  1.0000
  C   C328      1.0  0.97083  0.42303  0.19892  1.0000
  C   C329      1.0  0.94603  0.40916  0.18275  1.0000
  H   H314      1.0  0.98846  0.34763  0.15263  1.0000
  C   C330      1.0  0.63609  0.17937  0.20454  1.0000
  H   H315      1.0  0.96561  0.44376  0.21191  1.0000
  H   H316      1.0  0.92185  0.41938  0.18346  1.0000
  C   C331      1.0  0.89529  0.46590  0.32927  1.0000
  C   C332      1.0  0.91628  0.47433  0.35046  1.0000
  C   C333      1.0  0.90423  0.47461  0.37744  1.0000
  C   C334      1.0  0.87128  0.46616  0.38335  1.0000
  C   C335      1.0  0.85059  0.45648  0.36225  1.0000
  C   C336      1.0  0.86256  0.45654  0.33522  1.0000
  H   H317      1.0  0.94158  0.48147  0.34607  1.0000
  Fe  Fe71      1.0  0.95647  0.03827  0.30546  1.0000
  H   H318      1.0  0.82511  0.45005  0.36667  1.0000
  H   H319      1.0  0.84621  0.45002  0.31887  1.0000
  C   C337      1.0  0.89723  0.04954  0.35413  1.0000
  H   H320      1.0  0.74839  0.35434  0.50612  1.0000
  C   C338      1.0  0.85020  0.06481  0.38246  1.0000
  C   C339      1.0  0.86359  0.09679  0.38523  1.0000
  C   C340      1.0  0.89332  0.10527  0.37186  1.0000
  C   C341      1.0  0.90996  0.08181  0.35621  1.0000
  H   H321      1.0  0.82717  0.05810  0.39256  1.0000
  H   H322      1.0  0.90374  0.12999  0.37380  1.0000
  H   H323      1.0  0.93306  0.08856  0.34629  1.0000
  C   C342      1.0  0.96600  0.16324  0.22399  1.0000
  C   C343      1.0  0.95038  0.19188  0.21603  1.0000
  C   C344      1.0  0.95871  0.20719  0.19115  1.0000
  C   C345      1.0  0.98307  0.19425  0.17422  1.0000
  H   H324      1.0  0.86350  0.07979  0.51558  1.0000
  C   C346      1.0  0.99072  0.15049  0.20728  1.0000
  H   H325      1.0  0.93131  0.20185  0.22894  1.0000
  H   H326      1.0  0.94637  0.22905  0.18521  1.0000
  C   C347      1.0  0.00208  0.40986  0.19842  1.0000
  C   C348      1.0  0.52614  0.15938  0.11248  1.0000
  C   C349      1.0  0.63970  0.48071  0.35053  1.0000
  C   C350      1.0  0.66817  0.48938  0.36476  1.0000
  C   C351      1.0  0.68816  0.46494  0.37507  1.0000
  C   C352      1.0  0.67996  0.43160  0.37098  1.0000
  C   C353      1.0  0.65194  0.42291  0.35618  1.0000
  C   C354      1.0  0.63180  0.44739  0.34601  1.0000
  H   H327      1.0  0.70992  0.47193  0.38607  1.0000
  H   H328      1.0  0.64554  0.39715  0.35286  1.0000
  H   H329      1.0  0.60986  0.44045  0.33516  1.0000
  C   C355      1.0  0.58965  0.41948  0.20615  1.0000
  H   H330      1.0  0.75272  0.30601  0.15065  1.0000
  C   C356      1.0  0.60044  0.37318  0.17590  1.0000
  C   C357      1.0  0.59689  0.35137  0.19783  1.0000
  C   C358      1.0  0.59076  0.36380  0.22405  1.0000
  C   C359      1.0  0.58707  0.39778  0.22821  1.0000
  H   H331      1.0  0.61234  0.45788  0.41586  1.0000
  H   H332      1.0  0.90373  0.33209  0.20427  1.0000
  H   H333      1.0  0.58825  0.34703  0.24112  1.0000
  H   H334      1.0  0.58192  0.40710  0.24841  1.0000
  H   H335      1.0  0.96837  0.13701  0.13279  1.0000
  H   H336      1.0  0.66320  0.14458  0.18060  1.0000
  H   H337      1.0  0.78581  0.19167  0.42140  1.0000
  H   H338      1.0  0.82666  0.20816  0.42306  1.0000
  C   C360      1.0  0.78375  0.50126  0.52471  1.0000
  H   H339      1.0  0.86089  0.15541  0.21043  1.0000
  S   S134      1.0  0.79122  0.07526  0.52518  1.0000
  H   H340      1.0  0.64970  0.09765  0.21203  1.0000
  H   H341      1.0  0.60524  0.20748  0.23105  1.0000
  H   H342      1.0  0.79626  0.49119  0.50708  1.0000
  S   S135      1.0  0.62163  0.08561  0.30845  1.0000
  H   H343      1.0  0.59052  0.10320  0.15989  1.0000
  S   S136      1.0  0.53932  0.29348  0.06738  1.0000
  H   H344      1.0  0.64002  0.42708  0.45092  1.0000
  H   H345      1.0  0.82180  0.35932  0.52040  1.0000
  H   H346      1.0  0.81123  0.19373  0.39087  1.0000
  S   S137      1.0  0.58170  0.46165  0.21011  1.0000
  N   N26       1.0  0.92074  0.14629  0.14911  1.0000
  N   N27       1.0  0.53321  0.17966  0.09080  1.0000
  S   S138      1.0  0.61320  0.51206  0.34107  1.0000
  H   H347      1.0  0.61406  0.10644  0.25249  1.0000
  C   C361      1.0  0.87405  0.17182  0.16979  1.0000
  C   C362      1.0  0.80469  0.20677  0.41006  1.0000
  H   H348      1.0  0.93432  0.12257  0.11225  1.0000
  H   H349      1.0  0.54651  0.15233  0.05568  1.0000
  H   H350      1.0  0.75906  0.32572  0.38868  1.0000
  H   H351      1.0  0.67836  0.43285  0.43248  1.0000
  N   N28       1.0  0.58582  0.09150  0.39199  1.0000
  C   C363      1.0  0.60318  0.11918  0.38362  1.0000
  H   H352      1.0  0.57884  0.15844  0.08015  1.0000
  H   H353      1.0  0.65906  0.12419  0.43400  1.0000
  H   H354      1.0  0.96205  0.29925  0.23321  1.0000
  C   C364      1.0  0.85185  0.03598  0.47716  1.0000
  H   H355      1.0  0.77166  0.32661  0.52599  1.0000
  C   C365      1.0  0.62624  0.47957  0.42250  1.0000
  C   C366      1.0  0.63795  0.11556  0.42259  1.0000
  C   C367      1.0  0.99940  0.16615  0.18254  1.0000
  H   H356      1.0  0.99072  0.33025  0.21952  1.0000
  H   H357      1.0  0.67474  0.44516  0.46777  1.0000
  N   N29       1.0  0.65256  0.47656  0.43904  1.0000
  H   H358      1.0  0.94125  0.41001  0.27530  1.0000
  H   H359      1.0  0.56080  0.15418  0.26228  1.0000
  N   N30       1.0  0.94307  0.34720  0.22982  1.0000
  C   C368      1.0  0.91197  0.34886  0.22012  1.0000
  C   C369      1.0  0.95363  0.36867  0.24954  1.0000
  H   H360      1.0  0.90481  0.09190  0.44917  1.0000
  C   C370      1.0  0.93296  0.39286  0.25977  1.0000
  C   C371      1.0  0.90151  0.39521  0.24961  1.0000
  C   C372      1.0  0.80080  0.29838  0.40095  1.0000
  C   C373      1.0  0.76861  0.30146  0.39253  1.0000
  C   C374      1.0  0.89107  0.06881  0.45214  1.0000
  C   C375      1.0  0.90206  0.12961  0.19386  1.0000
  S   S139      1.0  0.56115  0.04932  0.25461  1.0000
  C   C376      1.0  0.77488  0.31957  0.14428  1.0000
  C   C377      1.0  0.81242  0.26702  0.40655  1.0000
  C   C378      1.0  0.86718  0.04114  0.36714  1.0000
  H   H361      1.0  0.58013  0.05376  0.42208  1.0000
  C   C379      1.0  0.61573  0.18355  0.22746  1.0000
  C   C380      1.0  0.92363  0.12672  0.17155  1.0000
  H   H362      1.0  0.85769  0.31564  0.14875  1.0000
  H   H363      1.0  0.73969  0.35545  0.09635  1.0000
  H   H364      1.0  0.83729  0.26497  0.41356  1.0000
  C   C381      1.0  0.83396  0.32456  0.14321  1.0000
  H   H365      1.0  0.60518  0.36382  0.15564  1.0000
  H   H366      1.0  0.94328  0.10939  0.17266  1.0000
  H   H367      1.0  0.86662  0.37500  0.22128  1.0000
  H   H368      1.0  0.72322  0.27546  0.38376  1.0000
  N   N31       1.0  0.60844  0.15766  0.24459  1.0000
  C   C382      1.0  0.75000  0.49556  0.52842  1.0000
  H   H369      1.0  0.89322  0.18334  0.12986  1.0000
  N   N32       1.0  0.77325  0.34653  0.12769  1.0000
  H   H370      1.0  0.92033  0.48201  0.39373  1.0000
  C   C383      1.0  0.80132  0.36270  0.11869  1.0000
  C   C384      1.0  0.67145  0.50370  0.44580  1.0000
  C   C385      1.0  0.83207  0.35207  0.12640  1.0000
  H   H371      1.0  0.69281  0.50118  0.45841  1.0000
  C   C386      1.0  0.74146  0.35800  0.11883  1.0000
  C   C387      1.0  0.59356  0.07594  0.41560  1.0000
  H   H372      1.0  0.80003  0.38374  0.10520  1.0000
  H   H373      1.0  0.88563  0.41437  0.25716  1.0000
  H   H374      1.0  0.85441  0.36472  0.11912  1.0000
  H   H375      1.0  0.73832  0.38417  0.12470  1.0000
  H   H376      1.0  0.72061  0.34316  0.12788  1.0000
  H   H377      1.0  0.85476  0.18959  0.16872  1.0000
  C   C388      1.0  0.80525  0.30816  0.15225  1.0000
  H   H378      1.0  0.80653  0.28594  0.16440  1.0000
  C   C389      1.0  0.89601  0.16824  0.14783  1.0000
  N   N33       1.0  0.79237  0.23954  0.40413  1.0000
  H   H379      1.0  0.81639  0.32022  0.40392  1.0000
  H   H380      1.0  0.89119  0.10578  0.49584  1.0000
  H   H381      1.0  0.62711  0.07425  0.44906  1.0000
  Fe  Fe72      1.0  0.01753  0.46449  0.25010  1.0000
  C   C390      1.0  0.64068  0.12202  0.21639  1.0000
  H   H382      1.0  0.94618  0.16589  0.11403  1.0000
  C   C391      1.0  0.81003  0.37908  0.53143  1.0000
  H   H383      1.0  0.56442  0.20415  0.17100  1.0000
  C   C392      1.0  0.74849  0.27326  0.38974  1.0000
  C   C393      1.0  0.64847  0.14835  0.19893  1.0000
  H   H384      1.0  0.74481  0.22053  0.39422  1.0000
  H   H385      1.0  0.59739  0.13111  0.36464  1.0000
  H   H386      1.0  0.53932  0.13678  0.11503  1.0000
  H   H387      1.0  0.67922  0.11106  0.33399  1.0000
  C   C394      1.0  0.87730  0.15251  0.19301  1.0000
  C   C395      1.0  0.62042  0.12713  0.23922  1.0000
  C   C396      1.0  0.58608  0.16201  0.26794  1.0000
  H   H388      1.0  0.64109  0.19968  0.19056  1.0000
  S   S140      1.0  0.00054  0.44518  0.29080  1.0000
  H   H389      1.0  0.59356  0.14690  0.28551  1.0000
  C   C397      1.0  0.55773  0.17001  0.07031  1.0000
  C   C398      1.0  0.61986  0.08759  0.43114  1.0000
  C   C399      1.0  0.75711  0.34937  0.52692  1.0000
  H   H390      1.0  0.53608  0.09321  0.38002  1.0000
  H   H391      1.0  0.55130  0.52741  0.20619  1.0000
  H   H392      1.0  0.55279  0.08664  0.19821  1.0000
  C   C400      1.0  0.53664  0.13596  0.20556  1.0000
  N   N34       1.0  0.77692  0.37766  0.53654  1.0000
  C   C401      1.0  0.64671  0.03629  0.37657  1.0000
  H   H393      1.0  0.73542  0.02995  0.51659  1.0000
  C   C402      1.0  0.89399  0.04399  0.43253  1.0000
  S   S141      1.0  0.53272  0.09980  0.30125  1.0000
  H   H394      1.0  0.83492  0.03284  0.49437  1.0000
  H   H395      1.0  0.55267  0.05242  0.37973  1.0000
  C   C403      1.0  0.61761  0.51054  0.41298  1.0000
  H   H396      1.0  0.59719  0.51274  0.39931  1.0000
  H   H397      1.0  0.01850  0.15619  0.16964  1.0000
  S   S142      1.0  0.69138  0.04561  0.41706  1.0000
  H   H398      1.0  0.60962  0.03057  0.34598  1.0000
  S   S143      1.0  0.52431  0.52295  0.31406  1.0000
  H   H399      1.0  0.52477  0.36085  0.14729  1.0000
  S   S144      1.0  0.58470  0.52656  0.26805  1.0000
  C   C404      1.0  0.82912  0.40635  0.53982  1.0000
  H   H400      1.0  0.01830  0.16327  0.82122  1.0000
  C   C405      1.0  0.76196  0.40327  0.54942  1.0000
  C   C406      1.0  0.99078  0.27817  0.01205  1.0000
  C   C407      1.0  0.65862  0.50941  0.71457  1.0000
  H   H401      1.0  0.99286  0.35199  0.01122  1.0000
  C   C408      1.0  0.79113  0.03081  0.56716  1.0000
  C   C409      1.0  0.52975  0.27790  0.03467  1.0000
  H   H402      1.0  0.00537  0.38065  0.96743  1.0000
  H   H403      1.0  0.73554  0.40301  0.55234  1.0000
  C   C410      1.0  0.75290  0.07395  0.62236  1.0000
  C   C411      1.0  0.69161  0.51985  0.71393  1.0000
  H   H404      1.0  0.81307  0.04403  0.57358  1.0000
  H   H405      1.0  0.53031  0.21825  0.90140  1.0000
  H   H406      1.0  0.87110  0.52515  0.75281  1.0000
  H   H407      1.0  0.00357  0.18234  0.88284  1.0000
  H   H408      1.0  0.97742  0.29282  0.97172  1.0000
  H   H409      1.0  0.64676  0.50723  0.78315  1.0000
  H   H410      1.0  0.53507  0.17454  0.93563  1.0000
  C   C412      1.0  0.73412  0.50902  0.55134  1.0000
  H   H411      1.0  0.64521  0.50695  0.69580  1.0000
  H   H412      1.0  0.55116  0.21939  0.98824  1.0000
  H   H413      1.0  0.91339  0.51375  0.68584  1.0000
  C   C413      1.0  0.78043  0.43048  0.55870  1.0000
  H   H414      1.0  0.54986  0.11787  0.92091  1.0000
  C   C414      1.0  0.73964  0.07943  0.59686  1.0000
  C   C415      1.0  0.73734  0.05119  0.64011  1.0000
  H   H415      1.0  0.54684  0.23754  0.85520  1.0000
  H   H416      1.0  0.98765  0.18906  0.91695  1.0000
  H   H417      1.0  0.82850  0.45375  0.55991  1.0000
  C   C416      1.0  0.99656  0.28309  0.98403  1.0000
  C   C417      1.0  0.00959  0.19219  0.90336  1.0000
  C   C418      1.0  0.55354  0.13088  0.87844  1.0000
  H   H418      1.0  0.55890  0.10606  0.87168  1.0000
  C   C419      1.0  0.54818  0.13744  0.90603  1.0000
  C   C420      1.0  0.80156  0.51963  0.54408  1.0000
  H   H419      1.0  0.70344  0.52527  0.69440  1.0000
  S   S145      1.0  0.95332  0.29052  0.02688  1.0000
  H   H420      1.0  0.76852  0.45069  0.56902  1.0000
  C   C421      1.0  0.01564  0.26572  0.02786  1.0000
  H   H421      1.0  0.55307  0.15040  0.83792  1.0000
  H   H422      1.0  0.70802  0.50475  0.55438  1.0000
  C   C422      1.0  0.01903  0.35694  0.01624  1.0000
  C   C423      1.0  0.53708  0.19382  0.89473  1.0000
  H   H423      1.0  0.55143  0.20818  0.82817  1.0000
  H   H424      1.0  0.77543  0.08675  0.62811  1.0000
  H   H425      1.0  0.01465  0.39823  0.85186  1.0000
  H   H426      1.0  0.02149  0.38136  0.02634  1.0000
  H   H427      1.0  0.61656  0.49779  0.74050  1.0000
  C   C424      1.0  0.53755  0.23915  0.99740  1.0000
  S   S146      1.0  0.01987  0.46286  0.82787  1.0000
  N   N35       1.0  0.54245  0.18723  0.86770  1.0000
  C   C425      1.0  0.53786  0.21316  0.84749  1.0000
  H   H428      1.0  0.74795  0.04687  0.65981  1.0000
  H   H429      1.0  0.86998  0.50924  0.65124  1.0000
  C   C426      1.0  0.54754  0.25271  0.02243  1.0000
  C   C427      1.0  0.71126  0.06200  0.58934  1.0000
  H   H430      1.0  0.01374  0.35586  0.79290  1.0000
  H   H431      1.0  0.75199  0.09621  0.58250  1.0000
  C   C428      1.0  0.53986  0.16910  0.91427  1.0000
  C   C429      1.0  0.55027  0.15615  0.85940  1.0000
  H   H432      1.0  0.70152  0.06517  0.56916  1.0000
  H   H433      1.0  0.01566  0.21891  0.90061  1.0000
  C   C430      1.0  0.64256  0.50427  0.73961  1.0000
  C   C431      1.0  0.81417  0.43214  0.55364  1.0000
  H   H434      1.0  0.82771  0.52372  0.54113  1.0000
  C   C432      1.0  0.69652  0.03921  0.60748  1.0000
  C   C433      1.0  0.65959  0.50957  0.76363  1.0000
  H   H435      1.0  0.56887  0.24360  0.03230  1.0000
  H   H436      1.0  0.75666  0.52368  0.72072  1.0000
  N   N36       1.0  0.70946  0.03426  0.63255  1.0000
  C   C434      1.0  0.69256  0.52004  0.76226  1.0000
  H   H437      1.0  0.70523  0.52523  0.78104  1.0000
  N   N37       1.0  0.70820  0.52479  0.73759  1.0000
  C   C435      1.0  0.77570  0.04029  0.54321  1.0000
  C   C436      1.0  0.75194  0.52756  0.57067  1.0000
  H   H438      1.0  0.73562  0.34419  0.54064  1.0000
  H   H439      1.0  0.94942  0.57630  0.28675  1.0000
  C   C437      1.0  0.92372  0.56627  0.28731  1.0000
  Fe  Fe73      1.0  0.01004  0.53622  0.26732  1.0000
  C   C438      1.0  0.54081  0.90155  0.23899  1.0000
  S   S147      1.0  0.96682  0.98813  0.21108  1.0000
  C   C439      1.0  0.74745  0.02295  0.53504  1.0000
  C   C440      1.0  0.92952  0.57098  0.33696  1.0000
  Fe  Fe74      1.0  0.60830  0.74696  0.19048  1.0000
  S   S148      1.0  0.60985  0.74213  0.14487  1.0000
  S   S149      1.0  0.61864  0.70289  0.21704  1.0000
  Fe  Fe75      1.0  0.61708  0.82278  0.18815  1.0000
  S   S150      1.0  0.62073  0.82286  0.14250  1.0000
  S   S151      1.0  0.62883  0.87023  0.21078  1.0000
  Fe  Fe76      1.0  0.57794  0.78660  0.14506  1.0000
  H   H440      1.0  0.93425  0.65598  0.09982  1.0000
  Fe  Fe77      1.0  0.65224  0.77885  0.14666  1.0000
  S   S152      1.0  0.70003  0.76824  0.12463  1.0000
  S   S153      1.0  0.57281  0.78863  0.19103  1.0000
  S   S154      1.0  0.65194  0.78173  0.19187  1.0000
  Fe  Fe78      1.0  0.93655  0.77407  0.13312  1.0000
  S   S155      1.0  0.96888  0.75602  0.16613  1.0000
  S   S156      1.0  0.94771  0.77012  0.08780  1.0000
  Fe  Fe79      1.0  0.87999  0.78911  0.17285  1.0000
  S   S157      1.0  0.90793  0.77178  0.20865  1.0000
  S   S158      1.0  0.83119  0.81087  0.18421  1.0000
  Fe  Fe80      1.0  0.95057  0.80014  0.18961  1.0000
  S   S159      1.0  0.97997  0.83294  0.21820  1.0000
  Fe  Fe81      1.0  0.92327  0.72958  0.18227  1.0000
  S   S160      1.0  0.91584  0.67533  0.19282  1.0000
  S   S161      1.0  0.92172  0.82014  0.15529  1.0000
  S   S162      1.0  0.89185  0.74484  0.14772  1.0000
  C   C441      1.0  0.00969  0.66270  0.15733  1.0000
  C   C442      1.0  0.91763  0.56592  0.36361  1.0000
  N   N38       1.0  0.91116  0.56119  0.31521  1.0000
  C   C443      1.0  0.88662  0.55118  0.36789  1.0000
  C   C444      1.0  0.55512  0.88550  0.15548  1.0000
  C   C445      1.0  0.59780  0.89342  0.22642  1.0000
  C   C446      1.0  0.60562  0.92529  0.23604  1.0000
  C   C447      1.0  0.58098  0.94558  0.24646  1.0000
  H   H441      1.0  0.91833  0.67250  0.13159  1.0000
  H   H442      1.0  0.61185  0.53159  0.20301  1.0000
  C   C448      1.0  0.56536  0.88146  0.22819  1.0000
  H   H443      1.0  0.63074  0.93458  0.23485  1.0000
  H   H444      1.0  0.58709  0.97039  0.25317  1.0000
  C   C449      1.0  0.99255  0.76808  0.04567  1.0000
  C   C450      1.0  0.88078  0.54663  0.31924  1.0000
  C   C451      1.0  0.73667  0.78246  0.13989  1.0000
  C   C452      1.0  0.73596  0.80249  0.16308  1.0000
  C   C453      1.0  0.76524  0.81175  0.17596  1.0000
  C   C454      1.0  0.79549  0.80097  0.16587  1.0000
  C   C455      1.0  0.79638  0.78153  0.14233  1.0000
  C   C456      1.0  0.76702  0.77243  0.12931  1.0000
  H   H445      1.0  0.71288  0.81105  0.17104  1.0000
  H   H446      1.0  0.76439  0.82706  0.19400  1.0000
  H   H447      1.0  0.81960  0.77330  0.13428  1.0000
  H   H448      1.0  0.76776  0.75716  0.11124  1.0000
  N   N39       1.0  0.96991  0.67891  0.12494  1.0000
  Fe  Fe82      1.0  0.53304  0.54316  0.27177  1.0000
  C   C457      1.0  0.56333  0.54979  0.19850  1.0000
  C   C458      1.0  0.98766  0.77441  0.07356  1.0000
  C   C459      1.0  0.58403  0.90436  0.15813  1.0000
  S   S163      1.0  0.53319  0.79934  0.12070  1.0000
  H   H449      1.0  0.92991  0.69994  0.10445  1.0000
  C   C460      1.0  0.98854  0.61385  0.23969  1.0000
  C   C461      1.0  0.99422  0.64802  0.23658  1.0000
  C   C462      1.0  0.97201  0.66731  0.22252  1.0000
  C   C463      1.0  0.94385  0.65252  0.21156  1.0000
  C   C464      1.0  0.93821  0.61835  0.21458  1.0000
  C   C465      1.0  0.96052  0.59904  0.22849  1.0000
  H   H450      1.0  0.63231  0.64464  0.18197  1.0000
  H   H451      1.0  0.97663  0.69359  0.22024  1.0000
  H   H452      1.0  0.95615  0.57271  0.23038  1.0000
  H   H453      1.0  0.93258  0.57285  0.38083  1.0000
  H   H454      1.0  0.62554  0.64293  0.24623  1.0000
  C   C466      1.0  0.96983  0.94502  0.21382  1.0000
  C   C467      1.0  0.96300  0.92531  0.19103  1.0000
  C   C468      1.0  0.96581  0.89091  0.19224  1.0000
  C   C469      1.0  0.97560  0.87597  0.21623  1.0000
  C   C470      1.0  0.98254  0.89568  0.23903  1.0000
  C   C471      1.0  0.97944  0.93010  0.23791  1.0000
  H   H455      1.0  0.95573  0.93670  0.17228  1.0000
  H   H456      1.0  0.96103  0.87607  0.17440  1.0000
  H   H457      1.0  0.99020  0.88425  0.25765  1.0000
  H   H458      1.0  0.98479  0.94504  0.25557  1.0000
  H   H459      1.0  0.55918  0.85685  0.22106  1.0000
  C   C472      1.0  0.54385  0.62345  0.24643  1.0000
  H   H460      1.0  0.01574  0.64849  0.17517  1.0000
  C   C473      1.0  0.55560  0.67646  0.22408  1.0000
  C   C474      1.0  0.58902  0.67341  0.22883  1.0000
  C   C475      1.0  0.59973  0.64542  0.24242  1.0000
  C   C476      1.0  0.57728  0.62047  0.25108  1.0000
  C   C477      1.0  0.54841  0.93388  0.24760  1.0000
  C   C478      1.0  0.97815  0.66021  0.14676  1.0000
  H   H461      1.0  0.61914  0.63404  0.14790  1.0000
  C   C479      1.0  0.86796  0.54162  0.34559  1.0000
  H   H462      1.0  0.55564  0.86127  0.14606  1.0000
  H   H463      1.0  0.58583  0.59907  0.26154  1.0000
  C   C480      1.0  0.85355  0.01097  0.45755  1.0000
  N   N40       1.0  0.89498  0.89852  0.23638  1.0000
  C   C481      1.0  0.89063  0.93037  0.22833  1.0000
  C   C482      1.0  0.90422  0.89192  0.26238  1.0000
  C   C483      1.0  0.89632  0.95666  0.24633  1.0000
  C   C484      1.0  0.90997  0.91763  0.28095  1.0000
  C   C485      1.0  0.90605  0.95020  0.27280  1.0000
  C   C486      1.0  0.88828  0.87117  0.21750  1.0000
  H   H464      1.0  0.88345  0.93567  0.20770  1.0000
  H   H465      1.0  0.90768  0.86667  0.26872  1.0000
  H   H466      1.0  0.89394  0.98194  0.23960  1.0000
  H   H467      1.0  0.91770  0.91241  0.30145  1.0000
  H   H468      1.0  0.91076  0.97044  0.28691  1.0000
  H   H469      1.0  0.86261  0.86168  0.22033  1.0000
  H   H470      1.0  0.89194  0.87895  0.19594  1.0000
  H   H471      1.0  0.90518  0.85060  0.22080  1.0000
  H   H472      1.0  0.86669  0.53791  0.30202  1.0000
  C   C487      1.0  0.54485  0.57642  0.19078  1.0000
  C   C488      1.0  0.87493  0.01499  0.43519  1.0000
  H   H473      1.0  0.92342  0.54241  0.27610  1.0000
  H   H474      1.0  0.87628  0.99606  0.41959  1.0000
  H   H475      1.0  0.85708  0.01626  0.36545  1.0000
  H   H476      1.0  0.55477  0.74109  0.09096  1.0000
  H   H477      1.0  0.59450  0.65919  0.17016  1.0000
  C   C489      1.0  0.93648  0.67658  0.11461  1.0000
  C   C490      1.0  0.52949  0.74182  0.05265  1.0000
  H   H478      1.0  0.01113  0.78762  0.11103  1.0000
  C   C491      1.0  0.61265  0.58157  0.18733  1.0000
  H   H479      1.0  0.71129  0.74612  0.26210  1.0000
  H   H480      1.0  0.54712  0.69799  0.21368  1.0000
  S   S164      1.0  0.99510  0.00543  0.28779  1.0000
  N   N41       1.0  0.72433  0.73889  0.22033  1.0000
  C   C492      1.0  0.71240  0.72308  0.19780  1.0000
  C   C493      1.0  0.75728  0.74525  0.22264  1.0000
  C   C494      1.0  0.73370  0.71273  0.17706  1.0000
  C   C495      1.0  0.77932  0.73470  0.20251  1.0000
  C   C496      1.0  0.76738  0.71832  0.17962  1.0000
  C   C497      1.0  0.70176  0.75081  0.24150  1.0000
  H   H481      1.0  0.68622  0.71895  0.19546  1.0000
  H   H482      1.0  0.76667  0.75909  0.23986  1.0000
  H   H483      1.0  0.72403  0.70169  0.15864  1.0000
  H   H484      1.0  0.80538  0.74056  0.20402  1.0000
  H   H485      1.0  0.78412  0.71131  0.16332  1.0000
  H   H486      1.0  0.69849  0.77775  0.23895  1.0000
  H   H487      1.0  0.67720  0.73816  0.24045  1.0000
  C   C498      1.0  0.66376  0.53500  0.43633  1.0000
  H   H488      1.0  0.91662  0.60670  0.20591  1.0000
  H   H489      1.0  0.98683  0.71242  0.09407  1.0000
  C   C499      1.0  0.59744  0.55225  0.19676  1.0000
  C   C500      1.0  0.99304  0.69870  0.11203  1.0000
  H   H490      1.0  0.60729  0.89471  0.15124  1.0000
  H   H491      1.0  0.54624  0.62611  0.17589  1.0000
  Fe  Fe83      1.0  0.52641  0.01130  0.27359  1.0000
  H   H492      1.0  0.90842  0.58400  0.27646  1.0000
  H   H493      1.0  0.53885  0.71846  0.04586  1.0000
  C   C501      1.0  0.56083  0.60528  0.18126  1.0000
  H   H494      1.0  0.60575  0.94927  0.17394  1.0000
  C   C502      1.0  0.53306  0.65161  0.23304  1.0000
  H   H495      1.0  0.55305  0.96995  0.19164  1.0000
  H   H496      1.0  0.96014  0.64356  0.15636  1.0000
  H   H497      1.0  0.63919  0.58343  0.18628  1.0000
  S   S165      1.0  0.91947  0.01899  0.33685  1.0000
  H   H498      1.0  0.63074  0.56230  0.41170  1.0000
  C   C503      1.0  0.61087  0.63774  0.16932  1.0000
  C   C504      1.0  0.58315  0.93515  0.17077  1.0000
  N   N42       1.0  0.59433  0.60764  0.17985  1.0000
  C   C505      1.0  0.53863  0.75462  0.07818  1.0000
  H   H499      1.0  0.95375  0.58228  0.33382  1.0000
  H   H500      1.0  0.83809  0.98882  0.45957  1.0000
  H   H501      1.0  0.67899  0.55640  0.44149  1.0000
  C   C506      1.0  0.63664  0.53836  0.41980  1.0000
  S   S166      1.0  0.54107  0.02220  0.31682  1.0000
  C   C507      1.0  0.55325  0.94662  0.18078  1.0000
  H   H502      1.0  0.63765  0.01536  0.38843  1.0000
  C   C508      1.0  0.01464  0.78277  0.08952  1.0000
  H   H503      1.0  0.01588  0.65963  0.24518  1.0000
  N   N43       1.0  0.52500  0.92792  0.17817  1.0000
  C   C509      1.0  0.52607  0.78443  0.08741  1.0000
  S   S167      1.0  0.01702  0.59070  0.25766  1.0000
  H   H504      1.0  0.87743  0.54610  0.38843  1.0000
  H   H505      1.0  0.84430  0.52913  0.34877  1.0000
  Fe  Fe84      1.0  0.97650  0.02102  0.24740  1.0000
  C   C510      1.0  0.52565  0.89770  0.16574  1.0000
  Fe  Fe85      1.0  0.74628  0.88005  0.67472  1.0000
  S   S168      1.0  0.76944  0.90851  0.70886  1.0000
  S   S169      1.0  0.72517  0.82850  0.68314  1.0000
  Fe  Fe86      1.0  0.74947  0.94062  0.63679  1.0000
  S   S170      1.0  0.77314  0.97347  0.66819  1.0000
  S   S171      1.0  0.72964  0.95760  0.59646  1.0000
  Fe  Fe87      1.0  0.80390  0.92961  0.67675  1.0000
  S   S172      1.0  0.85885  0.92808  0.68220  1.0000
  Fe  Fe88      1.0  0.73651  0.94939  0.69741  1.0000
  S   S173      1.0  0.70948  0.97676  0.73070  1.0000
  S   S174      1.0  0.78280  0.89815  0.64295  1.0000
  S   S175      1.0  0.71078  0.91957  0.66568  1.0000
  Fe  Fe89      1.0  0.78613  0.64924  0.65620  1.0000
  S   S176      1.0  0.76239  0.62863  0.69454  1.0000
  S   S177      1.0  0.80275  0.70209  0.64747  1.0000
  Fe  Fe90      1.0  0.78769  0.58144  0.62770  1.0000
  S   S178      1.0  0.76349  0.55599  0.66353  1.0000
  S   S179      1.0  0.00181  0.01320  0.81967  1.0000
  Fe  Fe91      1.0  0.73069  0.59947  0.66573  1.0000
  S   S180      1.0  0.67543  0.59387  0.66801  1.0000
  Fe  Fe92      1.0  0.79758  0.58710  0.68910  1.0000
  S   S181      1.0  0.82314  0.55902  0.72201  1.0000
  S   S182      1.0  0.75228  0.62260  0.62752  1.0000
  S   S183      1.0  0.82385  0.61003  0.65318  1.0000
  C   C511      1.0  0.63834  0.88824  0.71417  1.0000
  H   H506      1.0  0.97653  0.85733  0.98297  1.0000
  H   H507      1.0  0.67515  0.02483  0.60114  1.0000
  H   H508      1.0  0.98330  0.59412  0.67701  1.0000
  C   C512      1.0  0.01506  0.84996  0.01147  1.0000
  C   C513      1.0  0.90912  0.58201  0.64761  1.0000
  S   S184      1.0  0.97411  0.59156  0.74254  1.0000
  H   H509      1.0  0.95943  0.96447  0.72730  1.0000
  H   H510      1.0  0.00758  0.86331  0.88255  1.0000
  H   H511      1.0  0.63159  0.92846  0.78519  1.0000
  C   C514      1.0  0.65379  0.59114  0.69942  1.0000
  C   C515      1.0  0.66967  0.59557  0.72416  1.0000
  C   C516      1.0  0.65235  0.58990  0.74884  1.0000
  C   C517      1.0  0.61906  0.58001  0.74894  1.0000
  C   C518      1.0  0.60285  0.57703  0.72423  1.0000
  C   C519      1.0  0.62020  0.58254  0.69955  1.0000
  H   H512      1.0  0.69539  0.60272  0.72428  1.0000
  H   H513      1.0  0.92629  0.92901  0.69642  1.0000
  H   H514      1.0  0.57722  0.56945  0.72408  1.0000
  H   H515      1.0  0.60774  0.57930  0.68046  1.0000
  C   C520      1.0  0.86475  0.56882  0.72873  1.0000
  C   C521      1.0  0.88013  0.59747  0.71827  1.0000
  C   C522      1.0  0.91329  0.60459  0.72368  1.0000
  C   C523      1.0  0.93160  0.58294  0.73918  1.0000
  C   C524      1.0  0.91626  0.55423  0.74965  1.0000
  C   C525      1.0  0.88287  0.54732  0.74456  1.0000
  H   H516      1.0  0.86640  0.61439  0.70629  1.0000
  H   H517      1.0  0.92495  0.62689  0.71554  1.0000
  H   H518      1.0  0.90096  0.98477  0.80288  1.0000
  C   C526      1.0  0.00240  0.86107  0.98708  1.0000
  H   H519      1.0  0.99914  0.83763  0.02652  1.0000
  H   H520      1.0  0.73773  0.69088  0.61161  1.0000
  C   C527      1.0  0.63324  0.91685  0.76532  1.0000
  C   C528      1.0  0.88192  0.95575  0.70260  1.0000
  C   C529      1.0  0.91513  0.94960  0.70668  1.0000
  C   C530      1.0  0.93392  0.96956  0.72428  1.0000
  C   C531      1.0  0.91973  0.99617  0.73765  1.0000
  C   C532      1.0  0.57411  0.92339  0.76049  1.0000
  C   C533      1.0  0.86773  0.98254  0.71581  1.0000
  H   H521      1.0  0.77009  0.74076  0.60111  1.0000
  C   C534      1.0  0.69298  0.01068  0.65122  1.0000
  Fe  Fe93      1.0  0.01925  0.96124  0.81895  1.0000
  H   H522      1.0  0.84219  0.98752  0.71275  1.0000
  C   C535      1.0  0.66699  0.98295  0.72848  1.0000
  C   C536      1.0  0.64979  0.97432  0.70508  1.0000
  C   C537      1.0  0.61612  0.98011  0.70365  1.0000
  C   C538      1.0  0.59913  0.99362  0.72592  1.0000
  C   C539      1.0  0.61609  0.00154  0.74962  1.0000
  C   C540      1.0  0.65001  0.99656  0.75075  1.0000
  H   H523      1.0  0.66237  0.96332  0.68800  1.0000
  H   H524      1.0  0.60308  0.97384  0.68531  1.0000
  H   H525      1.0  0.97179  0.76131  0.03326  1.0000
  H   H526      1.0  0.56206  0.90318  0.77265  1.0000
  C   C541      1.0  0.74909  0.98811  0.57556  1.0000
  H   H527      1.0  0.53163  0.67664  0.83518  1.0000
  C   C542      1.0  0.78581  0.53273  0.56720  1.0000
  H   H528      1.0  0.75312  0.78038  0.60587  1.0000
  C   C543      1.0  0.74978  0.79407  0.67681  1.0000
  C   C544      1.0  0.73900  0.76273  0.68607  1.0000
  C   C545      1.0  0.75584  0.73428  0.67832  1.0000
  C   C546      1.0  0.78369  0.73710  0.66132  1.0000
  C   C547      1.0  0.79538  0.76859  0.65324  1.0000
  C   C548      1.0  0.77846  0.79697  0.66088  1.0000
  H   H529      1.0  0.71700  0.76033  0.69865  1.0000
  H   H530      1.0  0.74680  0.71017  0.68486  1.0000
  H   H531      1.0  0.81708  0.77099  0.64028  1.0000
  H   H532      1.0  0.78715  0.82098  0.65376  1.0000
  H   H533      1.0  0.78957  0.99815  0.60201  1.0000
  H   H534      1.0  0.90691  0.94995  0.82529  1.0000
  H   H535      1.0  0.58662  0.89607  0.71204  1.0000
  H   H536      1.0  0.70632  0.00809  0.67059  1.0000
  H   H537      1.0  0.68989  0.88443  0.72199  1.0000
  C   C549      1.0  0.66627  0.89221  0.72987  1.0000
  H   H538      1.0  0.66493  0.59248  0.76793  1.0000
  S   S185      1.0  0.55687  0.00034  0.72314  1.0000
  S   S186      1.0  0.00411  0.92063  0.84849  1.0000
  H   H539      1.0  0.60325  0.01223  0.76680  1.0000
  C   C550      1.0  0.60818  0.89886  0.72448  1.0000
  C   C551      1.0  0.95144  0.55123  0.68217  1.0000
  H   H540      1.0  0.64023  0.87734  0.69404  1.0000
  H   H541      1.0  0.66315  0.00330  0.76895  1.0000
  C   C552      1.0  0.74228  0.53726  0.73632  1.0000
  S   S187      1.0  0.80969  0.55398  0.59170  1.0000
  N   N44       1.0  0.60600  0.91317  0.74968  1.0000
  C   C553      1.0  0.88667  0.00279  0.73316  1.0000
  S   S188      1.0  0.59967  0.56780  0.77990  1.0000
  C   C554      1.0  0.93918  0.59751  0.65377  1.0000
  H   H542      1.0  0.57695  0.94553  0.77368  1.0000
  N   N45       1.0  0.72148  0.73980  0.61787  1.0000
  C   C555      1.0  0.69900  0.75943  0.63038  1.0000
  C   C556      1.0  0.71970  0.70632  0.62138  1.0000
  C   C557      1.0  0.67448  0.74566  0.64756  1.0000
  C   C558      1.0  0.69542  0.69169  0.63836  1.0000
  C   C559      1.0  0.67280  0.71157  0.65160  1.0000
  H   H543      1.0  0.70073  0.78605  0.62801  1.0000
  H   H544      1.0  0.65750  0.76148  0.65820  1.0000
  H   H545      1.0  0.69440  0.66517  0.64159  1.0000
  H   H546      1.0  0.65428  0.70052  0.66520  1.0000
  H   H547      1.0  0.73861  0.75415  0.57848  1.0000
  N   N46       1.0  0.89711  0.93723  0.78425  1.0000
  C   C560      1.0  0.91531  0.91222  0.77379  1.0000
  C   C561      1.0  0.86528  0.94052  0.77673  1.0000
  C   C562      1.0  0.90200  0.89032  0.75461  1.0000
  C   C563      1.0  0.85116  0.91894  0.75772  1.0000
  C   C564      1.0  0.86976  0.89385  0.74648  1.0000
  C   C565      1.0  0.91136  0.95982  0.80445  1.0000
  H   H548      1.0  0.94051  0.90961  0.77979  1.0000
  H   H549      1.0  0.85096  0.96056  0.78474  1.0000
  H   H550      1.0  0.91683  0.87132  0.74550  1.0000
  H   H551      1.0  0.82644  0.92249  0.75081  1.0000
  H   H552      1.0  0.85952  0.87798  0.73075  1.0000
  H   H553      1.0  0.93820  0.96346  0.80089  1.0000
  S   S189      1.0  0.00533  0.95178  0.77575  1.0000
  H   H554      1.0  0.94559  0.62177  0.64565  1.0000
  S   S190      1.0  0.53875  0.99737  0.80361  1.0000
  C   C566      1.0  0.74696  0.75451  0.59983  1.0000
  Fe  Fe94      1.0  0.01099  0.56363  0.76700  1.0000
  H   H555      1.0  0.68558  0.91081  0.76756  1.0000
  Fe  Fe95      1.0  0.54423  0.56333  0.78291  1.0000
  H   H556      1.0  0.01350  0.66877  0.87885  1.0000
  C   C567      1.0  0.66378  0.90667  0.75559  1.0000
  H   H557      1.0  0.75491  0.53435  0.75596  1.0000
  H   H558      1.0  0.53323  0.69818  0.95311  1.0000
  H   H559      1.0  0.87561  0.02348  0.74335  1.0000
  S   S191      1.0  0.94222  0.02092  0.76075  1.0000
  H   H560      1.0  0.85876  0.54529  0.63318  1.0000
  H   H561      1.0  0.71203  0.98400  0.54499  1.0000
  H   H562      1.0  0.53982  0.65557  0.92016  1.0000
  C   C568      1.0  0.77785  0.00486  0.58335  1.0000
  H   H563      1.0  0.01962  0.83627  0.81435  1.0000
  C   C569      1.0  0.96045  0.58192  0.67114  1.0000
  N   N47       1.0  0.90051  0.55186  0.65852  1.0000
  H   H564      1.0  0.69123  0.98593  0.64149  1.0000
  H   H565      1.0  0.93013  0.53734  0.76156  1.0000
  H   H566      1.0  0.55765  0.93047  0.74384  1.0000
  Fe  Fe96      1.0  0.99167  0.00483  0.77517  1.0000
  C   C570      1.0  0.53464  0.67295  0.90419  1.0000
  S   S192      1.0  0.01532  0.56115  0.81274  1.0000
  H   H567      1.0  0.74317  0.56390  0.73100  1.0000
  H   H568      1.0  0.01366  0.88606  0.94909  1.0000
  H   H569      1.0  0.52742  0.73954  0.94231  1.0000
  C   C571      1.0  0.86844  0.53645  0.65279  1.0000
  H   H570      1.0  0.54550  0.63813  0.87206  1.0000
  H   H571      1.0  0.85068  0.54246  0.66936  1.0000
  C   C572      1.0  0.53809  0.66296  0.87702  1.0000
  H   H572      1.0  0.73954  0.53755  0.58839  1.0000
  C   C573      1.0  0.53017  0.68457  0.85628  1.0000
  H   H573      1.0  0.66789  0.01886  0.65645  1.0000
  C   C574      1.0  0.92095  0.53674  0.67601  1.0000
  C   C575      1.0  0.73422  0.99696  0.55119  1.0000
  H   H574      1.0  0.96722  0.53974  0.69669  1.0000
  H   H575      1.0  0.89254  0.59447  0.63435  1.0000
  C   C576      1.0  0.02318  0.87710  0.96809  1.0000
  N   N48       1.0  0.52393  0.70376  0.91050  1.0000
  H   H576      1.0  0.02210  0.78696  0.84401  1.0000
