data_image0
_chemical_formula_structural       FeSFeSFe2S2FeSFeSFe2S2FeSFeSFe2S2FeSFeSFe2S2FeSFeSFe2S2FeSFeSFe2S2FeSFeSFe2S2FeSFeSFe2S2C6H3S2HC6H3S2HC6H3S2HC6H3S2HC6H3S2HC6H3S2HC6H3S2HC6H3S2HC6H3S2HC6H3S2HC6H3S2HC6H3S2HC6H3S2HC6H3S2HC6H3S2HC6H3S2HNC4H12NC4H12NC4H12NC4H12NC4H12NC4H12NC4H12NC4H12NC4H12NC4H12NC4H12NC4H12NC4H12NC4H12NC4H12NC4H12
_chemical_formula_sum              "Fe32 S64 C160 H256 N16"
_cell_length_a       27.131769416198324
_cell_length_b       17.114343170989404
_cell_length_c       17.598145375586018
_cell_angle_alpha    90.68539413830639
_cell_angle_beta     90.25659604658705
_cell_angle_gamma    91.08821926683086

_space_group_name_H-M_alt    "P 1"
_space_group_IT_number       1

loop_
  _space_group_symop_operation_xyz
  'x, y, z'

loop_
  _atom_site_type_symbol
  _atom_site_label
  _atom_site_symmetry_multiplicity
  _atom_site_fract_x
  _atom_site_fract_y
  _atom_site_fract_z
  _atom_site_occupancy
  Fe  Fe1       1.0  0.15381954071742054  0.41446184754598087  0.7935146219384784  1.0000
  S   S1        1.0  0.16755041669122206  0.5393853296112986  0.8272968010219324  1.0000
  Fe  Fe2       1.0  0.11659791731798141  0.45255631815206904  0.6383638202800991  1.0000
  S   S2        1.0  0.12595758252150357  0.582073509251631  0.6547731868915455  1.0000
  Fe  Fe3       1.0  0.19764810605127692  0.5520995614701267  0.7100085002581046  1.0000
  Fe  Fe4       1.0  0.09488547339513431  0.5594205034781166  0.7702799548582571  1.0000
  S   S3        1.0  0.1914468822744364  0.42487475784574  0.6815099487697859  1.0000
  S   S4        1.0  0.07783987356001765  0.43243263430296763  0.7484398725728596  1.0000
  Fe  Fe5       1.0  0.08957017488162178  0.9940548611103213  0.19622089017807665  1.0000
  S   S5        1.0  0.13353054377070572  0.906882372937493  0.2600965889845448  1.0000
  Fe  Fe6       1.0  0.16734851371276682  0.1211961908853707  0.21547765849233125  1.0000
  S   S6        1.0  0.21897828462391655  0.04525083832059518  0.2789800356063765  1.0000
  Fe  Fe7       1.0  0.1967869688164876  0.9543841786681327  0.19232172267932013  1.0000
  Fe  Fe8       1.0  0.15119423698508383  0.005918430032823885  0.3403376451194884  1.0000
  S   S7        1.0  0.15164137873523797  0.034174783124047536  0.12170916467408621  1.0000
  S   S8        1.0  0.10056707271280652  0.08928878685269948  0.2834991063133059  1.0000
  Fe  Fe9       1.0  0.7155052723613181  0.5348321389266049  0.7506961456037431  1.0000
  S   S9        1.0  0.6696334420012618  0.587735406656023  0.8427914660640836  1.0000
  Fe  Fe10      1.0  0.6266011963155331  0.4912051290911412  0.6543270746864339  1.0000
  S   S10       1.0  0.5733276400507009  0.5428134289232028  0.7365675829016665  1.0000
  Fe  Fe11      1.0  0.6286032525583305  0.640799529146274  0.7466454196300849  1.0000
  Fe  Fe12      1.0  0.6198801760399233  0.4840558750957736  0.8232912000186803  1.0000
  S   S11       1.0  0.6777263539731212  0.5948727208378682  0.6553450697609569  1.0000
  S   S12       1.0  0.6695490341927025  0.42453609423986904  0.7404865298738281  1.0000
  Fe  Fe13      1.0  0.9594317514959139  0.5121926242928999  0.19712065609388918  1.0000
  S   S13       1.0  0.9176797218745527  0.4061993817951285  0.2364623913747037  1.0000
  Fe  Fe14      1.0  0.8711452492736019  0.6160670266330558  0.20544669238376367  1.0000
  S   S14       1.0  0.820266233365445  0.5209824449890599  0.24484820239826566  1.0000
  Fe  Fe15      1.0  0.8835832221223284  0.48954364680634377  0.31962125191396606  1.0000
  Fe  Fe16      1.0  0.8588569422872897  0.4477742807102352  0.158029646878876  1.0000
  S   S15       1.0  0.9316244329708375  0.5918611355701118  0.28781947447110845  1.0000
  S   S16       1.0  0.9034185739770543  0.546678808418095  0.11094689138587466  1.0000
  Fe  Fe17      1.0  0.39573926110866775  0.6007134755130101  0.1425995252083212  1.0000
  S   S17       1.0  0.4595292770695947  0.5525327995355533  0.2075311950591532  1.0000
  Fe  Fe18      1.0  0.3283888726065921  0.5996013541122192  0.2784304115851531  1.0000
  S   S18       1.0  0.385600315588118  0.5512933488858355  0.3551357746514024  1.0000
  Fe  Fe19      1.0  0.4361256493493525  0.6371032609018001  0.2984544805836794  1.0000
  Fe  Fe20      1.0  0.40254440135363856  0.4720246471043593  0.2573733891239764  1.0000
  S   S19       1.0  0.37723763117886544  0.6926257698110035  0.22927758961936195  1.0000
  S   S20       1.0  0.34066662137123543  0.5128862221500722  0.1847643952885778  1.0000
  Fe  Fe21      1.0  0.850340519179975  0.9776831701406467  0.7956994802231079  1.0000
  S   S21       1.0  0.8578999787131987  0.10780334909334033  0.7932017730159123  1.0000
  Fe  Fe22      1.0  0.9158054320570379  0.9540981027476081  0.6592390263869746  1.0000
  S   S22       1.0  0.9304176959751225  0.08238350717693388  0.6449275004567727  1.0000
  Fe  Fe23      1.0  0.9374944406660468  0.0846271428906813  0.7717826063857651  1.0000
  Fe  Fe24      1.0  0.8496412234432262  0.09244038841330315  0.6673018507875416  1.0000
  S   S23       1.0  0.9308550235374722  0.955004824582648  0.7842641282171634  1.0000
  S   S24       1.0  0.834078900213619  0.9635750997720954  0.671489873830311  1.0000
  Fe  Fe25      1.0  0.6387521956919909  0.09319077582115165  0.1661654578781715  1.0000
  S   S25       1.0  0.5835522576832577  0.011662340662007331  0.22008009906908255  1.0000
  Fe  Fe26      1.0  0.726595726330438  0.020083260339247122  0.23774253990613572  1.0000
  S   S26       1.0  0.6812447377355477  0.931431144423173  0.2995843721759811  1.0000
  Fe  Fe27      1.0  0.638215607244809  0.9193383240933738  0.19121323319639916  1.0000
  Fe  Fe28      1.0  0.6309779410266688  0.030031036172322834  0.32348385253111156  1.0000
  S   S27       1.0  0.6887276143253209  0.9985930224082338  0.1260881542791672  1.0000
  S   S28       1.0  0.6804562035016433  0.12066579494366869  0.272705055584293  1.0000
  Fe  Fe29      1.0  0.41362110204908015  0.003906187780752246  0.8106518665067183  1.0000
  S   S29       1.0  0.46551400337431875  0.09481545630171317  0.8591699842956421  1.0000
  Fe  Fe30      1.0  0.41346436092406774  0.07381095815019378  0.6550768666865489  1.0000
  S   S30       1.0  0.46683600081813087  0.1701337174486901  0.6872776611970328  1.0000
  Fe  Fe31      1.0  0.5072313030142092  0.07898036629696037  0.7506794558516912  1.0000
  Fe  Fe32      1.0  0.4209530918884819  0.1786985541623125  0.79218547106632  1.0000
  S   S31       1.0  0.4590744774798885  0.9807391918687512  0.7073300507890978  1.0000
  S   S32       1.0  0.36380415620788503  0.08937227911166712  0.7547522081360645  1.0000
  C   C1        1.0  0.06528226987798957  0.6133899535999285  0.051243711557310334  1.0000
  C   C2        1.0  0.03751897706026264  0.546137237787524  0.06790413001631501  1.0000
  C   C3        1.0  0.009041108815218468  0.5090773529693997  0.01128822997223522  1.0000
  C   C4        1.0  0.008895579836269984  0.5381988546116265  0.9374215124357722  1.0000
  C   C5        1.0  0.03764269644011997  0.6040593151396423  0.9200931049434452  1.0000
  C   C6        1.0  0.06577664069135114  0.641963074990128  0.9768430677018  1.0000
  H   H1        1.0  0.08777605037131164  0.6932965550486636  0.9632495684194089  1.0000
  H   H2        1.0  0.08655947085245841  0.6428949513857719  0.09552883346411223  1.0000
  H   H3        1.0  0.9863193717705675  0.4585380083570006  0.024793584699803084  1.0000
  S   S33       1.0  0.04005054402503316  0.6362506203911973  0.8266269952787862  1.0000
  S   S34       1.0  0.03765641618874227  0.5077921130046698  0.15927930723784445  1.0000
  H   H4        1.0  0.9869326430921522  0.5091108226465171  0.8936119842060227  1.0000
  C   C7        1.0  0.05448105201908682  0.005035180200372746  0.4868330942968293  1.0000
  C   C8        1.0  0.09673610560221912  0.9609313623680578  0.4974609511469502  1.0000
  C   C9        1.0  0.09336051329035033  0.8887831138694834  0.5337868733258354  1.0000
  C   C10       1.0  0.047650050226297536  0.8611087250626744  0.5603210319819221  1.0000
  C   C11       1.0  0.005238505510067215  0.904734843182216  0.5487206371386559  1.0000
  C   C12       1.0  0.008727059996065156  0.9768548960056631  0.5122290800418297  1.0000
  H   H5        1.0  0.9761694589990628  0.011207677979426345  0.5036456028156743  1.0000
  H   H6        1.0  0.05708197998828246  0.06091582842633447  0.45880491623305153  1.0000
  H   H7        1.0  0.12611659067912684  0.8547366790030464  0.542206452366197  1.0000
  S   S35       1.0  0.9475749968944714  0.8682267020855657  0.5770657751618626  1.0000
  S   S36       1.0  0.15375403671846577  0.9974903586023975  0.46699478953342227  1.0000
  H   H8        1.0  0.045166448710257434  0.8054298202157198  0.5886337620421028  1.0000
  C   C13       1.0  0.5654228777316188  0.6161547926087693  0.40154152664967996  1.0000
  C   C14       1.0  0.5188400193780843  0.6397905585406874  0.4253865588312564  1.0000
  C   C15       1.0  0.49640318413395035  0.6044357720399198  0.487874206818098  1.0000
  C   C16       1.0  0.5201479463248561  0.5442782347324475  0.5258581450588956  1.0000
  C   C17       1.0  0.5662284546122212  0.5193627534226622  0.5010522325771171  1.0000
  C   C18       1.0  0.5893299751106018  0.5561382756844905  0.4398164349314139  1.0000
  H   H9        1.0  0.62515423756737  0.5371776515504374  0.42107457382952557  1.0000
  H   H10       1.0  0.5825309711503457  0.6432374178381175  0.35274994504143786  1.0000
  H   H11       1.0  0.4601650280136728  0.6223270904019448  0.5053414368177976  1.0000
  S   S37       1.0  0.5944911903865268  0.4419065664270209  0.5467663195920558  1.0000
  S   S38       1.0  0.48644626806110985  0.7084908753584349  0.373588880508518  1.0000
  H   H12       1.0  0.5028560830327866  0.5168645916896782  0.5741273384397022  1.0000
  C   C19       1.0  0.9700599536379828  0.5059624899977767  0.4738563343527835  1.0000
  C   C20       1.0  0.9340453958916032  0.44654093545558915  0.47430316255054694  1.0000
  C   C21       1.0  0.9464985338998212  0.37079592076681217  0.4950954164265978  1.0000
  C   C22       1.0  0.9952779704947713  0.35453084703635973  0.5152801714477809  1.0000
  C   C23       1.0  0.031431654107416884  0.41383337524794195  0.5131664036284885  1.0000
  C   C24       1.0  0.018737622026138823  0.48968146320310685  0.4934211225308966  1.0000
  H   H13       1.0  0.04641439131896785  0.5359318223536063  0.49310804099065436  1.0000
  H   H14       1.0  0.9605203865513663  0.5642557354487998  0.4566854973466435  1.0000
  H   H15       1.0  0.9185885216933416  0.3247119725190929  0.49486748722636553  1.0000
  S   S39       1.0  0.09306615247634897  0.3928992054152829  0.5308431589668543  1.0000
  S   S40       1.0  0.8746600162338991  0.46705243659391515  0.44322286171741043  1.0000
  H   H16       1.0  0.005073546816131369  0.2956939880258503  0.5302488352684411  1.0000
  C   C25       1.0  0.49951351203752964  0.5875474029817677  0.018289376223819653  1.0000
  C   C26       1.0  0.4527305816768909  0.5717105818240154  0.9875072274938065  1.0000
  C   C27       1.0  0.4461013976197868  0.5114635167644466  0.9338778742851893  1.0000
  C   C28       1.0  0.48649270223073415  0.46705627175267417  0.9111196900228655  1.0000
  C   C29       1.0  0.5329748926255907  0.4818500491069151  0.9434591469810469  1.0000
  C   C30       1.0  0.5396770717354789  0.5428883376084808  0.9960227651605608  1.0000
  H   H17       1.0  0.5758152746652048  0.5553709350390559  0.01992339140001076  1.0000
  H   H18       1.0  0.504579617860104  0.6326974842747863  0.06122323611231151  1.0000
  H   H19       1.0  0.40986954647045215  0.49851801262011797  0.9103853103039937  1.0000
  S   S41       1.0  0.5827033004361382  0.4237569926807375  0.9193130600507989  1.0000
  S   S42       1.0  0.40266454067973007  0.6260214549480495  0.01848492329965734  1.0000
  H   H20       1.0  0.4815079089272925  0.4201502734893467  0.8698383041535184  1.0000
  C   C31       1.0  0.03732489415489337  0.9875871741993073  0.9950835424861105  1.0000
  C   C32       1.0  0.010503515245643857  0.00980751179910011  0.05922445028824108  1.0000
  C   C33       1.0  0.9784584032907134  0.07274171392616746  0.05548868183328648  1.0000
  C   C34       1.0  0.9734631631511581  0.113757329716619  0.9874726759477283  1.0000
  C   C35       1.0  0.0011819149576890453  0.0926485629099878  0.9238023102687986  1.0000
  C   C36       1.0  0.03283898714243283  0.02925683381832478  0.9274085114619388  1.0000
  H   H21       1.0  0.05398773438829085  0.01247939778391216  0.8780506506322197  1.0000
  H   H22       1.0  0.06214675935961922  0.9389226752168441  0.9980421221080503  1.0000
  H   H23       1.0  0.9574563435480419  0.08953568265152212  0.1050199863551502  1.0000
  S   S43       1.0  0.9964681803252917  0.14573160189557677  0.8399069829806269  1.0000
  S   S44       1.0  0.016950763073416697  0.9584987464150656  0.1438381879849413  1.0000
  H   H24       1.0  0.948704773617264  0.16241115484789148  0.984438975030822  1.0000
  C   C37       1.0  0.5850057511760105  0.05882138087722866  0.9104278654209372  1.0000
  C   C38       1.0  0.6045561744012071  0.10161734954905555  0.8501848890877257  1.0000
  C   C39       1.0  0.6317153429784838  0.17046236444502805  0.8651937929286785  1.0000
  C   C40       1.0  0.6382697336816998  0.19728847307100783  0.9402426789995829  1.0000
  C   C41       1.0  0.6166484109370061  0.15605531330010058  0.9999180198379625  1.0000
  C   C42       1.0  0.5904625741253299  0.08645734198740329  0.9851978506758068  1.0000
  H   H25       1.0  0.573619362757865  0.05492972307137611  0.0315113749841196  1.0000
  H   H26       1.0  0.5633240813551621  0.006698683676359396  0.8986372463032588  1.0000
  H   H27       1.0  0.6470777435356363  0.20380078539529212  0.8191913552335935  1.0000
  S   S45       1.0  0.6190081425840034  0.1932175719028384  0.09262678021635518  1.0000
  S   S46       1.0  0.5895095686447791  0.07290818437155622  0.7569101740152155  1.0000
  H   H28       1.0  0.658195484874233  0.25158861049092596  0.951353657453422  1.0000
  C   C43       1.0  0.4673395361993705  0.9802007122757433  0.4964461372007085  1.0000
  C   C44       1.0  0.4416355683223724  0.049457517047066135  0.488110099870533  1.0000
  C   C45       1.0  0.46419027011061653  0.11395670055492269  0.4538164487827624  1.0000
  C   C46       1.0  0.5139689891752806  0.11136452109323569  0.4336161153593446  1.0000
  C   C47       1.0  0.5407605490034224  0.043968153275293576  0.44749933651828677  1.0000
  C   C48       1.0  0.5169151821002814  0.9773253532436228  0.4757654651767252  1.0000
  H   H29       1.0  0.5371608209464442  0.9250613750123807  0.4865988904311899  1.0000
  H   H30       1.0  0.4502668540227701  0.930755417814845  0.5243530692309601  1.0000
  H   H31       1.0  0.4439410384860667  0.166826509256637  0.44604818990692696  1.0000
  S   S47       1.0  0.6049261624633723  0.04729282028300963  0.44166607901632016  1.0000
  S   S48       1.0  0.3860470158108262  0.06010247671892688  0.5356907229184588  1.0000
  H   H32       1.0  0.5321604276366598  0.1625656606244632  0.4105416931264014  1.0000
  C   C49       1.0  0.24785385489146594  0.6851002567574195  0.5471162943258207  1.0000
  C   C50       1.0  0.26680471621409896  0.6204226177136447  0.5844031027367025  1.0000
  C   C51       1.0  0.2819185513457189  0.5553940202958021  0.5424084975344661  1.0000
  C   C52       1.0  0.2777726730086577  0.5547423782883866  0.4630158154137776  1.0000
  C   C53       1.0  0.2588718104743293  0.6194260571899037  0.4254865531927676  1.0000
  C   C54       1.0  0.24394023869376458  0.6846240345476646  0.4676034211052709  1.0000
  H   H33       1.0  0.22739167676747618  0.7333626820769454  0.4392728723368489  1.0000
  H   H34       1.0  0.23486874784129452  0.7345458789687277  0.57977493423005  1.0000
  H   H35       1.0  0.29535323019290577  0.5047011958781343  0.5715255446963405  1.0000
  S   S49       1.0  0.2534236432331897  0.617886825101063  0.32610519030103186  1.0000
  S   S50       1.0  0.26737526923975974  0.6172249753791644  0.6836675596578152  1.0000
  H   H36       1.0  0.2891150667800087  0.5040241524337069  0.43082558602246923  1.0000
  C   C55       1.0  0.26682533805273767  0.887866601536739  0.9946423558157845  1.0000
  C   C56       1.0  0.2846272832101495  0.8969237795137976  0.06899321125760682  1.0000
  C   C57       1.0  0.3341371838332039  0.917503645528287  0.08177793303324754  1.0000
  C   C58       1.0  0.36658141485621154  0.9239604649216189  0.02028787870362181  1.0000
  C   C59       1.0  0.3494744550191436  0.9092859997386301  0.9462316368419685  1.0000
  C   C60       1.0  0.29933096979336815  0.8937115963397859  0.9331646683937731  1.0000
  H   H37       1.0  0.28608802763118374  0.8820735557862289  0.8759804697098389  1.0000
  H   H38       1.0  0.22850428620243468  0.8720500628681224  0.9848104614267926  1.0000
  H   H39       1.0  0.3480309789398832  0.923688256902895  0.13927782937134348  1.0000
  S   S51       1.0  0.39167841158818056  0.8955150058143603  0.8725805345116948  1.0000
  S   S52       1.0  0.2481196904695122  0.8662178928364116  0.1450106205205519  1.0000
  H   H40       1.0  0.40529061527763166  0.9360232395670954  0.030638955037326276  1.0000
  C   C61       1.0  0.7913238840410611  0.5380391386772998  0.9184822814369105  1.0000
  C   C62       1.0  0.8099084748223646  0.5043408405020942  0.8520490634012078  1.0000
  C   C63       1.0  0.8352305398179417  0.4340715602255961  0.8553074417331101  1.0000
  C   C64       1.0  0.8404804362531185  0.3960606905946006  0.924901158048808  1.0000
  C   C65       1.0  0.8178913651362626  0.42612453800934746  0.9900453822095698  1.0000
  C   C66       1.0  0.7946173871457315  0.49829566514066975  0.9872760587368383  1.0000
  H   H41       1.0  0.7788552534675021  0.5234116934594182  0.038017812248547056  1.0000
  H   H42       1.0  0.7723955934458415  0.593071451263624  0.9161684997590953  1.0000
  H   H43       1.0  0.850023186638294  0.4083968500046876  0.8039407929477668  1.0000
  S   S53       1.0  0.8172183619334822  0.37326359595744596  0.07465735864717593  1.0000
  S   S54       1.0  0.7972820008138461  0.546749419962589  0.7646386196956864  1.0000
  H   H44       1.0  0.8606670879612648  0.34240672811267425  0.9272404618496614  1.0000
  C   C67       1.0  0.825671781995053  0.1740318616560963  0.4454873652078089  1.0000
  C   C68       1.0  0.8041693556214753  0.1291306841620783  0.5029540693708056  1.0000
  C   C69       1.0  0.7849304520280427  0.054634718891134915  0.486031314100071  1.0000
  C   C70       1.0  0.7872085006886185  0.02475954841976069  0.4118085971364698  1.0000
  C   C71       1.0  0.8080832526917261  0.06980279478989226  0.35400745990136984  1.0000
  C   C72       1.0  0.8269849435334767  0.14474801885689392  0.3706007019424081  1.0000
  H   H45       1.0  0.8426799678154262  0.1800899894281256  0.32590243852025086  1.0000
  H   H46       1.0  0.8404439821075899  0.23189369395537351  0.4585628771808356  1.0000
  H   H47       1.0  0.7686040295778149  0.020008849692263464  0.5306037625266227  1.0000
  S   S55       1.0  0.8071976416245864  0.03296425961533833  0.26071600428327507  1.0000
  S   S56       1.0  0.8006671728768219  0.16519533768446393  0.5961769542944481  1.0000
  H   H48       1.0  0.7722520022543925  0.9671105985674017  0.3989337910024352  1.0000
  C   C73       1.0  0.2576449290880316  0.2830093169422374  0.7860723204894635  1.0000
  C   C74       1.0  0.2365637529470923  0.3039665977952541  0.8555458707271221  1.0000
  C   C75       1.0  0.2666596291083662  0.32400230734408114  0.9178262167699807  1.0000
  C   C76       1.0  0.31808966042338294  0.3218862949257153  0.910765683553568  1.0000
  C   C77       1.0  0.3390751346164116  0.3023103895866388  0.8407036923654106  1.0000
  C   C78       1.0  0.3089242170326161  0.28354028922063623  0.7782756108068613  1.0000
  H   H49       1.0  0.32517360114875493  0.2680050055298464  0.7242848922816323  1.0000
  H   H50       1.0  0.2344086517981605  0.26805051692295656  0.7377903398759486  1.0000
  H   H51       1.0  0.2502549239968672  0.34049506479547254  0.9714138938883088  1.0000
  S   S57       1.0  0.4029393523079519  0.29977272159323975  0.8305008880976733  1.0000
  S   S58       1.0  0.17262575474617292  0.31061528169855324  0.8621067637145793  1.0000
  H   H52       1.0  0.3414379005801372  0.33669088453050783  0.9589834159954734  1.0000
  C   C79       1.0  0.3162999808866091  0.28641258502182954  0.30842885379661367  1.0000
  C   C80       1.0  0.34762783863546776  0.3068564134637006  0.2486655424813131  1.0000
  C   C81       1.0  0.32972549623395264  0.30450255573301566  0.1738507688151252  1.0000
  C   C82       1.0  0.28054939799720335  0.28280748489252105  0.1589260756178026  1.0000
  C   C83       1.0  0.24900631834660514  0.26421084038579545  0.21883870949769757  1.0000
  C   C84       1.0  0.2671009435403428  0.2645054079112199  0.2934602936294799  1.0000
  H   H53       1.0  0.2429971221720719  0.2484949149616531  0.33977859945963673  1.0000
  H   H54       1.0  0.32978253723192724  0.2883948621494099  0.36625147968651767  1.0000
  H   H55       1.0  0.35295490091088855  0.3224878228724772  0.12749099808794487  1.0000
  S   S59       1.0  0.18609742284046504  0.24769901123627336  0.2010044949322356  1.0000
  S   S60       1.0  0.40757384137778185  0.34233444980925604  0.26786815069749104  1.0000
  H   H56       1.0  0.26660355584891016  0.2827651813818024  0.10122949081298271  1.0000
  C   C85       1.0  0.7094705037739233  0.9228533555627012  0.8460314220713675  1.0000
  C   C86       1.0  0.7531031481731967  0.8805201221166028  0.8466965223850104  1.0000
  C   C87       1.0  0.7540567313973074  0.8060631410474406  0.8135499101172919  1.0000
  C   C88       1.0  0.7111627301212603  0.7731973889951143  0.7811925134038676  1.0000
  C   C89       1.0  0.6668967307022082  0.8138491184834552  0.7831716737984294  1.0000
  C   C90       1.0  0.6663689393594528  0.889472397363382  0.8142690001256913  1.0000
  H   H57       1.0  0.6332074294898967  0.9232075022284195  0.8126133152998389  1.0000
  H   H58       1.0  0.7088046432035955  0.9813106972767613  0.8699127955834824  1.0000
  H   H59       1.0  0.7878418031585446  0.7734510922504524  0.813145760630499  1.0000
  S   S61       1.0  0.6125522999703508  0.7684457087255101  0.7482788321015642  1.0000
  S   S62       1.0  0.8068223989386263  0.9205765994304487  0.887670595686242  1.0000
  H   H60       1.0  0.7125452878901839  0.7156130732427997  0.7560430390115178  1.0000
  C   C91       1.0  0.7138115569405393  0.7684706457101365  0.09271449930337217  1.0000
  C   C92       1.0  0.6823017432774442  0.7601912735698586  0.15486443033583486  1.0000
  C   C93       1.0  0.7008765197791846  0.7365106754277232  0.22500698024298685  1.0000
  C   C94       1.0  0.7516144636077379  0.7262035517346537  0.23435550543959563  1.0000
  C   C95       1.0  0.7834729732080958  0.7384845417321598  0.17322962182072854  1.0000
  C   C96       1.0  0.7644673014329153  0.7570737649323653  0.10177354274455386  1.0000
  H   H61       1.0  0.7889012816378475  0.7678495627864601  0.054577734685281376  1.0000
  H   H62       1.0  0.6996820535621378  0.7885930049400167  0.038887121095280364  1.0000
  H   H63       1.0  0.6765785048684497  0.7316456618142603  0.27338021345506086  1.0000
  S   S63       1.0  0.8471537258159059  0.7378968435891731  0.18820738688437588  1.0000
  S   S64       1.0  0.6230084551125912  0.7972825317510919  0.15019938028640478  1.0000
  H   H64       1.0  0.7663537865815377  0.7120328857863708  0.2896285120572048  1.0000
  N   N1        1.0  0.4717347136394768  0.26377613801615074  0.04889998913811788  1.0000
  C   C97       1.0  0.5066096684346387  0.25814834392699515  0.984889738955058  1.0000
  C   C98       1.0  0.4957167124387805  0.23737567834627307  0.11939218989936018  1.0000
  C   C99       1.0  0.45689206003018024  0.3459154115205787  0.0584148790976069  1.0000
  C   C100      1.0  0.42782115242681434  0.21372354942422292  0.03281540461696375  1.0000
  H   H65       1.0  0.4907371986818502  0.2817428050557307  0.93159653532002  1.0000
  H   H66       1.0  0.5414794378669363  0.2913927315225845  0.9969499786075775  1.0000
  H   H67       1.0  0.5168130179192111  0.19675558237056734  0.9732613421549334  1.0000
  H   H68       1.0  0.4700315463374067  0.23936275006149876  0.16857910167613066  1.0000
  H   H69       1.0  0.528312220967777  0.2748935891121156  0.13421685781738635  1.0000
  H   H70       1.0  0.5088747065732969  0.17640211391171867  0.1132993302151748  1.0000
  H   H71       1.0  0.4895734020035961  0.38588959783439186  0.06395214374395719  1.0000
  H   H72       1.0  0.43482652303194963  0.36527833691028255  0.008854838751533922  1.0000
  H   H73       1.0  0.43438578746069756  0.35435463027152186  0.11021287254440915  1.0000
  H   H74       1.0  0.4007669136840014  0.21643321559404785  0.080005504467755  1.0000
  H   H75       1.0  0.4379460349463969  0.15144914860738434  0.025082879968726823  1.0000
  H   H76       1.0  0.40875881853120044  0.23177523536257397  0.9799117653022257  1.0000
  N   N2        1.0  0.10816774994371103  0.15287874713489225  0.6773487631199614  1.0000
  C   C101      1.0  0.13108684582523164  0.127963379513665  0.7492636599072162  1.0000
  C   C102      1.0  0.06693402096005285  0.09881339712747073  0.6572535917629225  1.0000
  C   C103      1.0  0.08940237713852128  0.2328709160636473  0.6869186381711893  1.0000
  C   C104      1.0  0.14516667665397587  0.15190975535575335  0.6159432777539712  1.0000
  H   H77       1.0  0.162781335760525  0.16694606308861082  0.7656914757326185  1.0000
  H   H78       1.0  0.10423147977173673  0.12967826539877292  0.7969684956745983  1.0000
  H   H79       1.0  0.14489641666998665  0.06729505316364603  0.7445943699356946  1.0000
  H   H80       1.0  0.0475814442123339  0.11773037656694108  0.6049223999680221  1.0000
  H   H81       1.0  0.03907887661491571  0.09601785779293714  0.703225815610455  1.0000
  H   H82       1.0  0.07995853144244269  0.038281612069492876  0.6472221999032931  1.0000
  H   H83       1.0  0.07245793379213518  0.25426173141810926  0.6334649241706579  1.0000
  H   H84       1.0  0.06081175243502668  0.23548996076071482  0.7320781976768885  1.0000
  H   H85       1.0  0.11956539698926982  0.27477629946354853  0.7032780540292163  1.0000
  H   H86       1.0  0.1286895347305996  0.16875555824110466  0.5605086765950867  1.0000
  H   H87       1.0  0.16064925586503964  0.0925768878699702  0.6078754344472732  1.0000
  H   H88       1.0  0.17639683030733885  0.1932284138494469  0.6283899884059235  1.0000
  N   N3        1.0  0.14272696663721662  0.4496185240168384  0.3167472601773179  1.0000
  C   C105      1.0  0.16304235163660108  0.46384145856509945  0.24026648017871025  1.0000
  C   C106      1.0  0.10254928062967217  0.3901149589974979  0.3120546996071686  1.0000
  C   C107      1.0  0.18229124858106682  0.42129694103595816  0.3666275173134543  1.0000
  C   C108      1.0  0.12330865385503831  0.5231945077791944  0.34828568966318113  1.0000
  H   H89       1.0  0.19281030208088135  0.5093521925375988  0.24218876391878946  1.0000
  H   H90       1.0  0.1791645716815351  0.4100678747361067  0.21574627665374593  1.0000
  H   H91       1.0  0.1342382568731919  0.4840861232069459  0.20063432728572228  1.0000
  H   H92       1.0  0.11578168954165169  0.3338392470781861  0.288335186983989  1.0000
  H   H93       1.0  0.0716887318939281  0.40968908351554617  0.27569269326350526  1.0000
  H   H94       1.0  0.08690931310484551  0.37780616154173774  0.3690881440944721  1.0000
  H   H95       1.0  0.16937085605525826  0.4138745444391352  0.4259753250159497  1.0000
  H   H96       1.0  0.19570384264569518  0.3638909933628687  0.3464754703872051  1.0000
  H   H97       1.0  0.21420061714669747  0.4627653865961184  0.3681463862619152  1.0000
  H   H98       1.0  0.10941625270936672  0.5147583667866095  0.4069337492817276  1.0000
  H   H99       1.0  0.09237672714884826  0.5450098196070406  0.31304980893261747  1.0000
  H   H100      1.0  0.1523463556577367  0.569917224039456  0.3513780854148718  1.0000
  N   N4        1.0  0.7955086345112945  0.13452136014769556  0.027643340061428434  1.0000
  C   C109      1.0  0.83342288331452  0.18614442510021845  0.9937892141109935  1.0000
  C   C110      1.0  0.7600040427222253  0.10893675042022366  0.9679568135091297  1.0000
  C   C111      1.0  0.8194354693953448  0.06563705331150138  0.0604173051468313  1.0000
  C   C112      1.0  0.7694673200209872  0.17816451941252942  0.08783914538253867  1.0000
  H   H101      1.0  0.858928486711562  0.21123635869726543  0.037827090145207354  1.0000
  H   H102      1.0  0.8559578628380401  0.15435687629905215  0.9513834156604896  1.0000
  H   H103      1.0  0.8160404947332283  0.2358083844902985  0.9644634853751304  1.0000
  H   H104      1.0  0.7312439038656  0.06854344393008804  0.9906041941831312  1.0000
  H   H105      1.0  0.7787059849703214  0.07760666058476917  0.920812892914776  1.0000
  H   H106      1.0  0.7408887847711614  0.1594228816163008  0.942686410880935  1.0000
  H   H107      1.0  0.7920411527045834  0.025130261147845223  0.08654921114062697  1.0000
  H   H108      1.0  0.8392619192414008  0.031579255555318486  0.01618137354162763  1.0000
  H   H109      1.0  0.8464056608910827  0.08302034394177404  0.10569758953454311  1.0000
  H   H110      1.0  0.7403826029419298  0.1417743810081038  0.11476314122654885  1.0000
  H   H111      1.0  0.7513692025833013  0.23072779909612784  0.06468096954674074  1.0000
  H   H112      1.0  0.7952605851148853  0.1983783618510131  0.13376247246616702  1.0000
  N   N5        1.0  0.2473811899570333  0.6204870647687918  0.02415629611431469  1.0000
  C   C113      1.0  0.26350984113856746  0.539040129216612  0.013443552261595881  1.0000
  C   C114      1.0  0.269950654752858  0.6541058394210092  0.09401422576434681  1.0000
  C   C115      1.0  0.2630021913708567  0.6674793025220677  0.9582051226911147  1.0000
  C   C116      1.0  0.19315503173276016  0.6220099946821676  0.03140550613736881  1.0000
  H   H113      1.0  0.24705490830389948  0.5118333825480438  0.96115114909122  1.0000
  H   H114      1.0  0.30436609587790425  0.5363950437574384  0.00777113940369345  1.0000
  H   H115      1.0  0.2527845474988315  0.5019472006894994  0.062406943390120206  1.0000
  H   H116      1.0  0.25840587428117945  0.7151845443209331  0.10345782294067307  1.0000
  H   H117      1.0  0.31080768194144515  0.6556656498223926  0.09056428265641192  1.0000
  H   H118      1.0  0.2590090199335513  0.6208616153397355  0.1454053707607621  1.0000
  H   H119      1.0  0.25065853484489303  0.7288448844489913  0.9638392285329933  1.0000
  H   H120      1.0  0.3039163695354047  0.6696895107741915  0.9529529443386052  1.0000
  H   H121      1.0  0.247583567450214  0.6431965956742013  0.9039795362594968  1.0000
  H   H122      1.0  0.1802280195057799  0.5874782134574814  0.08091142713348365  1.0000
  H   H123      1.0  0.1744187596194273  0.5975480963509505  0.9799539273521923  1.0000
  H   H124      1.0  0.18008026691555415  0.6828865295926796  0.03968522399219787  1.0000
  N   N6        1.0  0.41128266753851794  0.6886283206392922  0.7399177069529821  1.0000
  C   C117      1.0  0.37148934610079953  0.6926338835193033  0.7969498464845771  1.0000
  C   C118      1.0  0.391692125705666  0.6535371724360236  0.6685941708617856  1.0000
  C   C119      1.0  0.43042977091813295  0.7682663891119119  0.7245339324988189  1.0000
  C   C120      1.0  0.4515314353251971  0.6401584905354228  0.7691953454506081  1.0000
  H   H125      1.0  0.3850038338359564  0.7188837804385071  0.8516436034179949  1.0000
  H   H126      1.0  0.340555903153324  0.7290602757387542  0.7767099077389513  1.0000
  H   H127      1.0  0.35582651645706875  0.6335589679317116  0.8092866994548369  1.0000
  H   H128      1.0  0.42092715572601624  0.6483148076502888  0.6249066310036748  1.0000
  H   H129      1.0  0.36190527859817706  0.6896517947300098  0.6442328241328666  1.0000
  H   H130      1.0  0.3755126751529346  0.594196905740558  0.6781915790682693  1.0000
  H   H131      1.0  0.4602052242789628  0.7678722286698118  0.6811774507625273  1.0000
  H   H132      1.0  0.4007086734198392  0.8068338542835407  0.7038258955553677  1.0000
  H   H133      1.0  0.445780316449186  0.7963994220971676  0.7767784151675108  1.0000
  H   H134      1.0  0.4828044706033344  0.6379846441902096  0.7285583170699422  1.0000
  H   H135      1.0  0.43862439737601816  0.5790139763280476  0.7793168817074956  1.0000
  H   H136      1.0  0.46625608856371353  0.6635151052441841  0.8241822409775388  1.0000
  N   N7        1.0  0.0754789009913237  0.28929643502184554  0.034801559179029606  1.0000
  C   C121      1.0  0.10078399112393277  0.2136736679576574  0.030121065396287117  1.0000
  C   C122      1.0  0.04948631653111656  0.3032790565033545  0.9623447740771007  1.0000
  C   C123      1.0  0.03959710047312637  0.2874930476680315  0.09778401198368236  1.0000
  C   C124      1.0  0.11217850976577746  0.35269811058957995  0.04920072992266644  1.0000
  H   H137      1.0  0.07438749230345332  0.1645087431429206  0.018797788771021118  1.0000
  H   H138      1.0  0.1286590447335756  0.21330122127594198  0.9838593190529497  1.0000
  H   H139      1.0  0.12039056946719141  0.20085883837126017  0.0839197524897235  1.0000
  H   H140      1.0  0.03357462244059727  0.36237074128346713  0.9607397051755202  1.0000
  H   H141      1.0  0.018730424093460707  0.26061178543254004  0.9530053965537367  1.0000
  H   H142      1.0  0.07454572290306372  0.29803157511046596  0.9128376944923222  1.0000
  H   H143      1.0  0.019698789838143105  0.3436285688577215  0.10271407010186939  1.0000
  H   H144      1.0  0.011527125436917808  0.2399314170077518  0.08933504925980529  1.0000
  H   H145      1.0  0.05821296758021366  0.27734279031721343  0.1532389376037484  1.0000
  H   H146      1.0  0.14063757620552386  0.3545922248175805  0.004162099213669057  1.0000
  H   H147      1.0  0.13159777410325968  0.3445953793357188  0.10410316243810169  1.0000
  H   H148      1.0  0.09458435292889632  0.410703831640295  0.05127549752912586  1.0000
  N   N8        1.0  0.6509915490725827  0.8411297975289614  0.5293488672191948  1.0000
  C   C125      1.0  0.620682576105211  0.8257740315555291  0.46048467922009023  1.0000
  C   C126      1.0  0.6648791267592563  0.7659337862435074  0.5627322939808969  1.0000
  C   C127      1.0  0.695989845722964  0.8859133334621878  0.5088202084649971  1.0000
  C   C128      1.0  0.6226463541393125  0.8864347471217737  0.5857593576846949  1.0000
  H   H149      1.0  0.6108866643002034  0.8809543520195138  0.43194527408320976  1.0000
  H   H150      1.0  0.6406017990916608  0.7897154351080156  0.4179210446610911  1.0000
  H   H151      1.0  0.5856503274578991  0.7940235424353652  0.4740896841920902  1.0000
  H   H152      1.0  0.6876402069193628  0.7750167604279152  0.6150303641994593  1.0000
  H   H153      1.0  0.6864185063382235  0.7298690318701737  0.5221887365037771  1.0000
  H   H154      1.0  0.6315781675166309  0.7311054296644264  0.5791211300613378  1.0000
  H   H155      1.0  0.7198978014489594  0.8975140401667846  0.5594866625900972  1.0000
  H   H156      1.0  0.7181306572059908  0.8540175291885274  0.4658139188262216  1.0000
  H   H157      1.0  0.6866885788740469  0.9435721310836922  0.48430576098270445  1.0000
  H   H158      1.0  0.6443652376002992  0.8977029100800038  0.6387714656363624  1.0000
  H   H159      1.0  0.5881769421516267  0.8549398690558847  0.6023567306852766  1.0000
  H   H160      1.0  0.612235261504929  0.9443460389135108  0.563650377732547  1.0000
  N   N9        1.0  0.4156195898191891  0.34539625666979723  0.5431175732733621  1.0000
  C   C129      1.0  0.3816194337147123  0.27706364937953665  0.5366649289637  1.0000
  C   C130      1.0  0.46568800977589414  0.3228047287280129  0.5194790640113188  1.0000
  C   C131      1.0  0.3981871739746457  0.40796823713608954  0.49310944922120575  1.0000
  C   C132      1.0  0.41685837513306967  0.37390207860604696  0.6228228084464925  1.0000
  H   H161      1.0  0.34354135811386804  0.29193688562600073  0.5542061448143213  1.0000
  H   H162      1.0  0.37956830244299383  0.25393162085352494  0.47733822441971685  1.0000
  H   H163      1.0  0.39370687929594206  0.22831904122678282  0.5731871519320128  1.0000
  H   H164      1.0  0.492659210515292  0.37227476932082393  0.5262053149227582  1.0000
  H   H165      1.0  0.4663675197857451  0.3043278906248865  0.45856466013015634  1.0000
  H   H166      1.0  0.47953056206863137  0.27349161073031625  0.5536299021875645  1.0000
  H   H167      1.0  0.4231444399885347  0.4603052073550833  0.4959672661028653  1.0000
  H   H168      1.0  0.3967564104412417  0.3880760878125995  0.4325438877881326  1.0000
  H   H169      1.0  0.36051432967717695  0.42670395035833564  0.5087587448970696  1.0000
  H   H170      1.0  0.4423159605745234  0.4251290219874704  0.6301577175365377  1.0000
  H   H171      1.0  0.4297225086431485  0.3280314918686633  0.662195498687625  1.0000
  H   H172      1.0  0.3796526872290593  0.39128610853173695  0.6426022547675706  1.0000
  N   N10       1.0  0.9261174346266633  0.6253203889005308  0.6671134412685195  1.0000
  C   C133      1.0  0.9125750921822613  0.6764813918552764  0.7316929232577515  1.0000
  C   C134      1.0  0.9321299930236114  0.5443964600093051  0.6936975059292813  1.0000
  C   C135      1.0  0.8867876473974954  0.6267242591941742  0.6087516632162457  1.0000
  C   C136      1.0  0.973019797949729  0.6539928250666497  0.634274170339565  1.0000
  H   H173      1.0  0.9084924207023776  0.738128182639095  0.7133366721579432  1.0000
  H   H174      1.0  0.8769995405945206  0.6572103321469782  0.7572848041701096  1.0000
  H   H175      1.0  0.9411041446766509  0.6758930668550931  0.7771963449619655  1.0000
  H   H176      1.0  0.9419207521399972  0.5042771240698688  0.6459979352589651  1.0000
  H   H177      1.0  0.8974437190679425  0.5209674750995164  0.7190326472997718  1.0000
  H   H178      1.0  0.9616416916184852  0.5411887067080482  0.7376421574834684  1.0000
  H   H179      1.0  0.895427517720314  0.5883530340626257  0.5593643063262553  1.0000
  H   H180      1.0  0.8508920224225681  0.6052907241414776  0.6318239913625702  1.0000
  H   H181      1.0  0.8814320440671466  0.6868554259803913  0.587150389806207  1.0000
  H   H182      1.0  0.9850285533598353  0.6161552012492004  0.5865901124398271  1.0000
  H   H183      1.0  0.003209038653696039  0.6554788126542996  0.677198529084882  1.0000
  H   H184      1.0  0.9695655780140251  0.7141068286998782  0.6121510410911766  1.0000
  N   N11       1.0  0.3234364645852883  0.8843586398848163  0.38089568784926875  1.0000
  C   C137      1.0  0.36214182819086393  0.8318555392159053  0.40843800069798264  1.0000
  C   C138      1.0  0.34671596405127403  0.9540144741706681  0.3461952231254979  1.0000
  C   C139      1.0  0.2926528272715693  0.8428478020150484  0.3233534834118398  1.0000
  C   C140      1.0  0.29220445009088536  0.908850298991208  0.4452896761418852  1.0000
  H   H185      1.0  0.3458979815859513  0.7778181948772468  0.4335065803116075  1.0000
  H   H186      1.0  0.3870562507888879  0.8135102927126716  0.36161299347592596  1.0000
  H   H187      1.0  0.38556723695954565  0.8612055056072399  0.45269764919531885  1.0000
  H   H188      1.0  0.31861425241583086  0.994669108872194  0.3244219910201654  1.0000
  H   H189      1.0  0.37077445233169026  0.9376498955040219  0.29770525631224276  1.0000
  H   H190      1.0  0.3699196378863981  0.9872237211516744  0.38803615047863255  1.0000
  H   H191      1.0  0.260863454249741  0.8785738335163119  0.3056572092145691  1.0000
  H   H192      1.0  0.31403964862990313  0.8288499672561096  0.2713340145735259  1.0000
  H   H193      1.0  0.2774024120893913  0.7868167415687276  0.34494466805778257  1.0000
  H   H194      1.0  0.26267410550255876  0.9488882688006361  0.426659119283502  1.0000
  H   H195      1.0  0.31422710582347557  0.9405265818837855  0.4898466340145774  1.0000
  H   H196      1.0  0.27378244924479245  0.8578506825313396  0.4725069795767995  1.0000
  N   N12       1.0  0.6550192876991425  0.22637781627685505  0.5833735657434922  1.0000
  C   C141      1.0  0.6712578435201377  0.14554428317322787  0.5958252557004355  1.0000
  C   C142      1.0  0.6984219257289448  0.27975500127542907  0.5800681570839381  1.0000
  C   C143      1.0  0.6274323738396472  0.22981944384606812  0.511045553486715  1.0000
  C   C144      1.0  0.6227412743315793  0.25021240475688034  0.6465389317132055  1.0000
  H   H197      1.0  0.6392678195678656  0.10403147082859387  0.5994438119061614  1.0000
  H   H198      1.0  0.6951109685628958  0.12507681111400215  0.5486535547851825  1.0000
  H   H199      1.0  0.6928037654950913  0.14101738480664894  0.6495584648029016  1.0000
  H   H200      1.0  0.6874018451638139  0.34142801561722735  0.5718880952692718  1.0000
  H   H201      1.0  0.7232655308451061  0.2636536634871789  0.5323858876378177  1.0000
  H   H202      1.0  0.7207884967274946  0.2776356661099175  0.6332066633938829  1.0000
  H   H203      1.0  0.6172637781705431  0.29058352827368417  0.4973116866767041  1.0000
  H   H204      1.0  0.6495817931668241  0.20696873372327995  0.4628018221651183  1.0000
  H   H205      1.0  0.5928094197544803  0.19435587471166382  0.5137970696383531  1.0000
  H   H206      1.0  0.6079968496254997  0.3095024042012473  0.6378398650406376  1.0000
  H   H207      1.0  0.6431917310688401  0.25135058231508345  0.7012164775858248  1.0000
  H   H208      1.0  0.5908119172030896  0.20900648525850696  0.6528060742974786  1.0000
  N   N13       1.0  0.667688688959017  0.4352623431397144  0.14396505240716517  1.0000
  C   C145      1.0  0.6871190661254304  0.5149398855993638  0.16106434722841745  1.0000
  C   C146      1.0  0.6943693721828836  0.3778867495069836  0.19006861403833764  1.0000
  C   C147      1.0  0.6145808620950578  0.4308028028295136  0.1621254128362366  1.0000
  C   C148      1.0  0.6745863634417458  0.41706665894364814  0.062417328661986016  1.0000
  H   H209      1.0  0.6676724445439451  0.5598885703356081  0.12752367878166782  1.0000
  H   H210      1.0  0.6829635337533506  0.5305099776618444  0.2222744440790969  1.0000
  H   H211      1.0  0.7270084160212583  0.5203062207212781  0.1473325818843214  1.0000
  H   H212      1.0  0.6812834709605349  0.3170178896910576  0.17717437644836243  1.0000
  H   H213      1.0  0.6893789064409259  0.3888731649700736  0.25199045773018725  1.0000
  H   H214      1.0  0.7347034508680322  0.3804956988635854  0.17865712922757515  1.0000
  H   H215      1.0  0.5991635234005936  0.3710567714840859  0.1504868917196216  1.0000
  H   H216      1.0  0.6078012043783722  0.445184669732195  0.223018664315221  1.0000
  H   H217      1.0  0.5932264742662882  0.472202438278866  0.12725269293950392  1.0000
  H   H218      1.0  0.6567345741593239  0.3601473117033126  0.04604961550577702  1.0000
  H   H219      1.0  0.7142176324708647  0.4132228189844115  0.04769520286189621  1.0000
  H   H220      1.0  0.6585216473424335  0.4626560424087344  0.02575307182515263  1.0000
  N   N14       1.0  0.9287506146622329  0.8895197378883603  0.32368338401405583  1.0000
  C   C149      1.0  0.9177847715949645  0.8070241582870825  0.34210767043029194  1.0000
  C   C150      1.0  0.910529700046331  0.9062987475135934  0.24645268282310556  1.0000
  C   C151      1.0  0.903780991462241  0.9406660827155798  0.3788965766138954  1.0000
  C   C152      1.0  0.9825852405036487  0.9039597824489367  0.3272906371544415  1.0000
  H   H221      1.0  0.9309093010396735  0.7926602151827601  0.40028719487182723  1.0000
  H   H222      1.0  0.8774129613386892  0.7940740566259002  0.3397208399617941  1.0000
  H   H223      1.0  0.9356466128325708  0.7667967225240588  0.30101194271754883  1.0000
  H   H224      1.0  0.918231465229468  0.9681877894617519  0.23089626953606882  1.0000
  H   H225      1.0  0.8699234336227339  0.8962820954041228  0.24191442466479557  1.0000
  H   H226      1.0  0.9281641298624571  0.8683443552050905  0.20315323995417692  1.0000
  H   H227      1.0  0.9105797805479945  0.003617652442620134  0.3666349853321027  1.0000
  H   H228      1.0  0.8633011024055649  0.9299379213231681  0.3773260654499862  1.0000
  H   H229      1.0  0.916133685330806  0.9297888226128045  0.43788645239965696  1.0000
  H   H230      1.0  0.9921335809210685  0.9664719881099828  0.31687238177480115  1.0000
  H   H231      1.0  0.0021240216924918176  0.868560934638455  0.2838037942061137  1.0000
  H   H232      1.0  0.9979265298595705  0.8882180388828022  0.38356248400894183  1.0000
  N   N15       1.0  0.926876096872824  0.7787716088359494  0.9965316096747857  1.0000
  C   C153      1.0  0.9584451598605009  0.7450410847010573  0.055895780951856766  1.0000
  C   C154      1.0  0.8868210011760644  0.7224897892587085  0.9758415099998397  1.0000
  C   C155      1.0  0.9055132283250588  0.8520621453290058  0.025524668830953168  1.0000
  C   C156      1.0  0.956886540909854  0.7957017094581684  0.9286389536822071  1.0000
  H   H233      1.0  0.9903526205488863  0.7845280246254304  0.07030847725172018  1.0000
  H   H234      1.0  0.9375607494346377  0.7348097809320774  0.1091366472173767  1.0000
  H   H235      1.0  0.9730197132589722  0.6877361078752153  0.037288453605390126  1.0000
  H   H236      1.0  0.8605777738567179  0.7479976644096418  0.9344227746727664  1.0000
  H   H237      1.0  0.8651332667823001  0.7049970682342814  0.026589162614028883  1.0000
  H   H238      1.0  0.9015430743733308  0.6679364563848127  0.9501938647991638  1.0000
  H   H239      1.0  0.8843235886572305  0.8818153893414501  0.9806373209734692  1.0000
  H   H240      1.0  0.8797890255671416  0.8410503203646104  0.07337519943985482  1.0000
  H   H241      1.0  0.9346123800884657  0.8938451648615164  0.04604445769711796  1.0000
  H   H242      1.0  0.9337107110874836  0.8180632101120091  0.8817097463470007  1.0000
  H   H243      1.0  0.9753305648109042  0.7424119462598473  0.9071387616270628  1.0000
  H   H244      1.0  0.9861949108438444  0.8404656151926481  0.9412694319477172  1.0000
  N   N16       1.0  0.532712716563548  0.8175108664933903  0.9612325676555709  1.0000
  C   C157      1.0  0.48423610223751096  0.785477045076459  0.9843997962623818  1.0000
  C   C158      1.0  0.5701639074609588  0.7560015383672399  0.9654497648821359  1.0000
  C   C159      1.0  0.5295123084063731  0.8455495482234913  0.8824143343718349  1.0000
  C   C160      1.0  0.5467793637517819  0.883288583593007  0.01247460503960851  1.0000
  H   H245      1.0  0.4553207930979782  0.8303716974288579  0.98200082746514  1.0000
  H   H246      1.0  0.47203702108011397  0.7362138731570403  0.9468811509670951  1.0000
  H   H247      1.0  0.48505854200070286  0.76405818712416  0.04382911479890028  1.0000
  H   H248      1.0  0.60746607980268  0.7790595122667868  0.9500392641138075  1.0000
  H   H249      1.0  0.5613723082210491  0.7063356576148994  0.9260018232260888  1.0000
  H   H250      1.0  0.5728398343108292  0.732052054334578  0.023744873976228265  1.0000
  H   H251      1.0  0.5649836282120975  0.8721881444953165  0.8642000983830421  1.0000
  H   H252      1.0  0.5213716593111614  0.7967795668455354  0.8418855243923736  1.0000
  H   H253      1.0  0.5006170778684151  0.8903329655945448  0.8759754004075393  1.0000
  H   H254      1.0  0.5848914871802604  0.9052098598947667  0.0007034729283939001  1.0000
  H   H255      1.0  0.5458797375073098  0.8653954937598201  0.07300558305365734  1.0000
  H   H256      1.0  0.5210745056074434  0.9327490085767098  0.006633982374086855  1.0000
