data_image0
_chemical_formula_structural       C2HC2H3C3H2CHC7HCH2PH2C3H2CHCH2CHCHC2H2CHCH2C3HC2HSHCH2C2H3SHC2HC2HCHC5H2CHCH3SH2CHCHCHC4H4C2H2C2HCHPCHCHC2H2C3HC2HC3H5CH2C6SCSC3HC2HCPC5H4C3HPCHCHCHCHCH2C3HPCH3CH3CH3C4H5C3HC11HCH4C3HCH2C2HC2H2CHCSHFeSFeHCHFeHSC3HC5H3C2HC2H4C6HFeH2CHC9H2CH5FeC2HC7PC3HC13H6CH13C3HCHSCHCHFeHC2PCSHCHCH2C2H4S3HSCHFeSHFeSHFeSFeHSC4FeH2SH2C7H3C2HSC2H3CH2C2SHCHC3PC9HC8HC2H8CH3C3HC6PHC2H2C2HCHC3SC2SH6CH3CSHCFeCHC3H4CH3CH2C5HC3H2CHC3HC3H3CHC2S2H3C2H2CFeH3SPH2C4FeSFeS2FeSFe2S2FeS2FeHFeHFeS2CHC4H3C6H3SH2C6H2C4H2C2SC6PC2H2C6H2CH2CSH5CHC2HC2S2HC2HCH2SHC2HC3SHCHC2HCHCHC2FeHC2H2C3SH3CHCH5C4HCPH5C6HC2H2C3SCSCHSCHC2H2C4HC2H7CH2CH4C2HC2HSCHCHCHCH4FeS2FeS2FeS3HFeS2Fe2CS2FeSPC3H2C2SH2C6H4CHC4H2CHC3H3C7H2CHC3HCH2PHCH2CHCHC2HFeHC3HCHC4HCHC5HCHCH5C2HC3H2C2H2C2SHC2HCHFeCH4SHCHCHC2H2C2H2FeHC4HCPCH2SC2HC4H3CH2CH3CSHC2HCH3C3HCHCPH4C2HC3H2C3HC6H2C7HPHC2HCH5PHCHC4HCHC3HC7HC2H2CH3C3H2CH2C5H4C4HCPSCHC2SHC2HC2HC3HC2H4C2HCHCHC6SC5HC2H4C3H2PCH5C2H4C3H4CFeCHCH2C2HFeC3HCHFeCFeHSHFeHS2FeHSFeCSFeH2SHCHC2SCSC6FeH3CHC2HC2SCPC6HSH3C3HC2H2C3H3C3PH3CH3C3H2CHC2HCSC5FeC3H2CHCH2CH3CHSHCSCHC2HSHCHC2H2CH3SH3FeS3HCFeHSHFe2CSC8HCHFeHSHC2H2SC3H2C6H3CHPC12H2CSC4H9CSH2C3HC2HC2HC2HC3SC2S2HCPH
_chemical_formula_sum              "C720 H576 P24 S96 Fe48"
_cell_length_a       43.905
_cell_length_b       47.5305
_cell_length_c       38.6077
_cell_angle_alpha    89.4713
_cell_angle_beta     89.257
_cell_angle_gamma    135.79

_space_group_name_H-M_alt    "P 1"
_space_group_IT_number       1

loop_
  _space_group_symop_operation_xyz
  'x, y, z'

loop_
  _atom_site_type_symbol
  _atom_site_label
  _atom_site_symmetry_multiplicity
  _atom_site_fract_x
  _atom_site_fract_y
  _atom_site_fract_z
  _atom_site_occupancy
  C   C1        1.0  0.37118  0.05491  0.27896  1.0000
  C   C2        1.0  0.44171  0.07009  0.17966  1.0000
  H   H1        1.0  0.39571  0.03400  0.22211  1.0000
  C   C3        1.0  0.48109  0.10841  0.16836  1.0000
  C   C4        1.0  0.34255  0.02392  0.30403  1.0000
  H   H2        1.0  0.29579  0.03903  0.23027  1.0000
  H   H3        1.0  0.37519  0.08344  0.23243  1.0000
  H   H4        1.0  0.45481  0.20622  0.12538  1.0000
  C   C5        1.0  0.28067  0.00430  0.27609  1.0000
  C   C6        1.0  0.43868  0.15158  0.29292  1.0000
  C   C7        1.0  0.42590  0.06404  0.21349  1.0000
  H   H5        1.0  0.49110  0.48873  0.26460  1.0000
  H   H6        1.0  0.05566  0.46814  0.05506  1.0000
  C   C8        1.0  0.00703  0.40669  0.17907  1.0000
  H   H7        1.0  0.02619  0.42146  0.01177  1.0000
  C   C9        1.0  0.02456  0.46919  0.14481  1.0000
  C   C10       1.0  0.29751  0.99883  0.30260  1.0000
  C   C11       1.0  0.48962  0.40104  0.11294  1.0000
  C   C12       1.0  0.04215  0.44664  0.18900  1.0000
  C   C13       1.0  0.30884  0.03481  0.25089  1.0000
  C   C14       1.0  0.45909  0.18846  0.30726  1.0000
  C   C15       1.0  0.44932  0.09648  0.23613  1.0000
  H   H8        1.0  0.47090  0.06044  0.26280  1.0000
  C   C16       1.0  0.46321  0.05580  0.29031  1.0000
  H   H9        1.0  0.00035  0.38239  0.19212  1.0000
  H   H10       1.0  0.40995  0.13589  0.27783  1.0000
  P   P1        1.0  0.42959  0.08782  0.28016  1.0000
  H   H11       1.0  0.04574  0.48769  0.24985  1.0000
  H   H12       1.0  0.06285  0.45276  0.20933  1.0000
  C   C17       1.0  0.45537  0.13543  0.29835  1.0000
  C   C18       1.0  0.48251  0.38776  0.17465  1.0000
  C   C19       1.0  0.35386  0.05996  0.25224  1.0000
  H   H13       1.0  0.44591  0.20064  0.30338  1.0000
  H   H14       1.0  0.01583  0.48529  0.07206  1.0000
  C   C20       1.0  0.44326  0.06617  0.30577  1.0000
  H   H15       1.0  0.46745  0.17403  0.16488  1.0000
  C   C21       1.0  0.05032  0.47809  0.17252  1.0000
  H   H16       1.0  0.46928  0.36661  0.19619  1.0000
  H   H17       1.0  0.42381  0.04506  0.16224  1.0000
  C   C22       1.0  0.48674  0.20578  0.16705  1.0000
  H   H18       1.0  0.44774  0.34167  0.13639  1.0000
  C   C23       1.0  0.47960  0.22388  0.14479  1.0000
  H   H19       1.0  0.48109  0.39016  0.08671  1.0000
  C   C24       1.0  0.48912  0.13477  0.22474  1.0000
  C   C25       1.0  0.47564  0.04103  0.31066  1.0000
  H   H20       1.0  0.47758  0.28126  0.29206  1.0000
  H   H21       1.0  0.35455  0.01876  0.32466  1.0000
  C   C26       1.0  0.47061  0.37368  0.14091  1.0000
  H   H22       1.0  0.49252  0.03460  0.29870  1.0000
  C   C27       1.0  0.99657  0.41313  0.00555  1.0000
  H   H23       1.0  0.36725  0.42637  0.61177  1.0000
  H   H24       1.0  0.12435  0.43245  0.53832  1.0000
  C   C28       1.0  0.26744  0.47728  0.60150  1.0000
  C   C29       1.0  0.43654  0.06199  0.34192  1.0000
  C   C30       1.0  0.42792  0.44500  0.60446  1.0000
  H   H25       1.0  0.29047  0.42954  0.56405  1.0000
  C   C31       1.0  0.40390  0.45004  0.65909  1.0000
  C   C32       1.0  0.29307  0.39764  0.64084  1.0000
  H   H26       1.0  0.04796  0.42285  0.46161  1.0000
  S   S1        1.0  0.14440  0.47464  0.61361  1.0000
  H   H27       1.0  0.00342  0.47381  0.58653  1.0000
  C   C33       1.0  0.25094  0.36360  0.63011  1.0000
  H   H28       1.0  0.01362  0.43617  0.55562  1.0000
  H   H29       1.0  0.01580  0.44790  0.45563  1.0000
  C   C34       1.0  0.39653  0.43887  0.62423  1.0000
  C   C35       1.0  0.26082  0.44704  0.58552  1.0000
  H   H30       1.0  0.44368  0.04398  0.39001  1.0000
  H   H31       1.0  0.22793  0.41805  0.58113  1.0000
  H   H32       1.0  0.23930  0.36513  0.60630  1.0000
  S   S2        1.0  0.22057  0.46392  0.61745  1.0000
  H   H33       1.0  0.42260  0.43752  0.57731  1.0000
  C   C36       1.0  0.29624  0.45348  0.57598  1.0000
  C   C37       1.0  0.05756  0.39692  0.55362  1.0000
  H   H34       1.0  0.31358  0.42519  0.62525  1.0000
  C   C38       1.0  0.46685  0.46212  0.61928  1.0000
  C   C39       1.0  0.22407  0.32782  0.65000  1.0000
  H   H35       1.0  0.19148  0.30138  0.64156  1.0000
  C   C40       1.0  0.46814  0.03634  0.34651  1.0000
  H   H36       1.0  0.49174  0.46808  0.60355  1.0000
  C   C41       1.0  0.01400  0.39233  0.51084  1.0000
  C   C42       1.0  0.09334  0.42052  0.53039  1.0000
  C   C43       1.0  0.08939  0.42946  0.49723  1.0000
  C   C44       1.0  0.04986  0.41528  0.48735  1.0000
  C   C45       1.0  0.01800  0.38274  0.54389  1.0000
  H   H37       1.0  0.06086  0.39041  0.57948  1.0000
  H   H38       1.0  0.11741  0.44830  0.47949  1.0000
  C   C46       1.0  0.47459  0.47342  0.65388  1.0000
  H   H39       1.0  0.42301  0.07144  0.35460  1.0000
  C   C47       1.0  0.44838  0.04662  0.36210  1.0000
  H   H40       1.0  0.01019  0.45955  0.39457  1.0000
  H   H41       1.0  0.47881  0.02589  0.36239  1.0000
  H   H42       1.0  0.02799  0.46402  0.80359  1.0000
  S   S3        1.0  0.08808  0.46472  0.69681  1.0000
  H   H43       1.0  0.19946  0.36914  0.68676  1.0000
  H   H44       1.0  0.47569  0.36310  0.95371  1.0000
  C   C48       1.0  0.24228  0.40330  0.72952  1.0000
  H   H45       1.0  0.02383  0.44064  0.74540  1.0000
  C   C49       1.0  0.31438  0.48506  0.86539  1.0000
  H   H46       1.0  0.29230  0.35825  0.71546  1.0000
  C   C50       1.0  0.21454  0.39416  0.70363  1.0000
  H   H47       1.0  0.38450  0.47021  0.81083  1.0000
  C   C51       1.0  0.99863  0.43666  0.98152  1.0000
  C   C52       1.0  0.38368  0.40624  0.77131  1.0000
  C   C53       1.0  0.22562  0.44971  0.72116  1.0000
  C   C54       1.0  0.38091  0.45269  0.79036  1.0000
  H   H48       1.0  0.18447  0.42491  0.78903  1.0000
  H   H49       1.0  0.03004  0.46304  0.96966  1.0000
  H   H50       1.0  0.28423  0.44277  0.77023  1.0000
  H   H51       1.0  0.48912  0.43603  0.98064  1.0000
  C   C55       1.0  0.37256  0.45618  0.75660  1.0000
  C   C56       1.0  0.26282  0.43641  0.75054  1.0000
  H   H52       1.0  0.02400  0.45341  0.90325  1.0000
  H   H53       1.0  0.24845  0.38513  0.73297  1.0000
  C   C57       1.0  0.20621  0.41734  0.69951  1.0000
  C   C58       1.0  0.37531  0.40956  0.73751  1.0000
  H   H54       1.0  0.39473  0.42668  0.82371  1.0000
  C   C59       1.0  0.15556  0.44232  0.81229  1.0000
  H   H55       1.0  0.49265  0.32569  0.97298  1.0000
  P   P2        1.0  0.36310  0.44139  0.68534  1.0000
  C   C60       1.0  0.19056  0.44995  0.79831  1.0000
  H   H56       1.0  0.01839  0.41779  0.85388  1.0000
  C   C61       1.0  0.37006  0.43484  0.72979  1.0000
  H   H57       1.0  0.12299  0.41185  0.81338  1.0000
  C   C62       1.0  0.16251  0.47403  0.82472  1.0000
  C   C63       1.0  0.25498  0.46022  0.74637  1.0000
  H   H58       1.0  0.37392  0.39313  0.71716  1.0000
  H   H59       1.0  0.38872  0.38747  0.77697  1.0000
  C   C64       1.0  0.09314  0.48003  0.73952  1.0000
  C   C65       1.0  0.38681  0.42806  0.79767  1.0000
  C   C66       1.0  0.05510  0.46299  0.75759  1.0000
  H   H60       1.0  0.13546  0.46828  0.83542  1.0000
  C   C67       1.0  0.30867  0.39651  0.67171  1.0000
  C   C68       1.0  0.28148  0.36032  0.69153  1.0000
  H   H61       1.0  0.45107  0.47826  0.69993  1.0000
  C   C69       1.0  0.05743  0.47602  0.79067  1.0000
  C   C70       1.0  0.23935  0.32617  0.68068  1.0000
  C   C71       1.0  0.23276  0.48959  0.79623  1.0000
  H   H62       1.0  0.21665  0.46570  0.71862  1.0000
  H   H63       1.0  0.18444  0.41013  0.67957  1.0000
  H   H64       1.0  0.21856  0.29837  0.69605  1.0000
  H   H65       1.0  0.30326  0.45058  0.67904  1.0000
  H   H66       1.0  0.36936  0.47638  0.75154  1.0000
  C   C72       1.0  0.33612  0.47993  0.68145  1.0000
  H   H67       1.0  0.30089  0.47228  0.89127  1.0000
  H   H68       1.0  0.25842  0.47109  0.84886  1.0000
  C   C73       1.0  0.29054  0.48463  0.84131  1.0000
  C   C74       1.0  0.44355  0.46785  0.67360  1.0000
  C   C75       1.0  0.37162  0.48475  0.68250  1.0000
  C   C76       1.0  0.99373  0.43269  0.88932  1.0000
  C   C77       1.0  0.40879  0.67890  0.06436  1.0000
  C   C78       1.0  0.32332  0.61940  0.01692  1.0000
  S   S4        1.0  0.03947  0.56004  0.06449  1.0000
  C   C79       1.0  0.27664  0.77300  0.05718  1.0000
  S   S5        1.0  0.13230  0.51037  0.01069  1.0000
  C   C80       1.0  0.06638  0.59084  0.15125  1.0000
  C   C81       1.0  0.06643  0.54651  0.05258  1.0000
  C   C82       1.0  0.29361  0.77515  0.02523  1.0000
  H   H69       1.0  0.27564  0.97508  0.32210  1.0000
  C   C83       1.0  0.10728  0.57515  0.03534  1.0000
  C   C84       1.0  0.17369  0.59811  0.15203  1.0000
  H   H70       1.0  0.12242  0.60544  0.03053  1.0000
  C   C85       1.0  0.20618  0.61851  0.12584  1.0000
  P   P3        1.0  0.09517  0.52995  0.18479  1.0000
  C   C86       1.0  0.11181  0.53153  0.22800  1.0000
  C   C87       1.0  0.45140  0.73083  0.01916  1.0000
  C   C88       1.0  0.44737  0.69516  0.07938  1.0000
  C   C89       1.0  0.46170  0.90863  0.09598  1.0000
  C   C90       1.0  0.33855  0.80636  0.01800  1.0000
  H   H71       1.0  0.39079  0.79607  0.03587  1.0000
  H   H72       1.0  0.17451  0.61534  0.17093  1.0000
  H   H73       1.0  0.28193  0.71696  0.07690  1.0000
  H   H74       1.0  0.33123  0.71889  0.11052  1.0000
  C   C91       1.0  0.32501  0.71009  0.08370  1.0000
  C   C92       1.0  0.28922  0.69766  0.03022  1.0000
  C   C93       1.0  0.36693  0.83581  0.04268  1.0000
  H   H75       1.0  0.03720  0.60577  0.17984  1.0000
  P   P4        1.0  0.42444  0.87710  0.03166  1.0000
  C   C94       1.0  0.48987  0.74685  0.03399  1.0000
  H   H76       1.0  0.44585  0.68100  0.10244  1.0000
  C   C95       1.0  0.25037  0.55233  0.02824  1.0000
  H   H77       1.0  0.06747  0.60309  0.12690  1.0000
  C   C96       1.0  0.10866  0.52529  0.02889  1.0000
  H   H78       1.0  0.05842  0.54468  0.23832  1.0000
  C   C97       1.0  0.27883  0.59415  0.02516  1.0000
  H   H79       1.0  0.37311  0.62102  0.00570  1.0000
  C   C98       1.0  0.45318  0.91577  0.06390  1.0000
  H   H80       1.0  0.27190  0.75271  0.00590  1.0000
  H   H81       1.0  0.20242  0.57717  0.27453  1.0000
  C   C99       1.0  0.04763  0.50772  0.05931  1.0000
  C   C100      1.0  0.17119  0.55466  0.10164  1.0000
  C   C101      1.0  0.30469  0.80202  0.08200  1.0000
  H   H82       1.0  0.22924  0.61251  0.07967  1.0000
  P   P5        1.0  0.36065  0.67346  0.01292  1.0000
  C   C102      1.0  0.42599  0.81897  0.03287  1.0000
  H   H83       1.0  0.38521  0.90344  0.00776  1.0000
  H   H84       1.0  0.29146  0.80052  0.10666  1.0000
  H   H85       1.0  0.24431  0.50318  0.02619  1.0000
  C   C103      1.0  0.41053  0.69648  0.03389  1.0000
  H   H86       1.0  0.45052  0.88000  0.10158  1.0000
  H   H87       1.0  0.26568  0.60639  0.02846  1.0000
  H   H88       1.0  0.37763  0.65213  0.07608  1.0000
  C   C104      1.0  0.34454  0.69955  0.06807  1.0000
  H   H89       1.0  0.15869  0.58635  0.00859  1.0000
  H   H90       1.0  0.23190  0.65116  0.12473  1.0000
  H   H91       1.0  0.46480  0.96092  0.03217  1.0000
  C   C105      1.0  0.16827  0.55778  0.26901  1.0000
  C   C106      1.0  0.34972  0.83341  0.07480  1.0000
  C   C107      1.0  0.30908  0.68761  0.01445  1.0000
  C   C108      1.0  0.26638  0.53559  0.02412  1.0000
  H   H92       1.0  0.03374  0.57715  0.23534  1.0000
  H   H93       1.0  0.16960  0.53782  0.08158  1.0000
  H   H94       1.0  0.37071  0.85601  0.09407  1.0000
  H   H95       1.0  0.26741  0.69637  0.01541  1.0000
  H   H96       1.0  0.09181  0.56993  0.12862  1.0000
  C   C109      1.0  0.46919  0.95361  0.05697  1.0000
  C   C110      1.0  0.49263  0.83567  0.02791  1.0000
  C   C111      1.0  0.45035  0.86012  0.02967  1.0000
  H   H97       1.0  0.42849  0.77530  0.03449  1.0000
  C   C112      1.0  0.29730  0.70909  0.06479  1.0000
  C   C113      1.0  0.33705  0.68861  0.03318  1.0000
  C   C114      1.0  0.04958  0.59261  0.18108  1.0000
  C   C115      1.0  0.04749  0.57631  0.21234  1.0000
  C   C116      1.0  0.06145  0.55756  0.21377  1.0000
  C   C117      1.0  0.07815  0.55528  0.18382  1.0000
  C   C118      1.0  0.08026  0.57200  0.15245  1.0000
  C   C119      1.0  0.20478  0.59679  0.10052  1.0000
  C   C120      1.0  0.13953  0.55573  0.15313  1.0000
  C   C121      1.0  0.48544  0.93866  0.12079  1.0000
  C   C122      1.0  0.31080  0.56063  0.01672  1.0000
  H   H98       1.0  0.14613  0.53551  0.32180  1.0000
  C   C123      1.0  0.44721  0.80693  0.03216  1.0000
  H   H99       1.0  0.36554  0.70013  0.08320  1.0000
  H   H100      1.0  0.03168  0.49320  0.13085  1.0000
  H   H101      1.0  0.18112  0.57497  0.21515  1.0000
  H   H102      1.0  0.24172  0.74894  0.06259  1.0000
  C   C124      1.0  0.12788  0.56435  0.02287  1.0000
  C   C125      1.0  0.13867  0.53413  0.12778  1.0000
  C   C126      1.0  0.48791  0.72899  0.06407  1.0000
  H   H103      1.0  0.01630  0.63582  0.30086  1.0000
  C   C127      1.0  0.15601  0.55650  0.23530  1.0000
  H   H104      1.0  0.21575  0.53286  0.03330  1.0000
  H   H105      1.0  0.32333  0.54775  0.01327  1.0000
  C   C128      1.0  0.13657  0.53423  0.29564  1.0000
  C   C129      1.0  0.33904  0.60227  0.01256  1.0000
  H   H106      1.0  0.06784  0.49098  0.30921  1.0000
  C   C130      1.0  0.09250  0.50905  0.28855  1.0000
  C   C131      1.0  0.06966  0.49772  0.04879  1.0000
  H   H107      1.0  0.24578  0.98486  0.27506  1.0000
  H   H108      1.0  0.11244  0.50151  0.12741  1.0000
  C   C132      1.0  0.08012  0.50743  0.25486  1.0000
  H   H109      1.0  0.49238  0.93321  0.14531  1.0000
  C   C133      1.0  0.49267  0.98344  0.08194  1.0000
  S   S6        1.0  0.39873  0.77567  0.54755  1.0000
  H   H110      1.0  0.05119  0.51591  0.46616  1.0000
  Fe  Fe1       1.0  0.23975  0.58118  0.64552  1.0000
  S   S7        1.0  0.24473  0.56121  0.59526  1.0000
  Fe  Fe2       1.0  0.14801  0.50227  0.66205  1.0000
  H   H111      1.0  0.27616  0.74447  0.63370  1.0000
  C   C134      1.0  0.43727  0.81167  0.45927  1.0000
  H   H112      1.0  0.47840  0.60210  0.48008  1.0000
  Fe  Fe3       1.0  0.17686  0.53266  0.58679  1.0000
  H   H113      1.0  0.44700  0.77524  0.44343  1.0000
  S   S8        1.0  0.17524  0.55846  0.63436  1.0000
  C   C135      1.0  0.46055  0.80526  0.44326  1.0000
  C   C136      1.0  0.41664  0.66305  0.49337  1.0000
  C   C137      1.0  0.06622  0.52276  0.49091  1.0000
  H   H114      1.0  0.47832  0.71046  0.41871  1.0000
  C   C138      1.0  0.11601  0.52968  0.52772  1.0000
  C   C139      1.0  0.10705  0.54260  0.55454  1.0000
  C   C140      1.0  0.07836  0.54620  0.54936  1.0000
  C   C141      1.0  0.05796  0.53642  0.51758  1.0000
  C   C142      1.0  0.35250  0.82801  0.66376  1.0000
  H   H115      1.0  0.12286  0.55060  0.57904  1.0000
  H   H116      1.0  0.07185  0.55657  0.57007  1.0000
  H   H117      1.0  0.40584  0.78673  0.47189  1.0000
  C   C143      1.0  0.31026  0.51483  0.60703  1.0000
  C   C144      1.0  0.34603  0.52077  0.59841  1.0000
  H   H118      1.0  0.21878  0.50634  0.53454  1.0000
  C   C145      1.0  0.09544  0.51965  0.49591  1.0000
  C   C146      1.0  0.15137  0.63095  0.61914  1.0000
  H   H119      1.0  0.31569  0.53829  0.61965  1.0000
  H   H120      1.0  0.37887  0.54846  0.60467  1.0000
  H   H121      1.0  0.10253  0.50993  0.47500  1.0000
  H   H122      1.0  0.42968  0.61647  0.56604  1.0000
  C   C147      1.0  0.37058  0.73828  0.58063  1.0000
  C   C148      1.0  0.39013  0.74593  0.61235  1.0000
  C   C149      1.0  0.36708  0.71629  0.63887  1.0000
  C   C150      1.0  0.32445  0.67880  0.63371  1.0000
  C   C151      1.0  0.30510  0.67075  0.60182  1.0000
  C   C152      1.0  0.32813  0.70064  0.57543  1.0000
  H   H123      1.0  0.42283  0.77493  0.61686  1.0000
  Fe  Fe4       1.0  0.47002  0.82216  0.55921  1.0000
  H   H124      1.0  0.27228  0.64166  0.59758  1.0000
  H   H125      1.0  0.31330  0.69459  0.55090  1.0000
  C   C153      1.0  0.27096  0.56594  0.46165  1.0000
  H   H126      1.0  0.40187  0.64297  0.65945  1.0000
  C   C154      1.0  0.26434  0.72762  0.65806  1.0000
  C   C155      1.0  0.28865  0.55344  0.52598  1.0000
  C   C156      1.0  0.32345  0.58423  0.50337  1.0000
  C   C157      1.0  0.31425  0.58956  0.47072  1.0000
  C   C158      1.0  0.38462  0.62140  0.56109  1.0000
  C   C159      1.0  0.41740  0.62831  0.61478  1.0000
  C   C160      1.0  0.39637  0.63631  0.63221  1.0000
  C   C161      1.0  0.36915  0.63656  0.61430  1.0000
  C   C162      1.0  0.36301  0.62891  0.57887  1.0000
  H   H127      1.0  0.26399  0.57073  0.43675  1.0000
  H   H128      1.0  0.10305  0.62635  0.59726  1.0000
  C   C163      1.0  0.36693  0.82309  0.63431  1.0000
  H   H129      1.0  0.34041  0.61216  0.45240  1.0000
  H   H130      1.0  0.43811  0.85576  0.47410  1.0000
  H   H131      1.0  0.35310  0.64304  0.62779  1.0000
  H   H132      1.0  0.34226  0.62980  0.56529  1.0000
  H   H133      1.0  0.42105  0.64233  0.44570  1.0000
  Fe  Fe5       1.0  0.45233  0.54837  0.58290  1.0000
  C   C164      1.0  0.46474  0.70659  0.44407  1.0000
  C   C165      1.0  0.39302  0.81649  0.63770  1.0000
  H   H134      1.0  0.32627  0.52710  0.51376  1.0000
  C   C166      1.0  0.24544  0.52967  0.51671  1.0000
  C   C167      1.0  0.17657  0.68846  0.42375  1.0000
  C   C168      1.0  0.13454  0.64912  0.42361  1.0000
  C   C169      1.0  0.12057  0.62179  0.45040  1.0000
  C   C170      1.0  0.14830  0.63389  0.47758  1.0000
  C   C171      1.0  0.18969  0.67381  0.47880  1.0000
  C   C172      1.0  0.20429  0.70069  0.45106  1.0000
  P   P6        1.0  0.22531  0.68873  0.51377  1.0000
  C   C173      1.0  0.26460  0.74226  0.52102  1.0000
  C   C174      1.0  0.19568  0.66541  0.55469  1.0000
  C   C175      1.0  0.21355  0.66124  0.58153  1.0000
  H   H135      1.0  0.34462  0.49022  0.50025  1.0000
  C   C176      1.0  0.13408  0.63632  0.59299  1.0000
  C   C177      1.0  0.15616  0.65360  0.56089  1.0000
  C   C178      1.0  0.30661  0.76334  0.53219  1.0000
  C   C179      1.0  0.33752  0.80495  0.53687  1.0000
  C   C180      1.0  0.32621  0.82565  0.53177  1.0000
  C   C181      1.0  0.28380  0.80458  0.52221  1.0000
  C   C182      1.0  0.25298  0.76296  0.51704  1.0000
  C   C183      1.0  0.25236  0.67436  0.50144  1.0000
  C   C184      1.0  0.29064  0.70052  0.48050  1.0000
  C   C185      1.0  0.31360  0.69094  0.47321  1.0000
  C   C186      1.0  0.29797  0.65484  0.48607  1.0000
  C   C187      1.0  0.25864  0.62765  0.50529  1.0000
  C   C188      1.0  0.23559  0.63713  0.51265  1.0000
  H   H136      1.0  0.18763  0.70943  0.40266  1.0000
  H   H137      1.0  0.11279  0.63960  0.40270  1.0000
  H   H138      1.0  0.08809  0.59116  0.45024  1.0000
  H   H139      1.0  0.13734  0.61215  0.49777  1.0000
  H   H140      1.0  0.23700  0.73101  0.45043  1.0000
  H   H141      1.0  0.24470  0.67151  0.57777  1.0000
  C   C189      1.0  0.45545  0.85062  0.46049  1.0000
  H   H142      1.0  0.14207  0.65735  0.54099  1.0000
  H   H143      1.0  0.31575  0.74778  0.53714  1.0000
  H   H144      1.0  0.37030  0.82101  0.54445  1.0000
  H   H145      1.0  0.35026  0.85796  0.53538  1.0000
  H   H146      1.0  0.27487  0.82055  0.51868  1.0000
  H   H147      1.0  0.22017  0.74698  0.50988  1.0000
  H   H148      1.0  0.30350  0.72885  0.47068  1.0000
  H   H149      1.0  0.34404  0.71190  0.45827  1.0000
  H   H150      1.0  0.31661  0.64821  0.48145  1.0000
  H   H151      1.0  0.24633  0.59950  0.51512  1.0000
  H   H152      1.0  0.20525  0.61572  0.52772  1.0000
  H   H153      1.0  0.20513  0.64004  0.63376  1.0000
  H   H154      1.0  0.20921  0.71907  0.66270  1.0000
  C   C190      1.0  0.36952  0.52285  0.49756  1.0000
  C   C191      1.0  0.23660  0.53630  0.48480  1.0000
  C   C192      1.0  0.43220  0.69712  0.51066  1.0000
  H   H155      1.0  0.13396  0.61706  0.64382  1.0000
  C   C193      1.0  0.43510  0.60721  0.49478  1.0000
  H   H156      1.0  0.40441  0.81307  0.61472  1.0000
  S   S9        1.0  0.15437  0.52778  0.53266  1.0000
  C   C194      1.0  0.39195  0.58644  0.50357  1.0000
  H   H157      1.0  0.29478  0.54761  0.55080  1.0000
  C   C195      1.0  0.44497  0.58586  0.48654  1.0000
  H   H158      1.0  0.42031  0.52722  0.48306  1.0000
  Fe  Fe6       1.0  0.21196  0.50469  0.62542  1.0000
  H   H159      1.0  0.35801  0.82447  0.60885  1.0000
  C   C196      1.0  0.19124  0.64362  0.61344  1.0000
  C   C197      1.0  0.43246  0.66804  0.45958  1.0000
  P   P7        1.0  0.37910  0.61386  0.51501  1.0000
  C   C198      1.0  0.41222  0.62161  0.57923  1.0000
  S   S10       1.0  0.02556  0.54511  0.51135  1.0000
  H   H160      1.0  0.42106  0.69472  0.53669  1.0000
  C   C199      1.0  0.41226  0.54371  0.48805  1.0000
  H   H161      1.0  0.43816  0.62772  0.62873  1.0000
  C   C200      1.0  0.35933  0.54404  0.50535  1.0000
  H   H162      1.0  0.31503  0.72987  0.65964  1.0000
  H   H163      1.0  0.46150  0.63988  0.49511  1.0000
  C   C201      1.0  0.48087  0.74033  0.46190  1.0000
  C   C202      1.0  0.46407  0.73549  0.49490  1.0000
  H   H164      1.0  0.33226  0.83315  0.66113  1.0000
  H   H165      1.0  0.20309  0.51854  0.47820  1.0000
  H   H166      1.0  0.47721  0.76182  0.50893  1.0000
  H   H167      1.0  0.38265  0.72239  0.66315  1.0000
  S   S11       1.0  0.29576  0.64207  0.66709  1.0000
  S   S12       1.0  0.38063  0.49258  0.57557  1.0000
  S   S13       1.0  0.48402  0.60991  0.59710  1.0000
  H   H168      1.0  0.49073  0.95621  0.47190  1.0000
  S   S14       1.0  0.49156  0.54807  0.61930  1.0000
  C   C203      1.0  0.33881  0.48970  0.58344  1.0000
  H   H169      1.0  0.35387  0.63696  0.94763  1.0000
  Fe  Fe7       1.0  0.16805  0.54392  0.95987  1.0000
  S   S15       1.0  0.14868  0.57095  0.93359  1.0000
  H   H170      1.0  0.16301  0.52195  0.74169  1.0000
  Fe  Fe8       1.0  0.23644  0.57618  0.90371  1.0000
  S   S16       1.0  0.22274  0.60686  0.87391  1.0000
  H   H171      1.0  0.39901  0.69949  0.77613  1.0000
  Fe  Fe9       1.0  0.22026  0.62578  0.92575  1.0000
  S   S17       1.0  0.24330  0.68439  0.93922  1.0000
  Fe  Fe10      1.0  0.15269  0.54938  0.88426  1.0000
  H   H172      1.0  0.04628  0.53200  0.76767  1.0000
  S   S18       1.0  0.24012  0.60038  0.95501  1.0000
  C   C204      1.0  0.31118  0.57020  0.89744  1.0000
  C   C205      1.0  0.46218  0.66631  0.83141  1.0000
  C   C206      1.0  0.28939  0.54216  0.92514  1.0000
  C   C207      1.0  0.30781  0.53014  0.94011  1.0000
  Fe  Fe11      1.0  0.48211  0.86313  0.88450  1.0000
  H   H173      1.0  0.19692  0.70692  0.87880  1.0000
  H   H174      1.0  0.45144  0.81588  0.79549  1.0000
  S   S19       1.0  0.46907  0.59616  0.87862  1.0000
  H   H175      1.0  0.39628  0.74758  0.97859  1.0000
  H   H176      1.0  0.40746  0.53543  0.81720  1.0000
  C   C208      1.0  0.07226  0.56654  0.90299  1.0000
  C   C209      1.0  0.29310  0.72801  0.91975  1.0000
  C   C210      1.0  0.31731  0.72623  0.89783  1.0000
  C   C211      1.0  0.35705  0.76196  0.88261  1.0000
  C   C212      1.0  0.37280  0.79930  0.88988  1.0000
  C   C213      1.0  0.34815  0.80081  0.91137  1.0000
  C   C214      1.0  0.30843  0.76527  0.92625  1.0000
  H   H177      1.0  0.30546  0.69746  0.89253  1.0000
  H   H178      1.0  0.37526  0.76065  0.86488  1.0000
  H   H179      1.0  0.35964  0.82950  0.91627  1.0000
  C   C215      1.0  0.44928  0.90016  0.96168  1.0000
  C   C216      1.0  0.37459  0.52087  0.82374  1.0000
  H   H180      1.0  0.40193  0.58909  0.89182  1.0000
  S   S20       1.0  0.42035  0.84380  0.86913  1.0000
  C   C217      1.0  0.39106  0.72845  0.95908  1.0000
  C   C218      1.0  0.03596  0.52465  0.90415  1.0000
  H   H181      1.0  0.47136  0.70770  0.95175  1.0000
  H   H182      1.0  0.25818  0.52935  0.93465  1.0000
  H   H183      1.0  0.42633  0.81090  0.67259  1.0000
  C   C219      1.0  0.34270  0.51332  0.68333  1.0000
  H   H184      1.0  0.16708  0.54468  0.80120  1.0000
  H   H185      1.0  0.02652  0.50834  0.88048  1.0000
  C   C220      1.0  0.40212  0.72355  0.76905  1.0000
  C   C221      1.0  0.08462  0.58875  0.93282  1.0000
  S   S21       1.0  0.37165  0.53239  0.94828  1.0000
  H   H186      1.0  0.35122  0.80780  0.99297  1.0000
  C   C222      1.0  0.39785  0.71932  0.89902  1.0000
  H   H187      1.0  0.45386  0.74493  0.99575  1.0000
  C   C223      1.0  0.30471  0.55561  0.72280  1.0000
  C   C224      1.0  0.15407  0.60176  0.74279  1.0000
  C   C225      1.0  0.36552  0.62821  0.72693  1.0000
  P   P8        1.0  0.20775  0.64724  0.75697  1.0000
  C   C226      1.0  0.20237  0.66585  0.79475  1.0000
  C   C227      1.0  0.24039  0.63853  0.76842  1.0000
  C   C228      1.0  0.27075  0.66053  0.79500  1.0000
  C   C229      1.0  0.29579  0.65374  0.80420  1.0000
  C   C230      1.0  0.29134  0.62549  0.78661  1.0000
  C   C231      1.0  0.26228  0.60438  0.75947  1.0000
  C   C232      1.0  0.23705  0.61098  0.75028  1.0000
  C   C233      1.0  0.18879  0.64472  0.82656  1.0000
  C   C234      1.0  0.18693  0.65955  0.85668  1.0000
  H   H188      1.0  0.40245  0.64928  0.77351  1.0000
  C   C235      1.0  0.47651  0.72518  0.84073  1.0000
  C   C236      1.0  0.21313  0.70170  0.79343  1.0000
  C   C237      1.0  0.23233  0.68171  0.72005  1.0000
  C   C238      1.0  0.27036  0.69646  0.70353  1.0000
  C   C239      1.0  0.22658  0.71321  0.67438  1.0000
  C   C240      1.0  0.40514  0.81512  0.67054  1.0000
  C   C241      1.0  0.38488  0.55202  0.68575  1.0000
  C   C242      1.0  0.21036  0.68999  0.70507  1.0000
  H   H189      1.0  0.42600  0.93404  0.90051  1.0000
  C   C243      1.0  0.37970  0.68114  0.90748  1.0000
  C   C244      1.0  0.33019  0.59443  0.70882  1.0000
  H   H190      1.0  0.31503  0.50912  0.68206  1.0000
  H   H191      1.0  0.38530  0.65826  0.71591  1.0000
  H   H192      1.0  0.27483  0.68255  0.80913  1.0000
  H   H193      1.0  0.31818  0.66992  0.82540  1.0000
  H   H194      1.0  0.31045  0.62002  0.79414  1.0000
  H   H195      1.0  0.21519  0.59458  0.72896  1.0000
  H   H196      1.0  0.17983  0.61673  0.82802  1.0000
  H   H197      1.0  0.17774  0.64365  0.88130  1.0000
  C   C245      1.0  0.49046  0.68545  0.80235  1.0000
  H   H198      1.0  0.09100  0.58159  0.87896  1.0000
  H   H199      1.0  0.22476  0.71927  0.76961  1.0000
  H   H200      1.0  0.28699  0.68918  0.71361  1.0000
  C   C246      1.0  0.36458  0.82679  0.69661  1.0000
  C   C247      1.0  0.10805  0.55395  0.69723  1.0000
  C   C248      1.0  0.21021  0.71598  0.82353  1.0000
  H   H201      1.0  0.46417  0.87523  0.80174  1.0000
  C   C249      1.0  0.35760  0.84537  0.81070  1.0000
  C   C250      1.0  0.32491  0.80797  0.82782  1.0000
  C   C251      1.0  0.31799  0.77541  0.81868  1.0000
  C   C252      1.0  0.34378  0.78015  0.79255  1.0000
  C   C253      1.0  0.37754  0.81793  0.77590  1.0000
  C   C254      1.0  0.38383  0.85037  0.78479  1.0000
  P   P9        1.0  0.41140  0.82429  0.74246  1.0000
  H   H202      1.0  0.47251  0.74115  0.85650  1.0000
  C   C255      1.0  0.41032  0.78612  0.75088  1.0000
  C   C256      1.0  0.43183  0.78943  0.77968  1.0000
  H   H203      1.0  0.25920  0.58281  0.74550  1.0000
  H   H204      1.0  0.27179  0.55152  0.80932  1.0000
  C   C257      1.0  0.37997  0.71966  0.74068  1.0000
  C   C258      1.0  0.38401  0.75081  0.73164  1.0000
  H   H205      1.0  0.35347  0.83129  0.71889  1.0000
  C   C259      1.0  0.13364  0.50918  0.75540  1.0000
  H   H206      1.0  0.18011  0.67765  0.71675  1.0000
  C   C260      1.0  0.09760  0.50515  0.80668  1.0000
  C   C261      1.0  0.39139  0.82073  0.70031  1.0000
  C   C262      1.0  0.46721  0.87335  0.74580  1.0000
  S   S22       1.0  0.28986  0.58627  0.87740  1.0000
  C   C263      1.0  0.41387  0.52377  0.68451  1.0000
  C   C264      1.0  0.31354  0.55015  0.75559  1.0000
  S   S23       1.0  0.45480  0.52686  0.92176  1.0000
  H   H207      1.0  0.36364  0.87083  0.81836  1.0000
  H   H208      1.0  0.30594  0.80453  0.84899  1.0000
  H   H209      1.0  0.29390  0.74692  0.83295  1.0000
  H   H210      1.0  0.33809  0.75461  0.78622  1.0000
  H   H211      1.0  0.40955  0.87970  0.77216  1.0000
  H   H212      1.0  0.44661  0.63650  0.83965  1.0000
  C   C265      1.0  0.07086  0.53425  0.71800  1.0000
  H   H213      1.0  0.32210  0.59828  0.68401  1.0000
  H   H214      1.0  0.35922  0.69234  0.72583  1.0000
  H   H215      1.0  0.36606  0.74690  0.70998  1.0000
  C   C266      1.0  0.44890  0.91356  0.92947  1.0000
  S   S24       1.0  0.21237  0.52674  0.67672  1.0000
  H   H216      1.0  0.28938  0.76666  0.94259  1.0000
  C   C267      1.0  0.42666  0.89664  0.99029  1.0000
  Fe  Fe12      1.0  0.43888  0.56225  0.92953  1.0000
  C   C268      1.0  0.42794  0.75837  0.78859  1.0000
  H   H217      1.0  0.36749  0.60696  0.86301  1.0000
  C   C269      1.0  0.13586  0.52168  0.78915  1.0000
  C   C270      1.0  0.37336  0.69027  0.96798  1.0000
  C   C271      1.0  0.42599  0.92355  0.92553  1.0000
  H   H218      1.0  0.44515  0.76153  0.81060  1.0000
  H   H219      1.0  0.37520  0.66284  0.88739  1.0000
  H   H220      1.0  0.40772  0.73075  0.87253  1.0000
  H   H221      1.0  0.44163  0.52824  0.68519  1.0000
  C   C272      1.0  0.35045  0.51959  0.79928  1.0000
  H   H222      1.0  0.36471  0.53267  0.77361  1.0000
  H   H223      1.0  0.03896  0.50742  0.70884  1.0000
  H   H224      1.0  0.39005  0.57795  0.68692  1.0000
  C   C273      1.0  0.01235  0.50449  0.93543  1.0000
  H   H225      1.0  0.41878  0.77304  0.91852  1.0000
  H   H226      1.0  0.27786  0.53028  0.70805  1.0000
  C   C274      1.0  0.40323  0.90629  0.98606  1.0000
  C   C275      1.0  0.36755  0.66656  0.94183  1.0000
  C   C276      1.0  0.40369  0.74301  0.92487  1.0000
  C   C277      1.0  0.34895  0.54754  0.92864  1.0000
  C   C278      1.0  0.23950  0.52100  0.80947  1.0000
  H   H227      1.0  0.21893  0.74384  0.82251  1.0000
  C   C279      1.0  0.40319  0.91998  0.95385  1.0000
  C   C280      1.0  0.37507  0.62318  0.75933  1.0000
  C   C281      1.0  0.35121  0.58613  0.88498  1.0000
  H   H228      1.0  0.46742  0.89281  0.96403  1.0000
  H   H229      1.0  0.38557  0.92790  0.95088  1.0000
  C   C282      1.0  0.37058  0.57571  0.90107  1.0000
  H   H230      1.0  0.11832  0.59087  0.78951  1.0000
  C   C283      1.0  0.02487  0.52700  0.96526  1.0000
  C   C284      1.0  0.07503  0.54806  0.75112  1.0000
  C   C285      1.0  0.19771  0.69521  0.85522  1.0000
  H   H231      1.0  0.35562  0.58156  0.79980  1.0000
  C   C286      1.0  0.14946  0.58761  0.70948  1.0000
  C   C287      1.0  0.34878  0.58445  0.77389  1.0000
  C   C288      1.0  0.45618  0.68661  0.85111  1.0000
  H   H232      1.0  0.11302  0.62118  0.93206  1.0000
  H   H233      1.0  0.43695  0.67301  0.87507  1.0000
  H   H234      1.0  0.48362  0.88134  0.69080  1.0000
  C   C289      1.0  0.06058  0.56900  0.96379  1.0000
  H   H235      1.0  0.46656  0.91628  0.90751  1.0000
  C   C290      1.0  0.11638  0.58150  0.76358  1.0000
  C   C291      1.0  0.42047  0.55724  0.68610  1.0000
  S   S25       1.0  0.16580  0.51689  0.91092  1.0000
  S   S26       1.0  0.48336  0.53760  0.82260  1.0000
  H   H236      1.0  0.06953  0.58621  0.98679  1.0000
  H   H237      1.0  0.10465  0.54230  0.67200  1.0000
  H   H238      1.0  0.30249  0.67905  0.98754  1.0000
  C   C292      1.0  0.48392  0.89101  0.77826  1.0000
  C   C293      1.0  0.28623  0.71933  0.67267  1.0000
  H   H239      1.0  0.45325  0.58726  0.68769  1.0000
  H   H240      1.0  0.37523  0.50465  0.87590  1.0000
  C   C294      1.0  0.20453  0.51327  0.82351  1.0000
  Fe  Fe13      1.0  0.49019  0.56537  0.87304  1.0000
  H   H241      1.0  0.21023  0.53785  0.83373  1.0000
  H   H242      1.0  0.00660  0.51230  0.98956  1.0000
  H   H243      1.0  0.29026  0.50745  0.96074  1.0000
  S   S27       1.0  0.09799  0.52119  0.84770  1.0000
  P   P10       1.0  0.27771  0.50035  0.77603  1.0000
  H   H244      1.0  0.17793  0.60255  0.69296  1.0000
  H   H245      1.0  0.49018  0.52325  0.75229  1.0000
  C   C295      1.0  0.35646  0.50342  0.85674  1.0000
  C   C296      1.0  0.30854  0.50208  0.80812  1.0000
  C   C297      1.0  0.95670  0.37926  0.02156  1.0000
  C   C298      1.0  0.63475  0.34914  0.20352  1.0000
  Fe  Fe14      1.0  0.90176  0.43102  0.12536  1.0000
  S   S28       1.0  0.87668  0.37078  0.13641  1.0000
  Fe  Fe15      1.0  0.56905  0.38910  0.12962  1.0000
  S   S29       1.0  0.52975  0.35917  0.08155  1.0000
  S   S30       1.0  0.53790  0.36526  0.18319  1.0000
  Fe  Fe16      1.0  0.65415  0.45007  0.08933  1.0000
  S   S31       1.0  0.62234  0.42579  0.03787  1.0000
  Fe  Fe17      1.0  0.57186  0.42237  0.05974  1.0000
  Fe  Fe18      1.0  0.58270  0.36485  0.06313  1.0000
  S   S32       1.0  0.56971  0.31718  0.03156  1.0000
  S   S33       1.0  0.61842  0.38957  0.11300  1.0000
  Fe  Fe19      1.0  0.60833  0.12673  0.12343  1.0000
  S   S34       1.0  0.54504  0.09978  0.10188  1.0000
  S   S35       1.0  0.61121  0.10269  0.17260  1.0000
  Fe  Fe20      1.0  0.66236  0.18749  0.06338  1.0000
  H   H246      1.0  0.61271  0.23633  0.30524  1.0000
  Fe  Fe21      1.0  0.58145  0.16441  0.09061  1.0000
  H   H247      1.0  0.69579  0.38782  0.12823  1.0000
  Fe  Fe22      1.0  0.57317  0.10341  0.05067  1.0000
  S   S36       1.0  0.64295  0.19093  0.11586  1.0000
  S   S37       1.0  0.63386  0.12581  0.07315  1.0000
  C   C299      1.0  0.56833  0.28313  0.05279  1.0000
  H   H248      1.0  0.59035  0.04957  0.04484  1.0000
  C   C300      1.0  0.49628  0.20951  0.32699  1.0000
  C   C301      1.0  0.56305  0.22667  0.08647  1.0000
  C   C302      1.0  0.57274  0.25741  0.10494  1.0000
  C   C303      1.0  0.57596  0.28584  0.08817  1.0000
  H   H249      1.0  0.80795  0.32105  0.02376  1.0000
  H   H250      1.0  0.57747  0.25899  0.13243  1.0000
  H   H251      1.0  0.58350  0.30938  0.10276  1.0000
  C   C304      1.0  0.83556  0.33394  0.10820  1.0000
  C   C305      1.0  0.79976  0.29458  0.12081  1.0000
  C   C306      1.0  0.76571  0.26521  0.09881  1.0000
  C   C307      1.0  0.76857  0.27464  0.06376  1.0000
  C   C308      1.0  0.80526  0.31364  0.05086  1.0000
  C   C309      1.0  0.83829  0.34348  0.07319  1.0000
  H   H252      1.0  0.79813  0.28705  0.14775  1.0000
  H   H253      1.0  0.73752  0.23513  0.10882  1.0000
  H   H254      1.0  0.86625  0.37361  0.06317  1.0000
  S   S38       1.0  0.96503  0.48827  0.14610  1.0000
  H   H255      1.0  0.64169  0.22412  0.25949  1.0000
  H   H256      1.0  0.84659  0.47106  0.23365  1.0000
  C   C310      1.0  0.61681  0.43003  0.21230  1.0000
  C   C311      1.0  0.57241  0.39471  0.21795  1.0000
  C   C312      1.0  0.55503  0.38245  0.25192  1.0000
  C   C313      1.0  0.58189  0.40503  0.28019  1.0000
  C   C314      1.0  0.70994  0.13039  0.11060  1.0000
  C   C315      1.0  0.98952  0.42934  0.13492  1.0000
  H   H257      1.0  0.52065  0.35535  0.25637  1.0000
  H   H258      1.0  0.56814  0.39523  0.30625  1.0000
  C   C316      1.0  0.58196  0.13393  0.27076  1.0000
  C   C317      1.0  0.59605  0.11535  0.27339  1.0000
  C   C318      1.0  0.60389  0.10475  0.24316  1.0000
  C   C319      1.0  0.59782  0.11286  0.21033  1.0000
  H   H259      1.0  0.60126  0.10949  0.29858  1.0000
  H   H260      1.0  0.61544  0.09095  0.24516  1.0000
  C   C320      1.0  0.58320  0.13094  0.20786  1.0000
  C   C321      1.0  0.57978  0.03372  0.02086  1.0000
  S   S39       1.0  0.60333  0.16548  0.03743  1.0000
  C   C322      1.0  0.74646  0.37953  0.21444  1.0000
  C   C323      1.0  0.78146  0.42145  0.21574  1.0000
  C   C324      1.0  0.81994  0.43869  0.23158  1.0000
  C   C325      1.0  0.82415  0.41422  0.24495  1.0000
  C   C326      1.0  0.78979  0.37219  0.24243  1.0000
  C   C327      1.0  0.75029  0.35495  0.22827  1.0000
  P   P11       1.0  0.79417  0.34055  0.26157  1.0000
  C   C328      1.0  0.84762  0.36065  0.25476  1.0000
  C   C329      1.0  0.78137  0.33702  0.30687  1.0000
  H   H261      1.0  0.67793  0.48009  0.23620  1.0000
  H   H262      1.0  0.53581  0.17019  0.18220  1.0000
  C   C330      1.0  0.75716  0.29224  0.24123  1.0000
  C   C331      1.0  0.75227  0.29044  0.20521  1.0000
  C   C332      1.0  0.72311  0.25321  0.18913  1.0000
  C   C333      1.0  0.70007  0.21768  0.20858  1.0000
  C   C334      1.0  0.70568  0.21926  0.24431  1.0000
  C   C335      1.0  0.73430  0.25645  0.26065  1.0000
  H   H263      1.0  0.71631  0.36606  0.20289  1.0000
  H   H264      1.0  0.77855  0.44052  0.20497  1.0000
  C   C336      1.0  0.79908  0.46721  0.07511  1.0000
  H   H265      1.0  0.85408  0.42807  0.25742  1.0000
  H   H266      1.0  0.72240  0.32258  0.22789  1.0000
  C   C337      1.0  0.55882  0.25244  0.03409  1.0000
  S   S40       1.0  0.82669  0.45525  0.06031  1.0000
  H   H267      1.0  0.84217  0.32942  0.29963  1.0000
  H   H268      1.0  0.86228  0.39295  0.20678  1.0000
  H   H269      1.0  0.77114  0.31782  0.18946  1.0000
  H   H270      1.0  0.71892  0.25195  0.16145  1.0000
  H   H271      1.0  0.67839  0.18902  0.19578  1.0000
  C   C338      1.0  0.63194  0.23895  0.25289  1.0000
  H   H272      1.0  0.57857  0.13747  0.18270  1.0000
  C   C339      1.0  0.87357  0.38518  0.22554  1.0000
  C   C340      1.0  0.70612  0.42341  0.16998  1.0000
  H   H273      1.0  0.64426  0.38633  0.24388  1.0000
  C   C341      1.0  0.57520  0.14126  0.23799  1.0000
  C   C342      1.0  0.60245  0.26456  0.27035  1.0000
  S   S41       1.0  0.86288  0.44209  0.14467  1.0000
  S   S42       1.0  0.60707  0.45164  0.10951  1.0000
  H   H274      1.0  0.62119  0.27450  0.18298  1.0000
  C   C343      1.0  0.64924  0.35046  0.17028  1.0000
  C   C344      1.0  0.73614  0.16824  0.09431  1.0000
  H   H275      1.0  0.91463  0.35575  0.28994  1.0000
  C   C345      1.0  0.86235  0.34948  0.27757  1.0000
  H   H276      1.0  0.55786  0.32015  0.17253  1.0000
  H   H277      1.0  0.56472  0.15587  0.23592  1.0000
  S   S43       1.0  0.72711  0.23778  0.03567  1.0000
  H   H278      1.0  0.72737  0.31586  0.13615  1.0000
  C   C346      1.0  0.92922  0.38900  0.24314  1.0000
  C   C347      1.0  0.61584  0.24613  0.27875  1.0000
  H   H279      1.0  0.78404  0.37264  0.03597  1.0000
  C   C348      1.0  0.69313  0.09728  0.09127  1.0000
  C   C349      1.0  0.68512  0.38732  0.15390  1.0000
  C   C350      1.0  0.54229  0.47178  0.01607  1.0000
  S   S44       1.0  0.53696  0.43164  0.02575  1.0000
  H   H280      1.0  0.70700  0.45066  0.21468  1.0000
  C   C351      1.0  0.69147  0.42263  0.20264  1.0000
  H   H281      1.0  0.96080  0.40021  0.23871  1.0000
  C   C352      1.0  0.65580  0.38573  0.21932  1.0000
  C   C353      1.0  0.91427  0.39933  0.21984  1.0000
  H   H282      1.0  0.93398  0.41806  0.19709  1.0000
  C   C354      1.0  0.90325  0.36405  0.27199  1.0000
  H   H283      1.0  0.68886  0.07581  0.04140  1.0000
  C   C355      1.0  0.72344  0.31955  0.10941  1.0000
  H   H284      1.0  0.65325  0.27616  0.11392  1.0000
  C   C356      1.0  0.68181  0.29733  0.09691  1.0000
  C   C357      1.0  0.50497  0.26499  0.14719  1.0000
  Fe  Fe23      1.0  0.87995  0.47260  0.09285  1.0000
  H   H285      1.0  0.79251  0.36456  0.09707  1.0000
  C   C358      1.0  0.76012  0.34679  0.08733  1.0000
  C   C359      1.0  0.55622  0.22426  0.05087  1.0000
  H   H286      1.0  0.53595  0.46321  0.09653  1.0000
  H   H287      1.0  0.63242  0.32320  0.15643  1.0000
  C   C360      1.0  0.73177  0.44987  0.07737  1.0000
  C   C361      1.0  0.67691  0.30219  0.06230  1.0000
  C   C362      1.0  0.51952  0.22890  0.19151  1.0000
  S   S45       1.0  0.55712  0.19069  0.10959  1.0000
  H   H288      1.0  0.52356  0.43929  0.20673  1.0000
  H   H289      1.0  0.95765  0.48534  0.22014  1.0000
  H   H290      1.0  0.64437  0.24197  0.19821  1.0000
  C   C363      1.0  0.53641  0.31436  0.32036  1.0000
  H   H291      1.0  0.88744  0.34121  0.02448  1.0000
  C   C364      1.0  0.98032  0.39800  0.15235  1.0000
  H   H292      1.0  0.74866  0.19373  0.10926  1.0000
  H   H293      1.0  0.51993  0.99972  0.13270  1.0000
  H   H294      1.0  0.69718  0.42833  0.07288  1.0000
  H   H295      1.0  0.73613  0.40948  0.06166  1.0000
  H   H296      1.0  0.50875  0.15987  0.24213  1.0000
  C   C365      1.0  0.62059  0.26791  0.20994  1.0000
  C   C366      1.0  0.56817  0.30633  0.26187  1.0000
  C   C367      1.0  0.53825  0.28825  0.17118  1.0000
  C   C368      1.0  0.49331  0.15730  0.31755  1.0000
  H   H297      1.0  0.67206  0.06775  0.10377  1.0000
  C   C369      1.0  0.60567  0.27660  0.23590  1.0000
  P   P12       1.0  0.58862  0.30075  0.22445  1.0000
  H   H298      1.0  0.96984  0.46442  0.27276  1.0000
  H   H299      1.0  0.55280  0.25010  0.00668  1.0000
  H   H300      1.0  0.64476  0.28554  0.05311  1.0000
  H   H301      1.0  0.52444  0.21445  0.20870  1.0000
  H   H302      1.0  0.58884  0.26841  0.29084  1.0000
  C   C370      1.0  0.57868  0.33131  0.31975  1.0000
  C   C371      1.0  0.63360  0.24918  0.21843  1.0000
  C   C372      1.0  0.74491  0.17294  0.05859  1.0000
  C   C373      1.0  0.54626  0.27051  0.19306  1.0000
  C   C374      1.0  0.91847  0.36786  0.01242  1.0000
  C   C375      1.0  0.50477  0.14070  0.19087  1.0000
  H   H303      1.0  0.71125  0.29037  0.30063  1.0000
  C   C376      1.0  0.59186  0.01407  0.01210  1.0000
  C   C377      1.0  0.95197  0.48551  0.30827  1.0000
  H   H304      1.0  0.95543  0.36172  0.04085  1.0000
  H   H305      1.0  0.73871  0.25709  0.28828  1.0000
  C   C378      1.0  0.80385  0.48270  0.30060  1.0000
  C   C379      1.0  0.59447  0.32723  0.29075  1.0000
  C   C380      1.0  0.70270  0.10203  0.05569  1.0000
  S   S46       1.0  0.91406  0.45677  0.07205  1.0000
  C   C381      1.0  0.75517  0.35119  0.05260  1.0000
  S   S47       1.0  0.57300  0.14921  0.30743  1.0000
  C   C382      1.0  0.52057  0.44248  0.11866  1.0000
  H   H306      1.0  0.96907  0.42267  0.11396  1.0000
  S   S48       1.0  0.53623  0.05524  0.00980  1.0000
  C   C383      1.0  0.51342  0.42917  0.18048  1.0000
  H   H307      1.0  0.50492  0.27424  0.24055  1.0000
  C   C384      1.0  0.75394  0.43925  0.07084  1.0000
  C   C385      1.0  0.81492  0.36351  0.33033  1.0000
  H   H308      1.0  0.50748  0.14611  0.32166  1.0000
  H   H309      1.0  0.62720  0.34039  0.29089  1.0000
  C   C386      1.0  0.71339  0.32838  0.03969  1.0000
  C   C387      1.0  0.64360  0.45286  0.24060  1.0000
  C   C388      1.0  0.73792  0.41120  0.29388  1.0000
  C   C389      1.0  0.52583  0.28980  0.26254  1.0000
  H   H310      1.0  0.68788  0.19161  0.25930  1.0000
  C   C390      1.0  0.76143  0.45165  0.28799  1.0000
  C   C391      1.0  0.62626  0.44028  0.27462  1.0000
  H   H311      1.0  0.70174  0.12652  0.13805  1.0000
  H   H312      1.0  0.63048  0.43956  0.18614  1.0000
  H   H313      1.0  0.70560  0.38758  0.28362  1.0000
  H   H314      1.0  0.61170  0.01506  0.02947  1.0000
  H   H315      1.0  0.84898  0.38596  0.32182  1.0000
  H   H316      1.0  0.76336  0.20215  0.04637  1.0000
  H   H317      1.0  0.73296  0.45190  0.15663  1.0000
  C   C392      1.0  0.51003  0.29367  0.29177  1.0000
  H   H318      1.0  0.54796  0.20020  0.03654  1.0000
  H   H319      1.0  0.49960  0.27918  0.12997  1.0000
  C   C393      1.0  0.95879  0.47858  0.27525  1.0000
  H   H320      1.0  0.74630  0.45858  0.27374  1.0000
  H   H321      1.0  0.95246  0.36706  0.14504  1.0000
  H   H322      1.0  0.49809  0.47944  0.20317  1.0000
  H   H323      1.0  0.68641  0.15973  0.00757  1.0000
  C   C394      1.0  0.75624  0.40131  0.31270  1.0000
  C   C395      1.0  0.82185  0.47234  0.31970  1.0000
  H   H324      1.0  0.64999  0.24748  0.00728  1.0000
  C   C396      1.0  0.79812  0.43185  0.32566  1.0000
  C   C397      1.0  0.72889  0.13996  0.03899  1.0000
  H   H325      1.0  0.59017  0.47684  0.32445  1.0000
  S   S49       1.0  0.66079  0.46952  0.30948  1.0000
  C   C398      1.0  0.53184  0.45685  0.15254  1.0000
  H   H326      1.0  0.73806  0.37002  0.31717  1.0000
  C   C399      1.0  0.73764  0.31011  0.31850  1.0000
  H   H327      1.0  0.50536  0.01273  0.07625  1.0000
  C   C400      1.0  0.75453  0.48843  0.08867  1.0000
  H   H328      1.0  0.49958  0.48314  0.11676  1.0000
  C   C401      1.0  0.51344  0.19395  0.33190  1.0000
  H   H329      1.0  0.82622  0.20711  0.02331  1.0000
  H   H330      1.0  0.49354  0.11300  0.14224  1.0000
  H   H331      1.0  0.89189  0.27873  0.00783  1.0000
  H   H332      1.0  0.64763  0.34239  0.00324  1.0000
  Fe  Fe24      1.0  0.59614  0.17465  0.43293  1.0000
  S   S50       1.0  0.64166  0.20645  0.38676  1.0000
  S   S51       1.0  0.58508  0.20512  0.46762  1.0000
  Fe  Fe25      1.0  0.57736  0.09886  0.42373  1.0000
  S   S52       1.0  0.62157  0.12536  0.37616  1.0000
  S   S53       1.0  0.53535  0.03417  0.44332  1.0000
  Fe  Fe26      1.0  0.66712  0.18225  0.40644  1.0000
  S   S54       1.0  0.73963  0.22373  0.40791  1.0000
  S   S55       1.0  0.94224  0.45570  0.44522  1.0000
  S   S56       1.0  0.62542  0.15448  0.45493  1.0000
  H   H333      1.0  0.73826  0.30305  0.55461  1.0000
  Fe  Fe27      1.0  0.58880  0.37120  0.41292  1.0000
  S   S57       1.0  0.65723  0.41907  0.39083  1.0000
  S   S58       1.0  0.55160  0.30549  0.40700  1.0000
  Fe  Fe28      1.0  0.58492  0.43240  0.42920  1.0000
  Fe  Fe29      1.0  0.63471  0.44344  0.36408  1.0000
  C   C402      1.0  0.65712  0.12174  0.61653  1.0000
  S   S59       1.0  0.56519  0.39352  0.38318  1.0000
  S   S60       1.0  0.60237  0.40553  0.46052  1.0000
  Fe  Fe30      1.0  0.88130  0.44015  0.45569  1.0000
  S   S61       1.0  0.82026  0.38232  0.48132  1.0000
  P   P13       1.0  0.70184  0.17414  0.55820  1.0000
  C   C403      1.0  0.91761  0.42197  0.53289  1.0000
  C   C404      1.0  0.55309  0.01855  0.47132  1.0000
  C   C405      1.0  0.55153  0.47318  0.47918  1.0000
  H   H334      1.0  0.90064  0.32045  0.44507  1.0000
  H   H335      1.0  0.83341  0.25800  0.56917  1.0000
  C   C406      1.0  0.60804  0.03231  0.50648  1.0000
  C   C407      1.0  0.59556  0.04583  0.48375  1.0000
  S   S62       1.0  0.54400  0.11648  0.40572  1.0000
  H   H336      1.0  0.64074  0.05366  0.51626  1.0000
  H   H337      1.0  0.61866  0.07736  0.47600  1.0000
  C   C408      1.0  0.76260  0.26771  0.42890  1.0000
  C   C409      1.0  0.73634  0.26759  0.44992  1.0000
  C   C410      1.0  0.75452  0.30279  0.46635  1.0000
  C   C411      1.0  0.79879  0.33860  0.46105  1.0000
  C   C412      1.0  0.82526  0.33882  0.44015  1.0000
  C   C413      1.0  0.80717  0.30321  0.42436  1.0000
  H   H338      1.0  0.70192  0.24042  0.45354  1.0000
  H   H339      1.0  0.73389  0.30241  0.48243  1.0000
  H   H340      1.0  0.85953  0.36636  0.43605  1.0000
  H   H341      1.0  0.82730  0.30330  0.40790  1.0000
  C   C414      1.0  0.56889  0.28416  0.42394  1.0000
  H   H342      1.0  0.73771  0.11772  0.45211  1.0000
  C   C415      1.0  0.70390  0.38885  0.45058  1.0000
  C   C416      1.0  0.57940  0.23571  0.45001  1.0000
  C   C417      1.0  0.57200  0.25340  0.47258  1.0000
  C   C418      1.0  0.56666  0.27740  0.45962  1.0000
  H   H343      1.0  0.56924  0.24759  0.50016  1.0000
  H   H344      1.0  0.55863  0.28908  0.47706  1.0000
  C   C419      1.0  0.91841  0.29537  0.49677  1.0000
  H   H345      1.0  0.61118  0.05967  0.39331  1.0000
  C   C420      1.0  0.73113  0.12855  0.47235  1.0000
  C   C421      1.0  0.74468  0.22873  0.55953  1.0000
  C   C422      1.0  0.69616  0.34127  0.54900  1.0000
  H   H346      1.0  0.69050  0.34045  0.37865  1.0000
  H   H347      1.0  0.75366  0.33342  0.40380  1.0000
  H   H348      1.0  0.71142  0.41522  0.45787  1.0000
  C   C423      1.0  0.78448  0.29001  0.59194  1.0000
  C   C424      1.0  0.58360  0.33653  0.54074  1.0000
  C   C425      1.0  0.59534  0.37260  0.54338  1.0000
  C   C426      1.0  0.63909  0.40953  0.53889  1.0000
  C   C427      1.0  0.67113  0.41044  0.53209  1.0000
  C   C428      1.0  0.65983  0.37433  0.53081  1.0000
  C   C429      1.0  0.61568  0.33740  0.53419  1.0000
  H   H349      1.0  0.54951  0.30790  0.54291  1.0000
  H   H350      1.0  0.58831  0.22964  0.39672  1.0000
  C   C430      1.0  0.72768  0.30890  0.35335  1.0000
  H   H351      1.0  0.60605  0.30928  0.53138  1.0000
  C   C431      1.0  0.73413  0.12259  0.50712  1.0000
  C   C432      1.0  0.58229  0.24289  0.41427  1.0000
  C   C433      1.0  0.57710  0.26710  0.40135  1.0000
  H   H352      1.0  0.74228  0.10647  0.51386  1.0000
  C   C434      1.0  0.66702  0.32090  0.57774  1.0000
  H   H353      1.0  0.64744  0.32598  0.58493  1.0000
  H   H354      1.0  0.71650  0.15255  0.43671  1.0000
  P   P14       1.0  0.70083  0.37514  0.52132  1.0000
  H   H355      1.0  0.69395  0.28816  0.36225  1.0000
  C   C435      1.0  0.62809  0.00211  0.41390  1.0000
  H   H356      1.0  0.72701  0.13049  0.55992  1.0000
  H   H357      1.0  0.62698  0.10827  0.60494  1.0000
  C   C436      1.0  0.72547  0.13643  0.53328  1.0000
  H   H358      1.0  0.70445  0.43940  0.52709  1.0000
  C   C437      1.0  0.69609  0.36303  0.47621  1.0000
  H   H359      1.0  0.70918  0.40124  0.39575  1.0000
  C   C438      1.0  0.66297  0.29352  0.59764  1.0000
  C   C439      1.0  0.70251  0.38098  0.41548  1.0000
  H   H360      1.0  0.88337  0.23302  0.49320  1.0000
  Fe  Fe31      1.0  0.59203  0.14705  0.36062  1.0000
  H   H361      1.0  0.52423  0.31744  0.34302  1.0000
  C   C440      1.0  0.72298  0.33576  0.54190  1.0000
  C   C441      1.0  0.68337  0.32045  0.43118  1.0000
  C   C442      1.0  0.68461  0.32813  0.46622  1.0000
  H   H362      1.0  0.67565  0.30616  0.48512  1.0000
  C   C443      1.0  0.69783  0.15411  0.60010  1.0000
  H   H363      1.0  0.67429  0.29330  0.42393  1.0000
  C   C444      1.0  0.71391  0.15659  0.52478  1.0000
  C   C445      1.0  0.71852  0.30808  0.56147  1.0000
  C   C446      1.0  0.69231  0.34683  0.40579  1.0000
  C   C447      1.0  0.65093  0.15735  0.54779  1.0000
  H   H364      1.0  0.73643  0.42621  0.58130  1.0000
  C   C448      1.0  0.95376  0.39670  0.38530  1.0000
  H   H365      1.0  0.61703  0.09567  0.53942  1.0000
  C   C449      1.0  0.73610  0.17057  0.61626  1.0000
  C   C450      1.0  0.77021  0.25257  0.52986  1.0000
  C   C451      1.0  0.61463  0.11681  0.53966  1.0000
  C   C452      1.0  0.71913  0.14806  0.46368  1.0000
  C   C453      1.0  0.65480  0.10594  0.64839  1.0000
  H   H366      1.0  0.76780  0.19527  0.60394  1.0000
  C   C454      1.0  0.64705  0.18426  0.54740  1.0000
  H   H367      1.0  0.67460  0.21586  0.55267  1.0000
  C   C455      1.0  0.71034  0.16183  0.48974  1.0000
  H   H368      1.0  0.78973  0.30462  0.61583  1.0000
  H   H369      1.0  0.95070  0.40218  0.35886  1.0000
  H   H370      1.0  0.76535  0.23923  0.50532  1.0000
  H   H371      1.0  0.70103  0.17683  0.48243  1.0000
  H   H372      1.0  0.74665  0.35229  0.52055  1.0000
  C   C456      1.0  0.99052  0.42236  0.43997  1.0000
  C   C457      1.0  0.80272  0.29465  0.53142  1.0000
  H   H373      1.0  0.83066  0.38124  0.38344  1.0000
  C   C458      1.0  0.88989  0.30934  0.53934  1.0000
  C   C459      1.0  0.80992  0.31341  0.56236  1.0000
  C   C460      1.0  0.75179  0.24787  0.59051  1.0000
  H   H374      1.0  0.73181  0.23025  0.61352  1.0000
  H   H375      1.0  0.66780  0.06573  0.41665  1.0000
  C   C461      1.0  0.57501  0.10330  0.53142  1.0000
  C   C462      1.0  0.60742  0.17068  0.53904  1.0000
  H   H376      1.0  0.54227  0.21002  0.34702  1.0000
  H   H377      1.0  0.60489  0.19175  0.53751  1.0000
  C   C463      1.0  0.88516  0.25432  0.50607  1.0000
  C   C464      1.0  0.92313  0.35759  0.39969  1.0000
  S   S63       1.0  0.54262  0.44203  0.44615  1.0000
  H   H378      1.0  0.54754  0.07223  0.52413  1.0000
  C   C465      1.0  0.76123  0.33445  0.37674  1.0000
  C   C466      1.0  0.57142  0.13025  0.53109  1.0000
  H   H379      1.0  0.83471  0.34608  0.56317  1.0000
  C   C467      1.0  0.69300  0.12237  0.66417  1.0000
  H   H380      1.0  0.63988  0.27734  0.61940  1.0000
  Fe  Fe32      1.0  0.66951  0.45521  0.43580  1.0000
  C   C468      1.0  0.80279  0.48127  0.56776  1.0000
  H   H381      1.0  0.82222  0.31276  0.50843  1.0000
  H   H382      1.0  0.89201  0.41954  0.52579  1.0000
  H   H383      1.0  0.76325  0.16731  0.66034  1.0000
  H   H384      1.0  0.90009  0.37970  0.49533  1.0000
  S   S64       1.0  0.88160  0.46231  0.40403  1.0000
  H   H385      1.0  0.65330  0.00541  0.42412  1.0000
  C   C469      1.0  0.85695  0.26833  0.54882  1.0000
  H   H386      1.0  0.68473  0.26512  0.60431  1.0000
  C   C470      1.0  0.75423  0.42464  0.52938  1.0000
  H   H387      1.0  0.89138  0.33011  0.55289  1.0000
  C   C471      1.0  0.73365  0.15476  0.64816  1.0000
  C   C472      1.0  0.92247  0.39961  0.51560  1.0000
  H   H388      1.0  0.57874  0.27219  0.37376  1.0000
  H   H389      1.0  0.82840  0.20891  0.53902  1.0000
  C   C473      1.0  0.68835  0.28675  0.58925  1.0000
  C   C474      1.0  0.92042  0.32305  0.51280  1.0000
  H   H390      1.0  0.78376  0.43262  0.47968  1.0000
  H   H391      1.0  0.54124  0.12023  0.52347  1.0000
  Fe  Fe33      1.0  0.94592  0.48304  0.39538  1.0000
  H   H392      1.0  0.57041  0.37199  0.54765  1.0000
  C   C475      1.0  0.78820  0.44577  0.50427  1.0000
  C   C476      1.0  0.80475  0.36158  0.36524  1.0000
  C   C477      1.0  0.85425  0.24075  0.53194  1.0000
  C   C478      1.0  0.76209  0.44232  0.56145  1.0000
  H   H393      1.0  0.94234  0.30557  0.47680  1.0000
  C   C479      1.0  0.96029  0.38313  0.45460  1.0000
  P   P15       1.0  0.96328  0.37586  0.50008  1.0000
  C   C480      1.0  0.94663  0.44855  0.55853  1.0000
  H   H394      1.0  0.64806  0.43753  0.53932  1.0000
  H   H395      1.0  0.89652  0.33265  0.38420  1.0000
  S   S65       1.0  0.96212  0.47160  0.34524  1.0000
  C   C481      1.0  0.57849  0.99138  0.51676  1.0000
  C   C482      1.0  0.63676  0.03653  0.40930  1.0000
  H   H396      1.0  0.94373  0.46690  0.57103  1.0000
  C   C483      1.0  0.92598  0.35079  0.43430  1.0000
  C   C484      1.0  0.95679  0.40402  0.52365  1.0000
  C   C485      1.0  0.56477  0.99568  0.38638  1.0000
  C   C486      1.0  0.60499  0.03324  0.39583  1.0000
  H   H397      1.0  0.81238  0.42429  0.34039  1.0000
  H   H398      1.0  0.51163  0.23773  0.33866  1.0000
  H   H399      1.0  0.62325  0.08060  0.66069  1.0000
  C   C487      1.0  0.52759  0.48266  0.47915  1.0000
  H   H400      1.0  0.50434  0.47106  0.45905  1.0000
  H   H401      1.0  0.75172  0.46957  0.41325  1.0000
  C   C488      1.0  0.98748  0.42906  0.40542  1.0000
  H   H402      1.0  0.54009  0.99336  0.37641  1.0000
  H   H403      1.0  0.59912  0.34753  0.34194  1.0000
  H   H404      1.0  0.54696  0.46946  0.37299  1.0000
  C   C489      1.0  0.82869  0.48472  0.51065  1.0000
  S   S66       1.0  0.65284  0.48395  0.40738  1.0000
  H   H405      1.0  0.59901  0.48040  0.50647  1.0000
  C   C490      1.0  0.98593  0.43090  0.54946  1.0000
  C   C491      1.0  0.98041  0.45261  0.56710  1.0000
  H   H406      1.0  0.50547  0.48803  0.66495  1.0000
  C   C492      1.0  0.58111  0.48811  0.50559  1.0000
  H   H407      1.0  0.99090  0.36522  0.56252  1.0000
  H   H408      1.0  0.64762  0.44012  0.82413  1.0000
  H   H409      1.0  0.78571  0.42084  0.98727  1.0000
  C   C493      1.0  0.86309  0.27964  0.96368  1.0000
  C   C494      1.0  0.54265  0.41786  0.94073  1.0000
  C   C495      1.0  0.63486  0.25105  0.98838  1.0000
  H   H410      1.0  0.69105  0.10979  0.68871  1.0000
  C   C496      1.0  0.59549  0.41600  0.95122  1.0000
  H   H411      1.0  0.54511  0.19404  0.93829  1.0000
  C   C497      1.0  0.58622  0.43745  0.94020  1.0000
  P   P16       1.0  0.70717  0.33399  0.99476  1.0000
  H   H412      1.0  0.56917  0.35959  0.97198  1.0000
  H   H413      1.0  0.82577  0.27146  0.92164  1.0000
  H   H414      1.0  0.75998  0.20008  0.93665  1.0000
  H   H415      1.0  0.84646  0.46772  0.94722  1.0000
  C   C498      1.0  0.59557  0.21674  0.97382  1.0000
  C   C499      1.0  0.68641  0.40527  0.99588  1.0000
  H   H416      1.0  0.92713  0.46644  0.88507  1.0000
  C   C500      1.0  0.67419  0.14193  0.98453  1.0000
  C   C501      1.0  0.59598  0.25906  0.93814  1.0000
  C   C502      1.0  0.57586  0.22071  0.94908  1.0000
  H   H417      1.0  0.53445  0.43386  0.93401  1.0000
  H   H418      1.0  0.89202  0.31104  0.95691  1.0000
  C   C503      1.0  0.78851  0.21676  0.95240  1.0000
  C   C504      1.0  0.63552  0.29341  0.95226  1.0000
  C   C505      1.0  0.90376  0.44789  0.97186  1.0000
  H   H419      1.0  0.58010  0.18694  0.98184  1.0000
  C   C506      1.0  0.74528  0.33966  0.96801  1.0000
  C   C507      1.0  0.75396  0.31724  0.97642  1.0000
  C   C508      1.0  0.78019  0.31815  0.95444  1.0000
  C   C509      1.0  0.79761  0.34120  0.92365  1.0000
  C   C510      1.0  0.78867  0.36326  0.91480  1.0000
  C   C511      1.0  0.76229  0.36229  0.93679  1.0000
  H   H420      1.0  0.65115  0.32281  0.94267  1.0000
  H   H421      1.0  0.62926  0.07875  0.90148  1.0000
  C   C512      1.0  0.92125  0.45130  0.93946  1.0000
  C   C513      1.0  0.78819  0.19818  0.98113  1.0000
  C   C514      1.0  0.88449  0.46660  0.91268  1.0000
  C   C515      1.0  0.50900  0.37750  0.95205  1.0000
  C   C516      1.0  0.95216  0.38578  0.84276  1.0000
  C   C517      1.0  0.82581  0.22084  0.00101  1.0000
  C   C518      1.0  0.71552  0.37706  0.99244  1.0000
  H   H422      1.0  0.95015  0.37050  0.82080  1.0000
  P   P17       1.0  0.73993  0.14580  0.99266  1.0000
  H   H423      1.0  0.58093  0.26218  0.91870  1.0000
  C   C519      1.0  0.95852  0.42689  0.89876  1.0000
  C   C520      1.0  0.96043  0.42561  0.97235  1.0000
  H   H424      1.0  0.91273  0.44298  0.99537  1.0000
  C   C521      1.0  0.69353  0.13018  0.97136  1.0000
  H   H425      1.0  0.73340  0.46996  0.99070  1.0000
  H   H426      1.0  0.78610  0.30021  0.96119  1.0000
  H   H427      1.0  0.81718  0.34120  0.90637  1.0000
  H   H428      1.0  0.80163  0.38066  0.89068  1.0000
  H   H429      1.0  0.75447  0.37844  0.92913  1.0000
  P   P18       1.0  0.96234  0.45136  0.93642  1.0000
  H   H430      1.0  0.59360  0.09752  0.92663  1.0000
  C   C522      1.0  0.87615  0.45296  0.97448  1.0000
  H   H431      1.0  0.73957  0.29825  0.99968  1.0000
  C   C523      1.0  0.86670  0.46251  0.94494  1.0000
  C   C524      1.0  0.75771  0.41613  0.98799  1.0000
  C   C525      1.0  0.76410  0.44953  0.98668  1.0000
  C   C526      1.0  0.71583  0.04767  0.96735  1.0000
  H   H432      1.0  0.82645  0.11916  0.95766  1.0000
  C   C527      1.0  0.86306  0.26141  0.99231  1.0000
  H   H433      1.0  0.62890  0.43070  0.95178  1.0000
  C   C528      1.0  0.72838  0.44407  0.99037  1.0000
  C   C529      1.0  0.56176  0.37568  0.96255  1.0000
  C   C530      1.0  0.55306  0.03173  0.99910  1.0000
  H   H434      1.0  0.69350  0.10059  0.92877  1.0000
  C   C531      1.0  0.51856  0.35650  0.96310  1.0000
  C   C532      1.0  0.55155  0.99094  0.95939  1.0000
  C   C533      1.0  0.63866  0.13060  0.96814  1.0000
  C   C534      1.0  0.62228  0.10762  0.93838  1.0000
  C   C535      1.0  0.64221  0.09688  0.92440  1.0000
  C   C536      1.0  0.67821  0.10872  0.94043  1.0000
  C   C537      1.0  0.91970  0.39960  0.88039  1.0000
  H   H435      1.0  0.62297  0.13863  0.97910  1.0000
  C   C538      1.0  0.91667  0.37934  0.85230  1.0000
  C   C539      1.0  0.53867  0.00991  0.96848  1.0000
  H   H436      1.0  0.89181  0.39384  0.88779  1.0000
  H   H437      1.0  0.67782  0.05838  0.98224  1.0000
  C   C540      1.0  0.99054  0.41226  0.86143  1.0000
  H   H438      1.0  0.88687  0.35864  0.83790  1.0000
  H   H439      1.0  0.87800  0.47499  0.88995  1.0000
  H   H440      1.0  0.79694  0.47973  0.98469  1.0000
  C   C541      1.0  0.82582  0.25733  0.94378  1.0000
  C   C542      1.0  0.65448  0.28967  0.97845  1.0000
  C   C543      1.0  0.68010  0.37199  0.99748  1.0000
  H   H441      1.0  0.86330  0.45082  0.99969  1.0000
  H   H442      1.0  0.51788  0.00804  0.95154  1.0000
  C   C544      1.0  0.92011  0.39035  0.98729  1.0000
  H   H443      1.0  0.61679  0.43182  0.88157  1.0000
  H   H444      1.0  0.76141  0.04539  0.95248  1.0000
  C   C545      1.0  0.75754  0.06456  0.96032  1.0000
  C   C546      1.0  0.74709  0.11408  0.98023  1.0000
  C   C547      1.0  0.71059  0.07222  0.97729  1.0000
  C   C548      1.0  0.78897  0.13080  0.97310  1.0000
  C   C549      1.0  0.79411  0.10610  0.96322  1.0000
  H   H445      1.0  0.68731  0.01545  0.96489  1.0000
  H   H446      1.0  0.88987  0.37998  0.97944  1.0000
  H   H447      1.0  0.65878  0.40087  0.00014  1.0000
  H   H448      1.0  0.81779  0.16282  0.97491  1.0000
  C   C550      1.0  0.64040  0.46149  0.86924  1.0000
  C   C551      1.0  0.65776  0.46604  0.83651  1.0000
  C   C552      1.0  0.57789  0.99267  0.98133  1.0000
  C   C553      1.0  0.91189  0.46127  0.90995  1.0000
  H   H449      1.0  0.57289  0.47873  0.87814  1.0000
  C   C554      1.0  0.51356  0.46511  0.99250  1.0000
  P   P19       1.0  0.83298  0.53488  0.29392  1.0000
  S   S67       1.0  0.93365  0.52833  0.21178  1.0000
  C   C555      1.0  0.93894  0.50995  0.24853  1.0000
  H   H450      1.0  0.68921  0.51980  0.18454  1.0000
  C   C556      1.0  0.93777  0.50394  0.31139  1.0000
  C   C557      1.0  0.52686  0.51557  0.11414  1.0000
  S   S68       1.0  0.72697  0.50218  0.09602  1.0000
  H   H451      1.0  0.85676  0.52732  0.09066  1.0000
  C   C558      1.0  0.59570  0.89450  0.30350  1.0000
  C   C559      1.0  0.67848  0.52921  0.16727  1.0000
  H   H452      1.0  0.76283  0.55653  0.21484  1.0000
  C   C560      1.0  0.52704  0.49958  0.21866  1.0000
  C   C561      1.0  0.79481  0.54875  0.24914  1.0000
  H   H453      1.0  0.52114  0.77255  0.02146  1.0000
  C   C562      1.0  0.78013  0.54819  0.21692  1.0000
  C   C563      1.0  0.93134  0.51611  0.28157  1.0000
  C   C564      1.0  0.79954  0.51612  0.09414  1.0000
  H   H454      1.0  0.50893  0.82624  0.02617  1.0000
  C   C565      1.0  0.91869  0.58767  0.26563  1.0000
  C   C566      1.0  0.82180  0.50546  0.08754  1.0000
  H   H455      1.0  0.55668  0.53396  0.30091  1.0000
  H   H456      1.0  0.70750  0.58018  0.09080  1.0000
  H   H457      1.0  0.60044  0.56919  0.03470  1.0000
  H   H458      1.0  0.63751  0.56329  0.21374  1.0000
  C   C567      1.0  0.70348  0.55253  0.13753  1.0000
  C   C568      1.0  0.60527  0.54638  0.22451  1.0000
  H   H459      1.0  0.62972  0.57140  0.27512  1.0000
  C   C569      1.0  0.55992  0.53038  0.27384  1.0000
  H   H460      1.0  0.66907  0.53933  0.31749  1.0000
  C   C570      1.0  0.52340  0.53626  0.09148  1.0000
  H   H461      1.0  0.60073  0.88909  0.27786  1.0000
  C   C571      1.0  0.95185  0.49039  0.24544  1.0000
  C   C572      1.0  0.50095  0.97610  0.11376  1.0000
  C   C573      1.0  0.63152  0.92353  0.32413  1.0000
  C   C574      1.0  0.64889  0.55046  0.12089  1.0000
  C   C575      1.0  0.68863  0.56304  0.11431  1.0000
  C   C576      1.0  0.62407  0.52786  0.15120  1.0000
  S   S69       1.0  0.94154  0.53381  0.11014  1.0000
  C   C577      1.0  0.80939  0.52546  0.19026  1.0000
  C   C578      1.0  0.78748  0.53663  0.18747  1.0000
  C   C579      1.0  0.59530  0.59965  0.10698  1.0000
  C   C580      1.0  0.59898  0.57904  0.12955  1.0000
  C   C581      1.0  0.52298  0.50481  0.25342  1.0000
  H   H462      1.0  0.75376  0.55463  0.03347  1.0000
  C   C582      1.0  0.89148  0.56788  0.29554  1.0000
  C   C583      1.0  0.56536  0.53671  0.13247  1.0000
  H   H463      1.0  0.55225  0.89899  0.02136  1.0000
  H   H464      1.0  0.90582  0.58425  0.24063  1.0000
  H   H465      1.0  0.92046  0.53035  0.28411  1.0000
  H   H466      1.0  0.84005  0.51629  0.22423  1.0000
  C   C584      1.0  0.60107  0.55139  0.25931  1.0000
  C   C585      1.0  0.55774  0.57820  0.08763  1.0000
  C   C586      1.0  0.81691  0.53761  0.25212  1.0000
  H   H467      1.0  0.63732  0.55768  0.10187  1.0000
  H   H468      1.0  0.73371  0.56138  0.13193  1.0000
  P   P20       1.0  0.57214  0.51046  0.15981  1.0000
  C   C587      1.0  0.82357  0.52548  0.22247  1.0000
  H   H469      1.0  0.78827  0.55737  0.27162  1.0000
  H   H470      1.0  0.51548  0.92070  0.02376  1.0000
  H   H471      1.0  0.62182  0.63219  0.10393  1.0000
  H   H472      1.0  0.62847  0.59603  0.14411  1.0000
  H   H473      1.0  0.51780  0.74105  0.07515  1.0000
  C   C588      1.0  0.98173  0.61745  0.29944  1.0000
  C   C589      1.0  0.57378  0.50960  0.03112  1.0000
  H   H474      1.0  0.61908  0.49740  0.19658  1.0000
  H   H475      1.0  0.67914  0.52237  0.04794  1.0000
  H   H476      1.0  0.55539  0.59391  0.06915  1.0000
  H   H477      1.0  0.59627  0.51531  0.04908  1.0000
  C   C590      1.0  0.57599  0.54008  0.02293  1.0000
  C   C591      1.0  0.96352  0.61205  0.26760  1.0000
  C   C592      1.0  0.63876  0.51662  0.17399  1.0000
  H   H478      1.0  0.81737  0.54606  0.10285  1.0000
  H   H479      1.0  0.77597  0.53607  0.16252  1.0000
  H   H480      1.0  0.66432  0.94071  0.31445  1.0000
  H   H481      1.0  0.62636  0.49543  0.00169  1.0000
  C   C593      1.0  0.51704  0.87661  0.02519  1.0000
  Fe  Fe34      1.0  0.97452  0.51527  0.09399  1.0000
  C   C594      1.0  0.56804  0.51942  0.20422  1.0000
  H   H482      1.0  0.81521  0.51656  0.16744  1.0000
  C   C595      1.0  0.55347  0.87286  0.31578  1.0000
  H   H483      1.0  0.52577  0.85082  0.29956  1.0000
  H   H484      1.0  0.98393  0.62603  0.24422  1.0000
  C   C596      1.0  0.68906  0.52567  0.02111  1.0000
  C   C597      1.0  0.73106  0.54368  0.01293  1.0000
  H   H485      1.0  0.74717  0.49077  0.32606  1.0000
  Fe  Fe35      1.0  0.92740  0.50197  0.16075  1.0000
  C   C598      1.0  0.95515  0.59866  0.32941  1.0000
  C   C599      1.0  0.81586  0.54725  0.32809  1.0000
  C   C600      1.0  0.91036  0.57412  0.32746  1.0000
  H   H486      1.0  0.85406  0.49507  0.33018  1.0000
  C   C601      1.0  0.49604  0.88882  0.02622  1.0000
  H   H487      1.0  0.49454  0.51974  0.07609  1.0000
  Fe  Fe36      1.0  0.55722  0.91037  0.55923  1.0000
  C   C602      1.0  0.60728  0.59950  0.41839  1.0000
  Fe  Fe37      1.0  0.55320  0.84394  0.54613  1.0000
  H   H488      1.0  0.51477  0.51398  0.50450  1.0000
  S   S70       1.0  0.57948  0.82684  0.51138  1.0000
  H   H489      1.0  0.88034  0.60731  0.33641  1.0000
  Fe  Fe38      1.0  0.53053  0.85188  0.61796  1.0000
  H   H490      1.0  0.65740  0.61310  0.49274  1.0000
  S   S71       1.0  0.52428  0.86243  0.51947  1.0000
  S   S72       1.0  0.59094  0.89512  0.58344  1.0000
  Fe  Fe39      1.0  0.53875  0.57351  0.57412  1.0000
  H   H491      1.0  0.58240  0.52387  0.41446  1.0000
  S   S73       1.0  0.57170  0.55255  0.56476  1.0000
  Fe  Fe40      1.0  0.53190  0.63177  0.55410  1.0000
  C   C603      1.0  0.58706  0.51256  0.53127  1.0000
  S   S74       1.0  0.55384  0.67691  0.51185  1.0000
  Fe  Fe41      1.0  0.52736  0.61167  0.63001  1.0000
  H   H492      1.0  0.60749  0.95974  0.47812  1.0000
  H   H493      1.0  0.68791  0.67072  0.39602  1.0000
  S   S75       1.0  0.57797  0.63801  0.58752  1.0000
  H   H494      1.0  0.60603  0.59393  0.39106  1.0000
  C   C604      1.0  0.67047  0.56806  0.36140  1.0000
  H   H495      1.0  0.61011  0.52393  0.55149  1.0000
  C   C605      1.0  0.50205  0.83783  0.42839  1.0000
  C   C606      1.0  0.65008  0.53689  0.33797  1.0000
  S   S76       1.0  0.49710  0.56964  0.53715  1.0000
  C   C607      1.0  0.52360  0.97756  0.48142  1.0000
  S   S77       1.0  0.91084  0.56100  0.42097  1.0000
  C   C608      1.0  0.64631  0.56413  0.38900  1.0000
  C   C609      1.0  0.79286  0.72686  0.37078  1.0000
  C   C610      1.0  0.81749  0.54515  0.47022  1.0000
  C   C611      1.0  0.85760  0.55987  0.45978  1.0000
  C   C612      1.0  0.85952  0.54093  0.43369  1.0000
  C   C613      1.0  0.50284  0.71791  0.65033  1.0000
  Fe  Fe42      1.0  0.97731  0.51545  0.46801  1.0000
  H   H496      1.0  0.81631  0.55950  0.49098  1.0000
  H   H497      1.0  0.88717  0.58562  0.47240  1.0000
  H   H498      1.0  0.65324  0.95374  0.37266  1.0000
  C   C614      1.0  0.56317  0.52205  0.53125  1.0000
  H   H499      1.0  0.93242  0.50947  0.33673  1.0000
  C   C615      1.0  0.61001  0.92601  0.44332  1.0000
  C   C616      1.0  0.77169  0.51938  0.33860  1.0000
  H   H500      1.0  0.50729  0.77043  0.45072  1.0000
  C   C617      1.0  0.58272  0.90823  0.37006  1.0000
  C   C618      1.0  0.83600  0.50259  0.54221  1.0000
  S   S78       1.0  0.49999  0.87105  0.59717  1.0000
  C   C619      1.0  0.74492  0.61636  0.49953  1.0000
  P   P21       1.0  0.57511  0.91913  0.41198  1.0000
  C   C620      1.0  0.56918  0.78334  0.51399  1.0000
  C   C621      1.0  0.58409  0.77706  0.48599  1.0000
  C   C622      1.0  0.57838  0.74410  0.48605  1.0000
  C   C623      1.0  0.55818  0.71691  0.51434  1.0000
  C   C624      1.0  0.54236  0.72242  0.54252  1.0000
  C   C625      1.0  0.54771  0.75565  0.54227  1.0000
  H   H501      1.0  0.60056  0.79807  0.46407  1.0000
  S   S79       1.0  0.59562  0.97604  0.54598  1.0000
  H   H502      1.0  0.52645  0.70142  0.56443  1.0000
  H   H503      1.0  0.53599  0.76021  0.56402  1.0000
  H   H504      1.0  0.61091  0.62017  0.51598  1.0000
  C   C626      1.0  0.60147  0.52851  0.39262  1.0000
  C   C627      1.0  0.65010  0.91200  0.46432  1.0000
  C   C628      1.0  0.58712  0.96398  0.40559  1.0000
  H   H505      1.0  0.56243  0.61491  0.47752  1.0000
  C   C629      1.0  0.58073  0.60335  0.43196  1.0000
  C   C630      1.0  0.52030  0.87702  0.42906  1.0000
  H   H506      1.0  0.77857  0.57026  0.40484  1.0000
  H   H507      1.0  0.85672  0.62093  0.38566  1.0000
  C   C631      1.0  0.71753  0.67833  0.39178  1.0000
  C   C632      1.0  0.69255  0.59242  0.45506  1.0000
  C   C633      1.0  0.62450  0.90777  0.43915  1.0000
  H   H508      1.0  0.52042  0.83267  0.41722  1.0000
  H   H509      1.0  0.77225  0.64066  0.51495  1.0000
  H   H510      1.0  0.61508  0.88926  0.41712  1.0000
  C   C634      1.0  0.79545  0.70022  0.38040  1.0000
  C   C635      1.0  0.53620  0.96401  0.50398  1.0000
  C   C636      1.0  0.64560  0.95122  0.49874  1.0000
  P   P22       1.0  0.67310  0.60259  0.42134  1.0000
  H   H511      1.0  0.67666  0.51577  0.48804  1.0000
  H   H512      1.0  0.74012  0.57160  0.52234  1.0000
  H   H513      1.0  0.74245  0.65414  0.47202  1.0000
  C   C637      1.0  0.67349  0.55330  0.46061  1.0000
  H   H514      1.0  0.51414  0.86354  0.35762  1.0000
  H   H515      1.0  0.59051  0.74006  0.46419  1.0000
  H   H516      1.0  0.65991  0.89670  0.46170  1.0000
  C   C638      1.0  0.72793  0.62386  0.47519  1.0000
  C   C639      1.0  0.69095  0.54599  0.48453  1.0000
  C   C640      1.0  0.72674  0.57750  0.50389  1.0000
  H   H517      1.0  0.67869  0.93528  0.51431  1.0000
  H   H518      1.0  0.86740  0.53300  0.54668  1.0000
  C   C641      1.0  0.66051  0.93359  0.49416  1.0000
  H   H519      1.0  0.64495  0.52829  0.44663  1.0000
  C   C642      1.0  0.58251  0.61135  0.46701  1.0000
  C   C643      1.0  0.78900  0.56451  0.38289  1.0000
  H   H520      1.0  0.75194  0.73660  0.36909  1.0000
  C   C644      1.0  0.77905  0.51238  0.45372  1.0000
  S   S80       1.0  0.91568  0.49767  0.48242  1.0000
  C   C645      1.0  0.63584  0.60362  0.43985  1.0000
  C   C646      1.0  0.71992  0.65146  0.40177  1.0000
  C   C647      1.0  0.62013  0.94716  0.47357  1.0000
  C   C648      1.0  0.61021  0.61475  0.48863  1.0000
  C   C649      1.0  0.63664  0.61072  0.47523  1.0000
  Fe  Fe43      1.0  0.92127  0.52145  0.42983  1.0000
  C   C650      1.0  0.53339  0.50698  0.50494  1.0000
  C   C651      1.0  0.75847  0.52820  0.36568  1.0000
  C   C652      1.0  0.58119  0.49748  0.36907  1.0000
  H   H521      1.0  0.96896  0.60257  0.35423  1.0000
  H   H522      1.0  0.55891  0.60039  0.41536  1.0000
  C   C653      1.0  0.51444  0.70004  0.66579  1.0000
  H   H523      1.0  0.65253  0.96695  0.52235  1.0000
  C   C654      1.0  0.55601  0.96120  0.39079  1.0000
  H   H524      1.0  0.72451  0.50639  0.37369  1.0000
  H   H525      1.0  0.82243  0.49361  0.39643  1.0000
  C   C655      1.0  0.82108  0.50791  0.41710  1.0000
  H   H526      1.0  0.76170  0.64234  0.40305  1.0000
  H   H527      1.0  0.82562  0.70868  0.37602  1.0000
  H   H528      1.0  0.89026  0.55970  0.35098  1.0000
  C   C656      1.0  0.54697  0.87994  0.34883  1.0000
  H   H529      1.0  0.51308  0.93249  0.51185  1.0000
  S   S81       1.0  0.49625  0.80000  0.58222  1.0000
  H   H530      1.0  0.51116  0.91330  0.44833  1.0000
  C   C657      1.0  0.75915  0.66267  0.39578  1.0000
  S   S82       1.0  0.72961  0.49527  0.46831  1.0000
  C   C658      1.0  0.60550  0.50156  0.34186  1.0000
  H   H531      1.0  0.70521  0.59448  0.35836  1.0000
  C   C659      1.0  0.84624  0.58462  0.34447  1.0000
  C   C660      1.0  0.75392  0.71590  0.37644  1.0000
  H   H532      1.0  0.82104  0.75603  0.35899  1.0000
  S   S83       1.0  0.98641  0.54459  0.41716  1.0000
  H   H533      1.0  0.85430  0.50134  0.49080  1.0000
  C   C661      1.0  0.49692  0.88323  0.44568  1.0000
  H   H534      1.0  0.51400  0.68041  0.65110  1.0000
  C   C662      1.0  0.78099  0.49414  0.42672  1.0000
  C   C663      1.0  0.62512  0.93068  0.35717  1.0000
  H   H535      1.0  0.80844  0.49511  0.59224  1.0000
  H   H536      1.0  0.52468  0.93231  0.38328  1.0000
  C   C664      1.0  0.83291  0.59286  0.37216  1.0000
  H   H537      1.0  0.49371  0.71256  0.62341  1.0000
  H   H538      1.0  0.49356  0.75623  0.65778  1.0000
  H   H539      1.0  0.50355  0.80825  0.74431  1.0000
  S   S84       1.0  0.55413  0.61382  0.89896  1.0000
  H   H540      1.0  0.57861  0.81502  0.89274  1.0000
  H   H541      1.0  0.51550  0.56342  0.69740  1.0000
  H   H542      1.0  0.72362  0.53357  0.92564  1.0000
  Fe  Fe44      1.0  0.52999  0.64190  0.90857  1.0000
  S   S85       1.0  0.57274  0.70793  0.89567  1.0000
  S   S86       1.0  0.55141  0.57298  0.99006  1.0000
  S   S87       1.0  0.54449  0.64015  0.68272  1.0000
  H   H543      1.0  0.51887  0.77228  0.71784  1.0000
  C   C665      1.0  0.70049  0.53719  0.83537  1.0000
  Fe  Fe45      1.0  0.57041  0.90410  0.85562  1.0000
  H   H544      1.0  0.53665  0.69404  0.71138  1.0000
  S   S88       1.0  0.49889  0.61014  0.96025  1.0000
  H   H545      1.0  0.77591  0.56053  0.97221  1.0000
  Fe  Fe46      1.0  0.56199  0.92234  0.92897  1.0000
  Fe  Fe47      1.0  0.52635  0.84021  0.91277  1.0000
  C   C666      1.0  0.50085  0.55200  0.75252  1.0000
  S   S89       1.0  0.54519  0.92836  0.87686  1.0000
  C   C667      1.0  0.51752  0.75184  0.70369  1.0000
  C   C668      1.0  0.74339  0.54676  0.97842  1.0000
  C   C669      1.0  0.55222  0.72816  0.90545  1.0000
  C   C670      1.0  0.58751  0.55354  0.91126  1.0000
  C   C671      1.0  0.50020  0.72432  0.93521  1.0000
  C   C672      1.0  0.52337  0.76354  0.92338  1.0000
  C   C673      1.0  0.56047  0.78474  0.90185  1.0000
  C   C674      1.0  0.57507  0.76719  0.89322  1.0000
  H   H546      1.0  0.57699  0.56816  0.90772  1.0000
  C   C675      1.0  0.67120  0.51317  0.96014  1.0000
  H   H547      1.0  0.63277  0.95619  0.73370  1.0000
  Fe  Fe48      1.0  0.51766  0.57746  0.94853  1.0000
  H   H548      1.0  0.54976  0.51285  0.86951  1.0000
  S   S90       1.0  0.59332  0.90372  0.90742  1.0000
  H   H549      1.0  0.65041  0.55598  0.96406  1.0000
  C   C676      1.0  0.61276  0.51414  0.92217  1.0000
  C   C677      1.0  0.51549  0.60417  0.78419  1.0000
  H   H550      1.0  0.59531  0.91574  0.68060  1.0000
  H   H551      1.0  0.53985  0.65527  0.75339  1.0000
  S   S91       1.0  0.51682  0.82905  0.67319  1.0000
  C   C678      1.0  0.55333  0.95003  0.75109  1.0000
  C   C679      1.0  0.51430  0.70651  0.92602  1.0000
  C   C680      1.0  0.62860  0.54608  0.94324  1.0000
  H   H552      1.0  0.54125  0.97508  0.93539  1.0000
  H   H553      1.0  0.61628  0.75983  0.71482  1.0000
  C   C681      1.0  0.60444  0.92390  0.73600  1.0000
  C   C682      1.0  0.52811  0.70848  0.70002  1.0000
  C   C683      1.0  0.54625  0.85941  0.70910  1.0000
  C   C684      1.0  0.58805  0.90508  0.76903  1.0000
  C   C685      1.0  0.55212  0.86326  0.77173  1.0000
  C   C686      1.0  0.53140  0.84059  0.74193  1.0000
  H   H554      1.0  0.54081  0.84815  0.79668  1.0000
  H   H555      1.0  0.60457  0.78410  0.87753  1.0000
  H   H556      1.0  0.53981  0.94230  0.80587  1.0000
  C   C687      1.0  0.53242  0.73648  0.71848  1.0000
  H   H557      1.0  0.55827  0.94817  0.69579  1.0000
  P   P23       1.0  0.55687  0.75282  0.76062  1.0000
  C   C688      1.0  0.58995  0.74372  0.76750  1.0000
  C   C689      1.0  0.59434  0.80667  0.76521  1.0000
  C   C690      1.0  0.60824  0.82316  0.79832  1.0000
  C   C691      1.0  0.63580  0.86450  0.80256  1.0000
  C   C692      1.0  0.65072  0.88987  0.77368  1.0000
  C   C693      1.0  0.63853  0.87400  0.74051  1.0000
  C   C694      1.0  0.61079  0.83262  0.73619  1.0000
  C   C695      1.0  0.59137  0.73193  0.80045  1.0000
  C   C696      1.0  0.61506  0.72282  0.80528  1.0000
  C   C697      1.0  0.63823  0.72616  0.77745  1.0000
  C   C698      1.0  0.63870  0.73972  0.74497  1.0000
  C   C699      1.0  0.61534  0.74920  0.74014  1.0000
  H   H558      1.0  0.52059  0.77452  0.80430  1.0000
  H   H559      1.0  0.62773  0.58995  0.95424  1.0000
  C   C700      1.0  0.51335  0.72529  0.79314  1.0000
  S   S92       1.0  0.61290  0.93400  0.80662  1.0000
  C   C701      1.0  0.58332  0.90111  0.70597  1.0000
  C   C702      1.0  0.53716  0.93268  0.71873  1.0000
  C   C703      1.0  0.52895  0.62645  0.75301  1.0000
  C   C704      1.0  0.52674  0.92918  0.78079  1.0000
  H   H560      1.0  0.59709  0.80393  0.82097  1.0000
  H   H561      1.0  0.64506  0.87682  0.82828  1.0000
  H   H562      1.0  0.67105  0.92172  0.77709  1.0000
  H   H563      1.0  0.64979  0.89365  0.71816  1.0000
  H   H564      1.0  0.60219  0.82123  0.71020  1.0000
  H   H565      1.0  0.57403  0.72939  0.82256  1.0000
  H   H566      1.0  0.61500  0.71277  0.83065  1.0000
  H   H567      1.0  0.65574  0.71820  0.78108  1.0000
  H   H568      1.0  0.58698  0.97891  0.75338  1.0000
  C   C705      1.0  0.52844  0.61165  0.72146  1.0000
  S   S93       1.0  0.59393  0.96842  0.97146  1.0000
  H   H569      1.0  0.65655  0.74220  0.72333  1.0000
  H   H570      1.0  0.72344  0.56645  0.82213  1.0000
  C   C706      1.0  0.50118  0.56673  0.78402  1.0000
  C   C707      1.0  0.57194  0.52213  0.88995  1.0000
  C   C708      1.0  0.65919  0.51031  0.99487  1.0000
  H   H571      1.0  0.49648  0.67007  0.78835  1.0000
  C   C709      1.0  0.51491  0.57458  0.72141  1.0000
  C   C710      1.0  0.61619  0.56581  0.93757  1.0000
  H   H572      1.0  0.69312  0.55882  0.87992  1.0000
  C   C711      1.0  0.68325  0.53277  0.86809  1.0000
  C   C712      1.0  0.71360  0.53152  0.95206  1.0000
  H   H573      1.0  0.51637  0.61608  0.80832  1.0000
  C   C713      1.0  0.51590  0.49562  0.98418  1.0000
  C   C714      1.0  0.49448  0.89440  0.71607  1.0000
  H   H574      1.0  0.49644  0.67639  0.93549  1.0000
  C   C715      1.0  0.54698  0.53329  0.99951  1.0000
  C   C716      1.0  0.58486  0.50276  0.89512  1.0000
  C   C717      1.0  0.50445  0.74427  0.81145  1.0000
  S   S94       1.0  0.49663  0.85861  0.93828  1.0000
  C   C718      1.0  0.50313  0.74281  0.66961  1.0000
  C   C719      1.0  0.68776  0.50385  0.81957  1.0000
  S   S95       1.0  0.50597  0.78544  0.93769  1.0000
  S   S96       1.0  0.50550  0.83898  0.85964  1.0000
  H   H575      1.0  0.70090  0.50726  0.79409  1.0000
  C   C720      1.0  0.65307  0.49489  0.88527  1.0000
  P   P24       1.0  0.63076  0.49006  0.92718  1.0000
  H   H576      1.0  0.49356  0.48995  0.96599  1.0000
