data_image0
_chemical_formula_structural       FeS2FeSFeSFeS3FeCSHCS2C10H4C4H2C2H3CHCHC4HCH2C6H4PHCP2H4CH2SH2CH2CHCH2CH2CHCHC5HCHC6HCHC4HC4HCH2C2H2CHCHC3HC2FeCHC4HCHC2H2FeSFeS2FeSFeS3FeHSCHSC3HC7H4C3H3C3H2C2H3C4H2C2HC5HCPH2C4HCH4CHCHC4H3CHCH2CPC4HCHC2S2HC2FeC2H2C3HCH3CHCH3C3H4CH2CH2SFeHSCS2FeS2FeS2FeSFeS4C6H2CHC3HC7H6CHC2HSC2HC3H2CH2C7PC18H7CH12CH3CH2CH9C3HCH4C4HCH9CHCH2C6PC11HFeH2CH2CHCFeCSCHSFeS2FeS2FeSFeS3C7HCH2C3H2C6H4C4HC2H5C5HPC15HCH12C2HC6PC10HC7H2CH7CHCH5CHCHC3H3CH3CPCH2PCH3C2H3CHC2H5C4H2C3H4CH3C6H2C2H2C2HCHPH3CHCFeCHCSHC3HC5HC2FeS2FeS2FeSFeS3FeS2FeS2FeSFeS4FeS3CS2FeH2C3HC6H2PHC6H4C2H4C3HC6H4C6H4C2H3CPCHCH2C4HC3HCH2CHCH2C3HC7HCH2C2H3CHCHCH6PC3HCH2CHSC3HCHCH2C3H4C3H2C2PC5H2CH2CHC2SC3H2C5H4CPC2HC6HCFeH2C3H2C4H2CH7CH2CHCHCH2CHCFeHCH2CHC2HC2HC5HC5HCH3CHCHC3HCHCH2CHCFeHC2H2C3HC5H3CPC2H2CHPHC2H4C2HCHC2HC2HCHCH2C3FeH3CSHC3H5CHC5HCH3CH2CH4C9HFeS2FeS2FeSFeS3FeS2FeS2FeSFeS4FeSCSCSHFeHCHCHC6HPH2C6H4C3H4C2HC6H4C6H4C4H5PCHC3SH2CH5C6H3C5H2C2H3C3HCHCHC4HC2PC11HC2HC2HCH4C2H2C5H2C4HPC4HC10H3C2H2SCH2C2H12CHC4H3PCHC2H2CHC2HC7H2C2HCHCHFeC3HC2HC3SCFeC2HCH2FeCH5C3HC2SHCH2C2H5C2H6CHC2HCHCH3C2H2C3HCH2CHCHC2HCH2C2HSHCPH2CHC2H2C2HFeHSH2SPHSHFeSHFeS2FeS2FeSFeS3FeS2FeS2FeSFeS4C6H2CHC2H2C7H4C2H2PC3HC7H5C7H4CHC2H2CHC2HCH2C8SCSH2CHCHC3H4C3HCH2C6HC3PCH2C4H7C4HC5H2CHC2HCFeH2FeC3H2CHC4H2C2HC9H2CHC2H2PSHC2H2CFeCH2CHCH2CHC2H2CH2C2HCH2C4H2CHCHC2HCH2C2HC3HCH3CH3CH3CHC3H2CHPC4H2C3HCH5C2HC2H2CHC2H2SCHC5H5CHCSH2CHPCHC2HC5H3CH3CH2C3HC2HCH2C2SCHCSPFeSHFeS2FeS2FeSFeS3FeS2FeS2FeSFeS3C7H4C4HC6H4C3H2C3H2C6H6C6H4C3H2FeC4PC3HC3H2C6H4CH3CH3C2H2C3H3CHCSCHCHCHC2H2C4HC2HC3H2C2HC2SH7C5HC4HSCH3C2H4CPC2FeHCH4CFeC3HC2HSCHC2HC3H6CH2CHC3H2C5HC4HCHC2H2CH2C2SHCHC4PC3PC11PHCH3C2H8CH3C5H3C2SCHCHCH3CH5C4H2CHC7HCH2C2H5C6HC2H3CSHC2SCH4FeSCFeS2FeS2FeSFeS3C2H2C2H2C7H4CHC9H4C6PHCH2CH5CHC4H2C11PC7HCHFeC2H2C2H11C2HCH2CH3C3H2CHCHC2PC3H2CHCH2CHC4HCHCHC2SHCHC2SHCH2C5HCH4C2HCHCH2CPC3H2CH4CHC6H2C2H2CH5C3HCSPHSH2C2H6C6PC6H2C3H3C2H2CHCH3C3HSCSC2FeSHCFeS2FeS2FeSFeS3C3HC3H3C6H4PH2C8H4CHCHCHSC4H4CHCH3CH7CH2C2HCHC7HCH2CHC2H2C2PCH3CHCHCHCHC7H2CH3CH2CH4C2HC4HCHCHCHC2HCH2C2H2C4HFeC4H2C2H2CH2CH2CSCHCH2CSHPCHFeS2FeHFeSHCHFeCSC2S2CH3C3H2C2HC3HC4HC2H2CHSCH2CH2C4H2CHCHC3HC2PCSHCHCHCHCHCH3CHCSFeCSFeSFeSH2FeCH2C2SH3C5SH2C6H4CHCH2C4HCH3C4H3C2HC2HC2HC4H3CHCHSC3H6C2H5CH2PC2HC2HC2HC
_chemical_formula_sum              "Fe96 S192 C1440 H1152 P48"
_cell_length_a       62.0005
_cell_length_b       61.9555
_cell_length_c       37.7989
_cell_angle_alpha    89.9953
_cell_angle_beta     89.8594
_cell_angle_gamma    119.769

_space_group_name_H-M_alt    "P 1"
_space_group_IT_number       1

loop_
  _space_group_symop_operation_xyz
  'x, y, z'

loop_
  _atom_site_type_symbol
  _atom_site_label
  _atom_site_symmetry_multiplicity
  _atom_site_fract_x
  _atom_site_fract_y
  _atom_site_fract_z
  _atom_site_occupancy
  Fe  Fe1       1.0  0.08510  0.42318  0.34786  1.0000
  S   S1        1.0  0.08506  0.39798  0.30378  1.0000
  S   S2        1.0  0.07568  0.40890  0.40570  1.0000
  Fe  Fe2       1.0  0.09392  0.46429  0.29474  1.0000
  S   S3        1.0  0.09492  0.44235  0.24831  1.0000
  Fe  Fe3       1.0  0.06108  0.40979  0.27315  1.0000
  S   S4        1.0  0.02832  0.38854  0.23415  1.0000
  Fe  Fe4       1.0  0.11890  0.43221  0.28184  1.0000
  S   S5        1.0  0.15649  0.43817  0.25805  1.0000
  S   S6        1.0  0.05923  0.43249  0.31811  1.0000
  S   S7        1.0  0.11982  0.45661  0.32744  1.0000
  Fe  Fe5       1.0  0.27618  0.41855  0.19714  1.0000
  C   C1        1.0  0.28681  0.32367  0.39574  1.0000
  S   S8        1.0  0.23775  0.40344  0.22530  1.0000
  H   H1        1.0  0.15079  0.43341  0.33746  1.0000
  C   C2        1.0  0.98184  0.44638  0.18014  1.0000
  S   S9        1.0  0.28576  0.39584  0.15898  1.0000
  S   S10       1.0  0.30568  0.44046  0.06520  1.0000
  C   C3        1.0  0.11842  0.33893  0.43529  1.0000
  C   C4        1.0  0.24109  0.39419  0.07175  1.0000
  C   C5        1.0  0.19137  0.47713  0.15177  1.0000
  C   C6        1.0  0.98173  0.36779  0.20326  1.0000
  C   C7        1.0  0.17870  0.42799  0.24863  1.0000
  C   C8        1.0  0.20180  0.44467  0.23288  1.0000
  C   C9        1.0  0.21990  0.43759  0.22528  1.0000
  C   C10       1.0  0.21542  0.41362  0.23354  1.0000
  C   C11       1.0  0.19236  0.39697  0.24934  1.0000
  C   C12       1.0  0.17420  0.40398  0.25666  1.0000
  H   H2        1.0  0.20577  0.46331  0.22655  1.0000
  H   H3        1.0  0.23742  0.45079  0.21333  1.0000
  H   H4        1.0  0.18845  0.37839  0.25595  1.0000
  H   H5        1.0  0.15671  0.39080  0.26877  1.0000
  C   C13       1.0  0.08286  0.42130  0.44986  1.0000
  C   C14       1.0  0.20944  0.44013  0.03240  1.0000
  C   C15       1.0  0.10047  0.44611  0.45703  1.0000
  C   C16       1.0  0.02796  0.47059  0.30451  1.0000
  H   H6        1.0  0.11007  0.45866  0.43533  1.0000
  H   H7        1.0  0.99113  0.36232  0.29040  1.0000
  C   C17       1.0  0.99497  0.37131  0.23504  1.0000
  C   C18       1.0  0.08455  0.35557  0.40824  1.0000
  H   H8        1.0  0.25225  0.48384  0.16311  1.0000
  H   H9        1.0  0.19281  0.39672  0.35632  1.0000
  H   H10       1.0  0.99194  0.37584  0.17906  1.0000
  C   C19       1.0  0.28512  0.48407  0.09044  1.0000
  H   H11       1.0  0.24716  0.42740  0.04568  1.0000
  C   C20       1.0  0.13859  0.31983  0.46741  1.0000
  H   H12       1.0  0.23482  0.36325  0.10474  1.0000
  C   C21       1.0  0.30213  0.42948  0.02042  1.0000
  C   C22       1.0  0.23421  0.42568  0.09958  1.0000
  C   C23       1.0  0.06869  0.48006  0.13942  1.0000
  C   C24       1.0  0.22825  0.45976  0.05175  1.0000
  H   H13       1.0  0.16188  0.36940  0.40043  1.0000
  C   C25       1.0  0.22870  0.41240  0.13150  1.0000
  H   H14       1.0  0.28111  0.34215  0.35131  1.0000
  H   H15       1.0  0.09562  0.35555  0.35377  1.0000
  C   C26       1.0  0.24112  0.41674  0.06997  1.0000
  C   C27       1.0  0.00674  0.46734  0.32219  1.0000
  C   C28       1.0  0.23450  0.38054  0.10320  1.0000
  C   C29       1.0  0.22838  0.38968  0.13306  1.0000
  C   C30       1.0  0.24235  0.48311  0.03556  1.0000
  C   C31       1.0  0.13826  0.38581  0.39439  1.0000
  H   H16       1.0  0.24679  0.38764  0.04896  1.0000
  H   H17       1.0  0.18647  0.41422  0.12645  1.0000
  H   H18       1.0  0.08726  0.45845  0.13964  1.0000
  H   H19       1.0  0.04581  0.47432  0.25451  1.0000
  P   P1        1.0  0.00970  0.47041  0.20042  1.0000
  H   H20       1.0  0.25679  0.37175  0.28497  1.0000
  C   C32       1.0  0.15917  0.38331  0.38714  1.0000
  P   P2        1.0  0.23383  0.45463  0.09697  1.0000
  P   P3        1.0  0.11511  0.36577  0.42623  1.0000
  H   H21       1.0  0.02563  0.45544  0.08172  1.0000
  H   H22       1.0  0.11934  0.40624  0.38133  1.0000
  H   H23       1.0  0.29098  0.39153  0.03304  1.0000
  H   H24       1.0  0.99386  0.41309  0.28582  1.0000
  C   C33       1.0  0.10369  0.31635  0.41760  1.0000
  H   H25       1.0  0.29269  0.37281  0.25441  1.0000
  H   H26       1.0  0.05943  0.42887  0.18522  1.0000
  S   S11       1.0  0.29319  0.45178  0.16146  1.0000
  H   H27       1.0  0.04401  0.47322  0.31943  1.0000
  H   H28       1.0  0.26963  0.31968  0.40879  1.0000
  C   C34       1.0  0.17385  0.41695  0.34458  1.0000
  H   H29       1.0  0.99952  0.39516  0.34112  1.0000
  H   H30       1.0  0.15435  0.41493  0.16407  1.0000
  C   C35       1.0  0.17684  0.39881  0.36223  1.0000
  H   H31       1.0  0.22478  0.41958  0.15528  1.0000
  C   C36       1.0  0.99635  0.44119  0.04284  1.0000
  H   H32       1.0  0.29705  0.30639  0.43627  1.0000
  H   H33       1.0  0.13963  0.41943  0.44423  1.0000
  C   C37       1.0  0.03467  0.46718  0.18139  1.0000
  H   H34       1.0  0.09013  0.31462  0.39816  1.0000
  H   H35       1.0  0.26293  0.39399  0.34180  1.0000
  C   C38       1.0  0.18838  0.43196  0.13369  1.0000
  H   H36       1.0  0.05684  0.38630  0.47385  1.0000
  C   C39       1.0  0.05679  0.44410  0.17661  1.0000
  H   H37       1.0  0.28307  0.47474  0.06539  1.0000
  C   C40       1.0  0.20922  0.45441  0.12310  1.0000
  C   C41       1.0  0.00818  0.46758  0.24793  1.0000
  C   C42       1.0  0.15311  0.41948  0.35156  1.0000
  C   C43       1.0  0.07233  0.46064  0.15074  1.0000
  C   C44       1.0  0.26426  0.47814  0.11164  1.0000
  H   H38       1.0  0.22389  0.37942  0.15774  1.0000
  C   C45       1.0  0.29461  0.40473  0.01199  1.0000
  H   H39       1.0  0.02623  0.43430  0.21203  1.0000
  C   C46       1.0  0.27509  0.38142  0.29696  1.0000
  C   C47       1.0  0.08046  0.35174  0.37165  1.0000
  C   C48       1.0  0.27862  0.39411  0.32889  1.0000
  C   C49       1.0  0.13534  0.40399  0.37628  1.0000
  C   C50       1.0  0.98711  0.46486  0.26584  1.0000
  C   C51       1.0  0.17139  0.45477  0.16376  1.0000
  H   H40       1.0  0.00626  0.41688  0.11765  1.0000
  C   C52       1.0  0.03802  0.44730  0.19188  1.0000
  H   H41       1.0  0.05385  0.34109  0.32935  1.0000
  C   C53       1.0  0.05674  0.34334  0.35768  1.0000
  C   C54       1.0  0.29323  0.33631  0.36340  1.0000
  C   C55       1.0  0.29533  0.38201  0.27975  1.0000
  C   C56       1.0  0.00809  0.43973  0.07353  1.0000
  H   H42       1.0  0.98457  0.46864  0.13437  1.0000
  C   C57       1.0  0.30245  0.40768  0.34334  1.0000
  C   C58       1.0  0.13233  0.40859  0.46811  1.0000
  C   C59       1.0  0.10634  0.29566  0.42495  1.0000
  C   C60       1.0  0.16979  0.43221  0.15443  1.0000
  H   H43       1.0  0.19808  0.42210  0.04466  1.0000
  C   C61       1.0  0.03691  0.33854  0.38010  1.0000
  H   H44       1.0  0.15731  0.45489  0.18074  1.0000
  H   H45       1.0  0.30496  0.41796  0.36760  1.0000
  C   C62       1.0  0.30695  0.44631  0.99232  1.0000
  C   C63       1.0  0.04069  0.34175  0.41659  1.0000
  H   H46       1.0  0.30149  0.26892  0.44465  1.0000
  H   H47       1.0  0.18745  0.42895  0.32517  1.0000
  C   C64       1.0  0.21007  0.47696  0.13117  1.0000
  H   H48       1.0  0.09484  0.27826  0.41131  1.0000
  C   C65       1.0  0.02881  0.47092  0.26753  1.0000
  H   H49       1.0  0.01870  0.33267  0.36914  1.0000
  C   C66       1.0  0.99719  0.41798  0.09373  1.0000
  C   C67       1.0  0.04971  0.48313  0.15429  1.0000
  C   C68       1.0  0.06437  0.35004  0.43067  1.0000
  H   H50       1.0  0.00484  0.45810  0.02720  1.0000
  C   C69       1.0  0.20547  0.44349  0.99692  1.0000
  C   C70       1.0  0.30239  0.31596  0.41115  1.0000
  Fe  Fe6       1.0  0.30490  0.43061  0.12481  1.0000
  C   C71       1.0  0.98639  0.46472  0.30286  1.0000
  H   H51       1.0  0.00621  0.46705  0.35084  1.0000
  C   C72       1.0  0.07065  0.40543  0.47880  1.0000
  C   C73       1.0  0.98223  0.39513  0.33653  1.0000
  C   C74       1.0  0.98137  0.36037  0.26591  1.0000
  C   C75       1.0  0.11909  0.38248  0.46721  1.0000
  H   H52       1.0  0.02543  0.33845  0.43394  1.0000
  C   C76       1.0  0.97906  0.40536  0.30538  1.0000
  H   H53       1.0  0.06691  0.35279  0.45889  1.0000
  C   C77       1.0  0.12372  0.29737  0.44990  1.0000
  C   C78       1.0  0.13602  0.34057  0.46007  1.0000
  H   H54       1.0  0.12567  0.28128  0.45566  1.0000
  H   H55       1.0  0.14776  0.35790  0.47374  1.0000
  Fe  Fe7       1.0  0.08960  0.45616  0.69777  1.0000
  S   S12       1.0  0.07848  0.41924  0.72315  1.0000
  Fe  Fe8       1.0  0.09229  0.43672  0.62356  1.0000
  S   S13       1.0  0.08133  0.39866  0.64532  1.0000
  S   S14       1.0  0.10287  0.45053  0.56566  1.0000
  Fe  Fe9       1.0  0.05236  0.40260  0.67743  1.0000
  S   S15       1.0  0.01100  0.37199  0.68007  1.0000
  Fe  Fe10      1.0  0.10868  0.41884  0.68993  1.0000
  S   S16       1.0  0.13364  0.40617  0.71911  1.0000
  S   S17       1.0  0.06209  0.43963  0.65335  1.0000
  S   S18       1.0  0.12102  0.45671  0.66680  1.0000
  Fe  Fe11      1.0  0.27778  0.42991  0.77891  1.0000
  H   H56       1.0  0.25622  0.48463  0.76218  1.0000
  S   S19       1.0  0.24788  0.43510  0.74863  1.0000
  C   C79       1.0  0.03693  0.32244  0.83370  1.0000
  H   H57       1.0  0.07062  0.34575  0.66813  1.0000
  S   S20       1.0  0.27740  0.39522  0.79900  1.0000
  C   C80       1.0  0.02317  0.32952  0.72668  1.0000
  C   C81       1.0  0.17617  0.45167  0.79668  1.0000
  C   C82       1.0  0.06100  0.30937  0.88522  1.0000
  H   H58       1.0  0.00346  0.32315  0.72656  1.0000
  C   C83       1.0  0.00335  0.46772  0.65987  1.0000
  C   C84       1.0  0.16565  0.41455  0.72638  1.0000
  C   C85       1.0  0.17111  0.40078  0.75098  1.0000
  C   C86       1.0  0.19592  0.40677  0.75825  1.0000
  C   C87       1.0  0.21592  0.42665  0.74084  1.0000
  C   C88       1.0  0.21048  0.44045  0.71628  1.0000
  C   C89       1.0  0.18567  0.43450  0.70908  1.0000
  H   H59       1.0  0.15598  0.38530  0.76461  1.0000
  H   H60       1.0  0.19954  0.39584  0.77712  1.0000
  H   H61       1.0  0.22561  0.45586  0.70256  1.0000
  H   H62       1.0  0.18205  0.44539  0.69013  1.0000
  C   C90       1.0  0.07610  0.41401  0.51419  1.0000
  C   C91       1.0  0.09396  0.43873  0.52140  1.0000
  C   C92       1.0  0.25327  0.46574  0.89821  1.0000
  H   H63       1.0  0.06670  0.40139  0.53590  1.0000
  H   H64       1.0  0.05480  0.42132  0.79815  1.0000
  H   H65       1.0  0.98114  0.46992  0.53423  1.0000
  C   C93       1.0  0.98935  0.37730  0.74238  1.0000
  C   C94       1.0  0.98600  0.36467  0.71037  1.0000
  C   C95       1.0  0.00675  0.44710  0.65732  1.0000
  H   H66       1.0  0.00757  0.39242  0.74906  1.0000
  H   H67       1.0  0.02193  0.41984  0.83740  1.0000
  C   C96       1.0  0.06105  0.34239  0.69328  1.0000
  C   C97       1.0  0.02210  0.40290  0.83106  1.0000
  H   H68       1.0  0.09441  0.35542  0.72394  1.0000
  H   H69       1.0  0.04349  0.29845  0.79898  1.0000
  H   H70       1.0  0.01470  0.46720  0.88875  1.0000
  C   C98       1.0  0.30371  0.07904  0.72999  1.0000
  C   C99       1.0  0.19715  0.45747  0.81709  1.0000
  C   C100      1.0  0.24458  0.46233  0.86319  1.0000
  C   C101      1.0  0.12597  0.40788  0.53148  1.0000
  H   H71       1.0  0.16124  0.46285  0.75360  1.0000
  H   H72       1.0  0.15207  0.32118  0.48676  1.0000
  C   C102      1.0  0.29157  0.39694  0.97624  1.0000
  C   C103      1.0  0.30939  0.26870  0.49987  1.0000
  H   H73       1.0  0.98904  0.37947  0.86119  1.0000
  C   C104      1.0  0.23669  0.43933  0.84667  1.0000
  C   C105      1.0  0.23693  0.41987  0.86507  1.0000
  C   C106      1.0  0.24535  0.42331  0.89999  1.0000
  C   C107      1.0  0.25347  0.44622  0.91658  1.0000
  C   C108      1.0  0.98885  0.30541  0.79750  1.0000
  H   H74       1.0  0.99482  0.27696  0.82142  1.0000
  C   C109      1.0  0.10592  0.45470  0.49243  1.0000
  P   P4        1.0  0.02083  0.33012  0.80057  1.0000
  H   H75       1.0  0.05467  0.38272  0.78237  1.0000
  H   H76       1.0  0.05601  0.47302  0.87188  1.0000
  C   C110      1.0  0.00328  0.35814  0.83539  1.0000
  C   C111      1.0  0.00464  0.43317  0.68746  1.0000
  C   C112      1.0  0.99934  0.43990  0.72025  1.0000
  C   C113      1.0  0.04967  0.47333  0.81596  1.0000
  H   H77       1.0  0.23139  0.40237  0.85181  1.0000
  C   C114      1.0  0.00358  0.38016  0.84450  1.0000
  H   H78       1.0  0.19566  0.44467  0.83764  1.0000
  H   H79       1.0  0.15905  0.43427  0.80077  1.0000
  H   H80       1.0  0.06781  0.47619  0.80849  1.0000
  H   H81       1.0  0.07040  0.30442  0.90505  1.0000
  C   C115      1.0  0.05796  0.29980  0.85098  1.0000
  H   H82       1.0  0.23101  0.43664  0.81921  1.0000
  C   C116      1.0  0.98148  0.28140  0.81020  1.0000
  H   H83       1.0  0.98539  0.46471  0.84263  1.0000
  C   C117      1.0  0.01972  0.46816  0.86109  1.0000
  C   C118      1.0  0.99807  0.47458  0.69269  1.0000
  C   C119      1.0  0.17739  0.46785  0.77002  1.0000
  C   C120      1.0  0.03646  0.33469  0.75850  1.0000
  H   H84       1.0  0.03922  0.47441  0.76236  1.0000
  H   H85       1.0  0.24624  0.40843  0.91382  1.0000
  H   H86       1.0  0.26058  0.44896  0.94336  1.0000
  C   C121      1.0  0.04300  0.47153  0.85163  1.0000
  H   H87       1.0  0.11976  0.47385  0.49742  1.0000
  C   C122      1.0  0.26576  0.07399  0.75622  1.0000
  H   H88       1.0  0.26696  0.05348  0.71093  1.0000
  H   H89       1.0  0.98858  0.34065  0.84569  1.0000
  C   C123      1.0  0.11255  0.38193  0.53083  1.0000
  P   P5        1.0  0.98909  0.46887  0.76578  1.0000
  C   C124      1.0  0.07446  0.34786  0.72478  1.0000
  C   C125      1.0  0.30566  0.10389  0.78070  1.0000
  C   C126      1.0  0.06230  0.34426  0.75725  1.0000
  C   C127      1.0  0.27776  0.06744  0.73055  1.0000
  H   H90       1.0  0.01113  0.44190  0.63204  1.0000
  C   C128      1.0  0.03977  0.33174  0.86829  1.0000
  H   H91       1.0  0.24566  0.06504  0.75657  1.0000
  C   C129      1.0  0.03320  0.47200  0.78973  1.0000
  C   C130      1.0  0.29624  0.41372  0.94816  1.0000
  S   S21       1.0  0.29130  0.40232  0.90351  1.0000
  S   S22       1.0  0.29730  0.45236  0.82783  1.0000
  H   H92       1.0  0.27045  0.09757  0.80084  1.0000
  C   C131      1.0  0.03546  0.33336  0.69424  1.0000
  C   C132      1.0  0.27971  0.09228  0.78119  1.0000
  Fe  Fe12      1.0  0.29870  0.41857  0.84671  1.0000
  C   C133      1.0  0.04033  0.38169  0.79981  1.0000
  C   C134      1.0  0.05185  0.32528  0.89388  1.0000
  H   H93       1.0  0.12806  0.41779  0.55606  1.0000
  H   H94       1.0  0.99769  0.42880  0.74331  1.0000
  C   C135      1.0  0.04587  0.30618  0.82535  1.0000
  C   C136      1.0  0.99631  0.46083  0.72320  1.0000
  C   C137      1.0  0.00959  0.46819  0.79899  1.0000
  H   H95       1.0  0.00488  0.47831  0.63633  1.0000
  C   C138      1.0  0.04055  0.40369  0.80890  1.0000
  H   H96       1.0  0.05412  0.33261  0.92048  1.0000
  H   H97       1.0  0.28549  0.37768  0.97029  1.0000
  H   H98       1.0  0.00728  0.41717  0.68541  1.0000
  C   C139      1.0  0.00311  0.46664  0.83489  1.0000
  H   H99       1.0  0.10450  0.37173  0.55508  1.0000
  C   C140      1.0  0.21998  0.46659  0.98071  1.0000
  H   H100      1.0  0.03277  0.34401  0.87561  1.0000
  H   H101      1.0  0.07323  0.34935  0.78125  1.0000
  H   H102      1.0  0.02519  0.33007  0.66978  1.0000
  C   C141      1.0  0.02154  0.35870  0.81268  1.0000
  C   C142      1.0  0.30419  0.43858  0.95652  1.0000
  C   C143      1.0  0.13588  0.42117  0.50017  1.0000
  H   H103      1.0  0.06500  0.28741  0.84426  1.0000
  H   H104      1.0  0.29211  0.25176  0.50531  1.0000
  H   H105      1.0  0.30794  0.45180  0.93544  1.0000
  H   H106      1.0  0.14559  0.44132  0.50065  1.0000
  C   C144      1.0  0.21966  0.47948  0.81066  1.0000
  H   H107      1.0  0.26058  0.48361  0.91107  1.0000
  H   H108      1.0  0.09861  0.34914  0.49884  1.0000
  C   C145      1.0  0.10917  0.36925  0.49888  1.0000
  H   H109      1.0  0.21695  0.46904  0.95320  1.0000
  H   H110      1.0  0.19121  0.42812  0.98197  1.0000
  S   S23       1.0  0.09315  0.48437  0.73945  1.0000
  Fe  Fe13      1.0  0.28589  0.81957  0.27362  1.0000
  H   H111      1.0  0.99303  0.58837  0.17323  1.0000
  S   S24       1.0  0.25908  0.79155  0.23159  1.0000
  C   C146      1.0  0.03902  0.54538  0.19031  1.0000
  S   S25       1.0  0.27939  0.82596  0.40549  1.0000
  S   S26       1.0  0.28159  0.84871  0.30457  1.0000
  Fe  Fe14      1.0  0.06482  0.62012  0.18537  1.0000
  S   S27       1.0  0.06634  0.59928  0.13737  1.0000
  S   S28       1.0  0.03302  0.60712  0.22702  1.0000
  Fe  Fe15      1.0  0.12262  0.65860  0.18076  1.0000
  S   S29       1.0  0.12709  0.63938  0.13254  1.0000
  S   S30       1.0  0.15341  0.68935  0.21634  1.0000
  Fe  Fe16      1.0  0.09149  0.63665  0.11231  1.0000
  S   S31       1.0  0.08288  0.64428  0.05551  1.0000
  Fe  Fe17      1.0  0.10152  0.60320  0.16057  1.0000
  S   S32       1.0  0.10825  0.57013  0.16018  1.0000
  S   S33       1.0  0.08806  0.65788  0.15944  1.0000
  S   S34       1.0  0.09904  0.62216  0.20933  1.0000
  S   S35       1.0  0.09512  0.50170  0.29390  1.0000
  C   C147      1.0  0.10420  0.55104  0.19746  1.0000
  C   C148      1.0  0.09692  0.55554  0.23039  1.0000
  C   C149      1.0  0.09347  0.53972  0.25922  1.0000
  C   C150      1.0  0.09765  0.51952  0.25574  1.0000
  C   C151      1.0  0.10449  0.51470  0.22265  1.0000
  C   C152      1.0  0.10782  0.53046  0.19371  1.0000
  H   H112      1.0  0.09411  0.57128  0.23370  1.0000
  H   H113      1.0  0.08791  0.54338  0.28457  1.0000
  C   C153      1.0  0.30837  0.86168  0.45595  1.0000
  H   H114      1.0  0.11343  0.52681  0.16833  1.0000
  C   C154      1.0  0.08891  0.63800  0.01120  1.0000
  C   C155      1.0  0.10633  0.63054  0.00332  1.0000
  C   C156      1.0  0.25500  0.86674  0.46022  1.0000
  H   H115      1.0  0.11626  0.62769  0.02464  1.0000
  C   C157      1.0  0.10722  0.72269  0.99606  1.0000
  C   C158      1.0  0.22957  0.76308  0.22830  1.0000
  C   C159      1.0  0.21954  0.75388  0.19450  1.0000
  C   C160      1.0  0.19660  0.73147  0.19025  1.0000
  C   C161      1.0  0.18305  0.71767  0.21981  1.0000
  C   C162      1.0  0.19303  0.72692  0.25363  1.0000
  C   C163      1.0  0.21598  0.74932  0.25787  1.0000
  H   H116      1.0  0.22967  0.76413  0.17128  1.0000
  H   H117      1.0  0.18939  0.72490  0.16404  1.0000
  H   H118      1.0  0.18302  0.71657  0.27683  1.0000
  H   H119      1.0  0.22329  0.75572  0.28408  1.0000
  H   H120      1.0  0.30991  0.93159  0.23194  1.0000
  H   H121      1.0  0.26091  0.86799  0.43288  1.0000
  C   C164      1.0  0.11148  0.71796  0.03078  1.0000
  H   H122      1.0  0.30864  0.86228  0.09634  1.0000
  C   C165      1.0  0.99963  0.58901  0.22914  1.0000
  C   C166      1.0  0.07720  0.65698  0.28756  1.0000
  H   H123      1.0  0.99921  0.58614  0.28601  1.0000
  S   S36       1.0  0.30082  0.80844  0.32016  1.0000
  C   C167      1.0  0.12154  0.68367  0.29411  1.0000
  C   C168      1.0  0.98789  0.58133  0.26246  1.0000
  H   H124      1.0  0.08461  0.56807  0.36312  1.0000
  C   C169      1.0  0.03631  0.52186  0.19531  1.0000
  C   C170      1.0  0.99173  0.50329  0.18925  1.0000
  C   C171      1.0  0.01280  0.50059  0.19339  1.0000
  H   H125      1.0  0.08083  0.49305  0.11953  1.0000
  H   H126      1.0  0.14201  0.66607  0.31117  1.0000
  C   C172      1.0  0.07635  0.64164  0.98277  1.0000
  H   H127      1.0  0.12401  0.57745  0.32117  1.0000
  H   H128      1.0  0.02029  0.56617  0.18065  1.0000
  C   C173      1.0  0.29074  0.83685  0.44910  1.0000
  C   C174      1.0  0.15060  0.74632  0.22679  1.0000
  C   C175      1.0  0.15154  0.75055  0.19040  1.0000
  C   C176      1.0  0.16539  0.77473  0.17716  1.0000
  C   C177      1.0  0.17852  0.79465  0.20032  1.0000
  C   C178      1.0  0.17830  0.79042  0.23689  1.0000
  C   C179      1.0  0.16397  0.76611  0.25000  1.0000
  P   P6        1.0  0.19504  0.81619  0.26687  1.0000
  C   C180      1.0  0.20140  0.80449  0.30703  1.0000
  C   C181      1.0  0.22472  0.83873  0.24797  1.0000
  C   C182      1.0  0.23683  0.83116  0.22371  1.0000
  C   C183      1.0  0.26066  0.84802  0.21131  1.0000
  C   C184      1.0  0.27260  0.87267  0.22285  1.0000
  C   C185      1.0  0.26061  0.88050  0.24662  1.0000
  C   C186      1.0  0.23682  0.86365  0.25919  1.0000
  C   C187      1.0  0.18570  0.79842  0.33669  1.0000
  C   C188      1.0  0.19157  0.79056  0.36814  1.0000
  C   C189      1.0  0.21290  0.78832  0.37000  1.0000
  C   C190      1.0  0.22794  0.79326  0.34017  1.0000
  C   C191      1.0  0.22209  0.80105  0.30872  1.0000
  C   C192      1.0  0.17681  0.83095  0.27665  1.0000
  C   C193      1.0  0.18227  0.84627  0.30655  1.0000
  C   C194      1.0  0.16834  0.85785  0.31408  1.0000
  C   C195      1.0  0.14884  0.85423  0.29186  1.0000
  C   C196      1.0  0.14326  0.83900  0.26210  1.0000
  C   C197      1.0  0.15717  0.82741  0.25447  1.0000
  H   H129      1.0  0.14009  0.72748  0.23680  1.0000
  H   H130      1.0  0.14179  0.73495  0.17254  1.0000
  H   H131      1.0  0.16617  0.77795  0.14891  1.0000
  H   H132      1.0  0.18907  0.81330  0.18967  1.0000
  H   H133      1.0  0.16337  0.76223  0.27799  1.0000
  H   H134      1.0  0.22833  0.81196  0.21532  1.0000
  H   H135      1.0  0.27017  0.84164  0.19372  1.0000
  C   C198      1.0  0.99446  0.52692  0.18463  1.0000
  H   H136      1.0  0.25651  0.49871  0.05022  1.0000
  H   H137      1.0  0.22836  0.87012  0.27828  1.0000
  H   H138      1.0  0.16900  0.79982  0.33566  1.0000
  H   H139      1.0  0.17972  0.78635  0.39117  1.0000
  H   H140      1.0  0.21790  0.78280  0.39448  1.0000
  H   H141      1.0  0.24441  0.79138  0.34157  1.0000
  H   H142      1.0  0.23387  0.80454  0.28584  1.0000
  H   H143      1.0  0.19735  0.84932  0.32404  1.0000
  H   H144      1.0  0.17273  0.86972  0.33711  1.0000
  H   H145      1.0  0.13808  0.86325  0.29766  1.0000
  H   H146      1.0  0.12814  0.83620  0.24485  1.0000
  H   H147      1.0  0.15250  0.81575  0.23125  1.0000
  C   C199      1.0  0.30970  0.83950  0.13860  1.0000
  H   H148      1.0  0.04710  0.52700  0.35672  1.0000
  H   H149      1.0  0.02883  0.55097  0.26042  1.0000
  H   H150      1.0  0.23685  0.82685  0.46127  1.0000
  C   C200      1.0  0.07932  0.63660  0.29874  1.0000
  H   H151      1.0  0.10393  0.72324  0.05285  1.0000
  H   H152      1.0  0.14319  0.68745  0.01367  1.0000
  C   C201      1.0  0.12468  0.70551  0.03707  1.0000
  H   H153      1.0  0.26621  0.80138  0.47321  1.0000
  H   H154      1.0  0.06715  0.59119  0.26467  1.0000
  H   H155      1.0  0.09671  0.69609  0.27540  1.0000
  H   H156      1.0  0.04708  0.49810  0.14464  1.0000
  H   H157      1.0  0.16796  0.63517  0.22178  1.0000
  H   H158      1.0  0.13954  0.64204  0.25865  1.0000
  H   H159      1.0  0.29432  0.51441  0.18299  1.0000
  H   H160      1.0  0.12710  0.70087  0.06389  1.0000
  H   H161      1.0  0.13799  0.70180  0.29170  1.0000
  C   C202      1.0  0.10280  0.63935  0.30601  1.0000
  C   C203      1.0  0.26772  0.48920  0.14517  1.0000
  C   C204      1.0  0.29161  0.50649  0.15672  1.0000
  H   H162      1.0  0.10767  0.49915  0.21953  1.0000
  C   C205      1.0  0.13373  0.69790  0.00870  1.0000
  H   H163      1.0  0.15267  0.57084  0.28358  1.0000
  H   H164      1.0  0.15400  0.62799  0.35492  1.0000
  H   H165      1.0  0.16630  0.63626  0.41749  1.0000
  H   H166      1.0  0.05914  0.65432  0.28018  1.0000
  C   C206      1.0  0.98452  0.58254  0.19905  1.0000
  C   C207      1.0  0.30898  0.50122  0.10217  1.0000
  C   C208      1.0  0.01814  0.54790  0.18457  1.0000
  C   C209      1.0  0.09832  0.68047  0.28490  1.0000
  H   H167      1.0  0.29138  0.88553  0.21411  1.0000
  C   C210      1.0  0.13033  0.62907  0.43561  1.0000
  H   H168      1.0  0.27008  0.89950  0.25614  1.0000
  H   H169      1.0  0.06249  0.61888  0.30114  1.0000
  H   H170      1.0  0.05258  0.52026  0.20071  1.0000
  H   H171      1.0  0.09642  0.73182  0.99165  1.0000
  H   H172      1.0  0.08016  0.61264  0.38286  1.0000
  H   H173      1.0  0.01886  0.51846  0.30564  1.0000
  H   H174      1.0  0.29066  0.82479  0.13490  1.0000
  H   H175      1.0  0.13591  0.63288  0.46309  1.0000
  H   H176      1.0  0.05736  0.56169  0.19139  1.0000
  C   C211      1.0  0.12376  0.66327  0.30483  1.0000
  H   H177      1.0  0.09290  0.62119  0.44562  1.0000
  C   C212      1.0  0.27994  0.82059  0.47808  1.0000
  H   H178      1.0  0.27169  0.90631  0.46692  1.0000
  H   H179      1.0  0.17455  0.59943  0.23351  1.0000
  C   C213      1.0  0.05110  0.54143  0.33741  1.0000
  C   C214      1.0  0.03531  0.53649  0.30851  1.0000
  C   C215      1.0  0.04103  0.55472  0.28282  1.0000
  C   C216      1.0  0.06264  0.57780  0.28572  1.0000
  C   C217      1.0  0.07802  0.58346  0.31550  1.0000
  C   C218      1.0  0.07235  0.56483  0.34097  1.0000
  P   P7        1.0  0.10641  0.61314  0.31881  1.0000
  C   C219      1.0  0.11593  0.61909  0.36445  1.0000
  C   C220      1.0  0.12952  0.61030  0.29305  1.0000
  C   C221      1.0  0.13389  0.59054  0.30009  1.0000
  C   C222      1.0  0.15028  0.58680  0.27892  1.0000
  C   C223      1.0  0.16253  0.60283  0.25066  1.0000
  C   C224      1.0  0.15876  0.62288  0.24399  1.0000
  C   C225      1.0  0.14244  0.62670  0.26516  1.0000
  C   C226      1.0  0.14035  0.62609  0.37443  1.0000
  C   C227      1.0  0.14745  0.63095  0.40993  1.0000
  C   C228      1.0  0.10610  0.62245  0.42578  1.0000
  C   C229      1.0  0.09893  0.61758  0.39029  1.0000
  H   H180      1.0  0.06268  0.64713  0.98846  1.0000
  Fe  Fe18      1.0  0.29816  0.83842  0.35073  1.0000
  H   H181      1.0  0.22542  0.49446  0.12209  1.0000
  H   H182      1.0  0.19249  0.49459  0.15898  1.0000
  C   C230      1.0  0.24149  0.84348  0.47634  1.0000
  H   H183      1.0  0.04502  0.62395  0.46491  1.0000
  H   H184      1.0  0.97829  0.52915  0.18140  1.0000
  C   C231      1.0  0.26124  0.88829  0.47951  1.0000
  H   H185      1.0  0.24946  0.50440  0.98755  1.0000
  C   C232      1.0  0.23831  0.48644  0.00006  1.0000
  Fe  Fe19      1.0  0.28204  0.81944  0.68736  1.0000
  C   C233      1.0  0.03253  0.57558  0.66749  1.0000
  S   S37       1.0  0.25204  0.78000  0.70689  1.0000
  C   C234      1.0  0.01285  0.53724  0.63421  1.0000
  H   H186      1.0  0.03854  0.55937  0.74508  1.0000
  S   S38       1.0  0.27825  0.85131  0.66459  1.0000
  Fe  Fe20      1.0  0.05408  0.62787  0.78676  1.0000
  S   S39       1.0  0.06248  0.59886  0.80796  1.0000
  S   S40       1.0  0.01347  0.61974  0.78735  1.0000
  Fe  Fe21      1.0  0.11077  0.66608  0.77344  1.0000
  S   S41       1.0  0.12166  0.63858  0.79319  1.0000
  S   S42       1.0  0.13769  0.70629  0.75343  1.0000
  Fe  Fe22      1.0  0.08901  0.60970  0.76203  1.0000
  S   S43       1.0  0.08779  0.58346  0.71861  1.0000
  Fe  Fe23      1.0  0.09400  0.63020  0.83802  1.0000
  S   S44       1.0  0.10600  0.62635  0.89470  1.0000
  S   S45       1.0  0.07942  0.63762  0.73966  1.0000
  S   S46       1.0  0.08434  0.65884  0.81932  1.0000
  C   C235      1.0  0.12729  0.69407  0.88443  1.0000
  C   C236      1.0  0.08744  0.55504  0.72534  1.0000
  C   C237      1.0  0.08381  0.53951  0.69617  1.0000
  C   C238      1.0  0.08468  0.51734  0.70015  1.0000
  C   C239      1.0  0.08968  0.51082  0.73328  1.0000
  C   C240      1.0  0.09254  0.52598  0.76258  1.0000
  C   C241      1.0  0.09128  0.54793  0.75871  1.0000
  H   H187      1.0  0.08084  0.54491  0.67022  1.0000
  C   C242      1.0  0.26653  0.53685  0.86302  1.0000
  H   H188      1.0  0.09617  0.52095  0.78836  1.0000
  H   H189      1.0  0.09381  0.55962  0.78136  1.0000
  C   C243      1.0  0.23486  0.84172  0.51206  1.0000
  C   C244      1.0  0.09870  0.63082  0.93927  1.0000
  C   C245      1.0  0.08113  0.63807  0.94717  1.0000
  H   H190      1.0  0.12147  0.58659  0.88172  1.0000
  H   H191      1.0  0.07116  0.64086  0.92587  1.0000
  C   C246      1.0  0.22030  0.76015  0.72093  1.0000
  C   C247      1.0  0.20259  0.76794  0.72126  1.0000
  C   C248      1.0  0.17763  0.75128  0.73126  1.0000
  C   C249      1.0  0.16983  0.72658  0.74169  1.0000
  C   C250      1.0  0.18769  0.71899  0.74229  1.0000
  C   C251      1.0  0.21256  0.73552  0.73171  1.0000
  H   H192      1.0  0.20812  0.78682  0.71373  1.0000
  H   H193      1.0  0.16422  0.75762  0.73097  1.0000
  H   H194      1.0  0.18232  0.70035  0.75087  1.0000
  H   H195      1.0  0.22595  0.72917  0.73203  1.0000
  C   C252      1.0  0.03600  0.66343  0.92948  1.0000
  C   C253      1.0  0.04567  0.67294  0.86744  1.0000
  C   C254      1.0  0.02891  0.65873  0.89400  1.0000
  C   C255      1.0  0.98764  0.60083  0.75919  1.0000
  H   H196      1.0  0.25912  0.90344  0.52962  1.0000
  C   C256      1.0  0.99056  0.59177  0.72669  1.0000
  C   C257      1.0  0.28162  0.89768  0.59387  1.0000
  H   H197      1.0  0.00892  0.59598  0.71833  1.0000
  H   H198      1.0  0.04500  0.58689  0.68840  1.0000
  H   H199      1.0  0.03853  0.54477  0.67720  1.0000
  H   H200      1.0  0.11375  0.67767  0.89857  1.0000
  H   H201      1.0  0.18575  0.90574  0.59527  1.0000
  C   C258      1.0  0.24824  0.51179  0.86726  1.0000
  C   C259      1.0  0.29563  0.50121  0.75682  1.0000
  C   C260      1.0  0.00072  0.54658  0.61336  1.0000
  C   C261      1.0  0.30032  0.91441  0.61639  1.0000
  C   C262      1.0  0.24193  0.86333  0.53205  1.0000
  H   H202      1.0  0.08231  0.50574  0.67744  1.0000
  P   P8        1.0  0.23276  0.86123  0.57794  1.0000
  C   C263      1.0  0.20520  0.86406  0.57803  1.0000
  C   C264      1.0  0.22673  0.83207  0.59717  1.0000
  C   C265      1.0  0.20681  0.81902  0.62072  1.0000
  C   C266      1.0  0.20319  0.79708  0.63671  1.0000
  C   C267      1.0  0.21968  0.78833  0.62991  1.0000
  C   C268      1.0  0.23976  0.80145  0.60700  1.0000
  C   C269      1.0  0.24331  0.82327  0.59082  1.0000
  C   C270      1.0  0.20630  0.88642  0.58799  1.0000
  C   C271      1.0  0.18484  0.88849  0.58736  1.0000
  C   C272      1.0  0.16226  0.86840  0.57636  1.0000
  C   C273      1.0  0.16116  0.84628  0.56568  1.0000
  C   C274      1.0  0.18260  0.84416  0.56626  1.0000
  C   C275      1.0  0.25684  0.88456  0.60547  1.0000
  C   C276      1.0  0.13271  0.77036  0.93629  1.0000
  C   C277      1.0  0.13577  0.79427  0.93459  1.0000
  H   H203      1.0  0.29459  0.49666  0.72897  1.0000
  C   C278      1.0  0.25116  0.88811  0.64025  1.0000
  H   H204      1.0  0.15183  0.80974  0.94671  1.0000
  H   H205      1.0  0.22452  0.82348  0.52397  1.0000
  H   H206      1.0  0.19439  0.82595  0.62741  1.0000
  H   H207      1.0  0.18793  0.78709  0.65507  1.0000
  H   H208      1.0  0.21729  0.77173  0.64312  1.0000
  H   H209      1.0  0.25298  0.79510  0.60258  1.0000
  H   H210      1.0  0.25936  0.83370  0.57405  1.0000
  H   H211      1.0  0.22370  0.90233  0.59597  1.0000
  H   H212      1.0  0.08393  0.78138  0.88777  1.0000
  H   H213      1.0  0.14565  0.87004  0.57589  1.0000
  H   H214      1.0  0.21615  0.51837  0.93595  1.0000
  H   H215      1.0  0.18157  0.82700  0.55757  1.0000
  C   C279      1.0  0.05997  0.68215  0.93843  1.0000
  C   C280      1.0  0.07713  0.69615  0.91184  1.0000
  H   H216      1.0  0.23238  0.87739  0.65034  1.0000
  C   C281      1.0  0.14294  0.55061  0.67726  1.0000
  C   C282      1.0  0.14586  0.53062  0.68786  1.0000
  C   C283      1.0  0.15863  0.53219  0.71899  1.0000
  C   C284      1.0  0.16862  0.55383  0.73946  1.0000
  C   C285      1.0  0.16552  0.57393  0.72922  1.0000
  C   C286      1.0  0.15246  0.57209  0.69800  1.0000
  P   P9        1.0  0.17849  0.60169  0.75617  1.0000
  C   C287      1.0  0.16083  0.59653  0.79653  1.0000
  C   C288      1.0  0.21029  0.61040  0.76600  1.0000
  C   C289      1.0  0.22080  0.62050  0.79901  1.0000
  C   C290      1.0  0.24556  0.62744  0.80602  1.0000
  C   C291      1.0  0.25997  0.62436  0.78018  1.0000
  C   C292      1.0  0.24964  0.61433  0.74727  1.0000
  C   C293      1.0  0.22491  0.60742  0.74014  1.0000
  C   C294      1.0  0.16306  0.61698  0.81568  1.0000
  C   C295      1.0  0.14916  0.61332  0.84652  1.0000
  C   C296      1.0  0.09442  0.75436  0.90301  1.0000
  H   H217      1.0  0.02310  0.65223  0.95009  1.0000
  C   C297      1.0  0.14452  0.57239  0.80887  1.0000
  C   C298      1.0  0.17772  0.62670  0.73261  1.0000
  C   C299      1.0  0.15499  0.62619  0.72867  1.0000
  C   C300      1.0  0.15384  0.64538  0.71095  1.0000
  C   C301      1.0  0.17546  0.66540  0.69725  1.0000
  C   C302      1.0  0.19827  0.66624  0.70132  1.0000
  C   C303      1.0  0.19945  0.64692  0.71884  1.0000
  H   H218      1.0  0.13253  0.54911  0.65352  1.0000
  H   H219      1.0  0.14140  0.67383  0.85545  1.0000
  C   C304      1.0  0.11201  0.75022  0.92052  1.0000
  H   H220      1.0  0.17841  0.55472  0.76359  1.0000
  H   H221      1.0  0.14930  0.58695  0.68955  1.0000
  H   H222      1.0  0.21005  0.62312  0.81940  1.0000
  H   H223      1.0  0.26082  0.61199  0.72719  1.0000
  H   H224      1.0  0.21723  0.59986  0.71438  1.0000
  H   H225      1.0  0.17526  0.63579  0.80653  1.0000
  H   H226      1.0  0.15058  0.62913  0.86089  1.0000
  C   C305      1.0  0.13047  0.56881  0.83959  1.0000
  H   H227      1.0  0.13763  0.51365  0.67242  1.0000
  C   C306      1.0  0.12907  0.71722  0.89068  1.0000
  H   H228      1.0  0.13811  0.61088  0.73943  1.0000
  H   H229      1.0  0.13614  0.64482  0.70822  1.0000
  H   H230      1.0  0.17456  0.68049  0.68408  1.0000
  H   H231      1.0  0.21505  0.68202  0.69116  1.0000
  H   H232      1.0  0.21731  0.64803  0.72179  1.0000
  C   C307      1.0  0.14608  0.73793  0.87074  1.0000
  H   H233      1.0  0.27780  0.81622  0.53508  1.0000
  C   C308      1.0  0.02880  0.55176  0.66124  1.0000
  H   H234      1.0  0.17108  0.71041  0.82000  1.0000
  C   C309      1.0  0.29145  0.75534  0.69638  1.0000
  C   C310      1.0  0.00449  0.54967  0.77234  1.0000
  C   C311      1.0  0.13272  0.58927  0.85832  1.0000
  H   H235      1.0  0.04020  0.66900  0.83988  1.0000
  H   H236      1.0  0.00860  0.56877  0.77482  1.0000
  H   H237      1.0  0.11745  0.55015  0.84850  1.0000
  C   C312      1.0  0.25435  0.88659  0.51513  1.0000
  H   H238      1.0  0.30769  0.73634  0.62174  1.0000
  H   H239      1.0  0.14205  0.55624  0.79454  1.0000
  H   H240      1.0  0.27918  0.62983  0.78563  1.0000
  C   C313      1.0  0.15967  0.71240  0.84005  1.0000
  P   P10       1.0  0.10857  0.71956  0.92268  1.0000
  C   C314      1.0  0.06969  0.69159  0.87629  1.0000
  H   H241      1.0  0.03020  0.51617  0.74091  1.0000
  H   H242      1.0  0.26567  0.90722  0.68981  1.0000
  P   P11       1.0  0.24660  0.48804  0.83799  1.0000
  C   C315      1.0  0.16120  0.73543  0.84539  1.0000
  H   H243      1.0  0.07833  0.73923  0.89055  1.0000
  H   H244      1.0  0.14750  0.75590  0.87404  1.0000
  H   H245      1.0  0.16023  0.51636  0.72756  1.0000
  C   C316      1.0  0.02135  0.54434  0.75549  1.0000
  C   C317      1.0  0.01646  0.51980  0.75307  1.0000
  H   H246      1.0  0.01019  0.51892  0.62911  1.0000
  H   H247      1.0  0.17382  0.75119  0.82930  1.0000
  H   H248      1.0  0.28682  0.89450  0.56790  1.0000
  C   C318      1.0  0.26991  0.90494  0.66269  1.0000
  H   H249      1.0  0.27226  0.72348  0.66255  1.0000
  C   C319      1.0  0.02464  0.58911  0.54010  1.0000
  C   C320      1.0  0.99435  0.50028  0.76714  1.0000
  H   H250      1.0  0.28026  0.54254  0.84212  1.0000
  H   H251      1.0  0.25360  0.63533  0.83150  1.0000
  H   H252      1.0  0.01053  0.64389  0.88694  1.0000
  H   H253      1.0  0.24946  0.56236  0.92963  1.0000
  H   H254      1.0  0.27567  0.74992  0.71383  1.0000
  C   C321      1.0  0.23039  0.52348  0.91587  1.0000
  C   C322      1.0  0.14283  0.69178  0.85975  1.0000
  C   C323      1.0  0.02044  0.58498  0.64671  1.0000
  C   C324      1.0  0.11819  0.79825  0.91714  1.0000
  H   H255      1.0  0.02788  0.57613  0.55513  1.0000
  H   H256      1.0  0.08259  0.70216  0.85530  1.0000
  C   C325      1.0  0.00442  0.57056  0.61940  1.0000
  C   C326      1.0  0.28635  0.82903  0.51331  1.0000
  C   C327      1.0  0.00607  0.64869  0.63860  1.0000
  H   H257      1.0  0.02255  0.66652  0.64317  1.0000
  H   H258      1.0  0.02368  0.60343  0.65241  1.0000
  H   H259      1.0  0.02545  0.63445  0.60799  1.0000
  H   H260      1.0  0.14656  0.76755  0.94969  1.0000
  C   C328      1.0  0.22984  0.50534  0.89326  1.0000
  H   H261      1.0  0.13608  0.69566  0.95273  1.0000
  H   H262      1.0  0.98226  0.65753  0.66966  1.0000
  H   H263      1.0  0.14371  0.83077  0.55685  1.0000
  C   C329      1.0  0.09754  0.77830  0.90137  1.0000
  C   C330      1.0  0.00717  0.59579  0.55146  1.0000
  C   C331      1.0  0.00763  0.63046  0.61872  1.0000
  C   C332      1.0  0.11607  0.71491  0.96729  1.0000
  C   C333      1.0  0.26706  0.55497  0.88569  1.0000
  C   C334      1.0  0.03453  0.61614  0.48906  1.0000
  H   H264      1.0  0.99533  0.49048  0.69415  1.0000
  H   H265      1.0  0.12059  0.81679  0.91576  1.0000
  C   C335      1.0  0.27476  0.49906  0.81233  1.0000
  C   C336      1.0  0.22057  0.49592  0.78434  1.0000
  H   H266      1.0  0.06509  0.68513  0.96604  1.0000
  H   H267      1.0  0.12482  0.62144  0.96219  1.0000
  C   C337      1.0  0.98338  0.64368  0.65348  1.0000
  C   C338      1.0  0.29445  0.91813  0.65071  1.0000
  H   H268      1.0  0.01427  0.63595  0.48476  1.0000
  C   C339      1.0  0.24909  0.54827  0.91222  1.0000
  H   H269      1.0  0.98868  0.53522  0.59226  1.0000
  P   P12       1.0  0.98924  0.58269  0.59133  1.0000
  H   H270      1.0  0.28134  0.57426  0.88250  1.0000
  H   H271      1.0  0.23759  0.51321  0.77941  1.0000
  H   H272      1.0  0.30902  0.93071  0.66842  1.0000
  C   C340      1.0  0.03826  0.59928  0.50900  1.0000
  H   H273      1.0  0.20051  0.50236  0.74292  1.0000
  C   C341      1.0  0.30337  0.85406  0.52016  1.0000
  Fe  Fe24      1.0  0.30581  0.85398  0.62244  1.0000
  C   C342      1.0  0.11120  0.62706  0.96771  1.0000
  H   H274      1.0  0.29899  0.51298  0.85789  1.0000
  C   C343      1.0  0.00360  0.61283  0.53135  1.0000
  S   S47       1.0  0.30828  0.82136  0.64357  1.0000
  H   H275      1.0  0.99014  0.61816  0.53959  1.0000
  C   C344      1.0  0.28957  0.74044  0.66749  1.0000
  C   C345      1.0  0.98279  0.53050  0.78721  1.0000
  C   C346      1.0  0.29787  0.51025  0.82952  1.0000
  H   H276      1.0  0.05172  0.59405  0.50038  1.0000
  C   C347      1.0  0.01721  0.62291  0.50025  1.0000
  C   C348      1.0  0.12940  0.70245  0.97395  1.0000
  C   C349      1.0  0.98650  0.60698  0.61383  1.0000
  C   C350      1.0  0.27381  0.49446  0.77585  1.0000
  C   C351      1.0  0.19956  0.48999  0.76388  1.0000
  H   H277      1.0  0.21493  0.48627  0.89572  1.0000
  C   C352      1.0  0.97790  0.50593  0.78518  1.0000
  C   C353      1.0  0.30978  0.74777  0.64452  1.0000
  Fe  Fe25      1.0  0.45288  0.08188  0.19320  1.0000
  S   S48       1.0  0.42237  0.08378  0.22287  1.0000
  S   S49       1.0  0.47702  0.07105  0.22515  1.0000
  Fe  Fe26      1.0  0.43191  0.08448  0.11979  1.0000
  S   S50       1.0  0.39982  0.08641  0.14523  1.0000
  S   S51       1.0  0.44299  0.08267  0.06174  1.0000
  Fe  Fe27      1.0  0.42796  0.11412  0.18423  1.0000
  S   S52       1.0  0.43772  0.15447  0.20035  1.0000
  Fe  Fe28      1.0  0.39702  0.05602  0.18252  1.0000
  S   S53       1.0  0.36121  0.01941  0.19603  1.0000
  S   S54       1.0  0.46025  0.11339  0.15669  1.0000
  S   S55       1.0  0.42730  0.05298  0.15480  1.0000
  Fe  Fe29      1.0  0.40262  0.31172  0.29344  1.0000
  S   S56       1.0  0.43830  0.34242  0.31554  1.0000
  S   S57       1.0  0.36803  0.31639  0.28778  1.0000
  Fe  Fe30      1.0  0.42437  0.27550  0.28658  1.0000
  S   S58       1.0  0.46172  0.30501  0.30740  1.0000
  S   S59       1.0  0.41167  0.23413  0.27224  1.0000
  Fe  Fe31      1.0  0.44008  0.31307  0.34908  1.0000
  S   S60       1.0  0.45485  0.32181  0.40676  1.0000
  Fe  Fe32      1.0  0.45687  0.33214  0.27291  1.0000
  S   S61       1.0  0.48129  0.36198  0.23282  1.0000
  S   S62       1.0  0.40301  0.28267  0.32970  1.0000
  S   S63       1.0  0.42090  0.30228  0.24938  1.0000
  S   S64       1.0  0.59663  0.44199  0.23574  1.0000
  Fe  Fe33      1.0  0.61322  0.10174  0.26644  1.0000
  S   S65       1.0  0.59420  0.11956  0.23658  1.0000
  S   S66       1.0  0.59949  0.01336  0.27927  1.0000
  S   S67       1.0  0.59702  0.07153  0.30734  1.0000
  C   C354      1.0  0.54993  0.10414  0.39022  1.0000
  S   S68       1.0  0.34159  0.44452  0.15260  1.0000
  S   S69       1.0  0.34684  0.39350  0.20117  1.0000
  Fe  Fe34      1.0  0.32891  0.46366  0.19065  1.0000
  H   H278      1.0  0.49657  0.43428  0.27590  1.0000
  H   H279      1.0  0.38428  0.28790  0.15272  1.0000
  C   C355      1.0  0.32445  0.32063  0.39403  1.0000
  C   C356      1.0  0.48726  0.14205  0.24762  1.0000
  C   C357      1.0  0.44704  0.15272  0.09818  1.0000
  H   H280      1.0  0.60832  0.00954  0.20300  1.0000
  C   C358      1.0  0.36210  0.33703  0.26173  1.0000
  C   C359      1.0  0.37984  0.35486  0.23899  1.0000
  C   C360      1.0  0.37448  0.37141  0.22022  1.0000
  C   C361      1.0  0.35153  0.37072  0.22401  1.0000
  C   C362      1.0  0.33351  0.35232  0.24589  1.0000
  C   C363      1.0  0.33874  0.33557  0.26437  1.0000
  H   H281      1.0  0.39779  0.35609  0.23612  1.0000
  H   H282      1.0  0.38834  0.38513  0.20298  1.0000
  P   P13       1.0  0.49415  0.10697  0.33551  1.0000
  H   H283      1.0  0.32454  0.32133  0.28088  1.0000
  C   C364      1.0  0.51336  0.38412  0.23471  1.0000
  C   C365      1.0  0.52388  0.40163  0.20720  1.0000
  C   C366      1.0  0.54920  0.41986  0.20760  1.0000
  C   C367      1.0  0.56442  0.42033  0.23513  1.0000
  C   C368      1.0  0.55402  0.40257  0.26239  1.0000
  C   C369      1.0  0.52853  0.38463  0.26237  1.0000
  H   H284      1.0  0.51239  0.40109  0.18537  1.0000
  H   H285      1.0  0.55705  0.43328  0.18634  1.0000
  H   H286      1.0  0.56576  0.40270  0.28361  1.0000
  H   H287      1.0  0.52070  0.37112  0.28352  1.0000
  C   C370      1.0  0.41518  0.30154  0.45514  1.0000
  C   C371      1.0  0.44089  0.31324  0.44994  1.0000
  H   H288      1.0  0.34399  0.41580  0.07481  1.0000
  H   H289      1.0  0.40317  0.29629  0.43242  1.0000
  H   H290      1.0  0.46393  0.07982  0.99531  1.0000
  H   H291      1.0  0.58492  0.10958  0.37031  1.0000
  C   C372      1.0  0.42671  0.14378  0.07544  1.0000
  C   C373      1.0  0.54047  0.11188  0.32050  1.0000
  C   C374      1.0  0.44476  0.27170  0.19113  1.0000
  H   H292      1.0  0.47604  0.32737  0.47669  1.0000
  C   C375      1.0  0.56161  0.10566  0.23236  1.0000
  C   C376      1.0  0.55145  0.11843  0.21445  1.0000
  C   C377      1.0  0.52551  0.10802  0.21144  1.0000
  C   C378      1.0  0.50964  0.08472  0.22632  1.0000
  C   C379      1.0  0.51984  0.07195  0.24402  1.0000
  C   C380      1.0  0.54569  0.08244  0.24725  1.0000
  H   H293      1.0  0.56370  0.13657  0.20326  1.0000
  H   H294      1.0  0.51780  0.11812  0.19817  1.0000
  H   H295      1.0  0.50764  0.05392  0.25548  1.0000
  H   H296      1.0  0.55336  0.07279  0.26165  1.0000
  C   C381      1.0  0.43021  0.17603  0.22182  1.0000
  C   C382      1.0  0.40649  0.16899  0.23524  1.0000
  C   C383      1.0  0.40130  0.18690  0.25045  1.0000
  C   C384      1.0  0.41969  0.21222  0.25310  1.0000
  C   C385      1.0  0.44353  0.21918  0.24020  1.0000
  C   C386      1.0  0.44863  0.20133  0.22455  1.0000
  H   H297      1.0  0.39198  0.14975  0.23349  1.0000
  H   H298      1.0  0.38281  0.18104  0.26027  1.0000
  H   H299      1.0  0.45811  0.23834  0.24227  1.0000
  H   H300      1.0  0.46708  0.20721  0.21453  1.0000
  C   C387      1.0  0.43363  0.08321  0.01704  1.0000
  C   C388      1.0  0.41272  0.08518  0.00846  1.0000
  H   H301      1.0  0.34060  0.22869  0.33886  1.0000
  H   H302      1.0  0.40116  0.08581  0.02945  1.0000
  H   H303      1.0  0.38153  0.26316  0.00561  1.0000
  C   C389      1.0  0.48631  0.13970  0.37765  1.0000
  P   P14       1.0  0.40268  0.25269  0.14898  1.0000
  C   C390      1.0  0.35660  0.99157  0.21746  1.0000
  H   H304      1.0  0.55700  0.26889  0.00492  1.0000
  C   C391      1.0  0.42361  0.37981  0.40888  1.0000
  H   H305      1.0  0.31290  0.46554  0.99831  1.0000
  H   H306      1.0  0.53623  0.15656  0.32084  1.0000
  C   C392      1.0  0.34321  0.28477  0.38924  1.0000
  C   C393      1.0  0.43319  0.27641  0.16271  1.0000
  C   C394      1.0  0.56290  0.11291  0.32908  1.0000
  C   C395      1.0  0.52750  0.10324  0.38180  1.0000
  H   H307      1.0  0.47628  0.28654  0.22602  1.0000
  C   C396      1.0  0.35415  0.26446  0.23053  1.0000
  C   C397      1.0  0.46567  0.47186  0.28133  1.0000
  C   C398      1.0  0.47655  0.14581  0.40692  1.0000
  H   H308      1.0  0.47959  0.16453  0.40975  1.0000
  C   C399      1.0  0.48219  0.11540  0.37356  1.0000
  H   H309      1.0  0.43530  0.30487  0.12720  1.0000
  H   H310      1.0  0.43560  0.25386  0.20428  1.0000
  C   C400      1.0  0.35313  0.42312  0.39047  1.0000
  H   H311      1.0  0.35728  0.24471  0.11334  1.0000
  C   C401      1.0  0.35967  0.24537  0.23544  1.0000
  H   H312      1.0  0.59622  0.05419  0.16944  1.0000
  H   H313      1.0  0.46459  0.07845  0.39650  1.0000
  C   C402      1.0  0.35306  0.42010  0.04914  1.0000
  C   C403      1.0  0.52111  0.19772  0.02389  1.0000
  C   C404      1.0  0.47926  0.31378  0.18794  1.0000
  H   H314      1.0  0.34797  0.33772  0.34815  1.0000
  C   C405      1.0  0.47654  0.44729  0.21246  1.0000
  C   C406      1.0  0.58312  0.37461  0.21225  1.0000
  C   C407      1.0  0.57923  0.35345  0.23071  1.0000
  C   C408      1.0  0.59931  0.34987  0.23816  1.0000
  C   C409      1.0  0.62325  0.36733  0.22679  1.0000
  C   C410      1.0  0.62716  0.38817  0.20699  1.0000
  C   C411      1.0  0.60701  0.39211  0.20097  1.0000
  H   H315      1.0  0.32929  0.45452  0.31253  1.0000
  C   C412      1.0  0.46817  0.09736  0.39921  1.0000
  H   H316      1.0  0.32537  0.37605  0.45081  1.0000
  H   H317      1.0  0.55251  0.45709  0.43100  1.0000
  C   C413      1.0  0.37368  0.24119  0.21014  1.0000
  C   C414      1.0  0.46777  0.29023  0.20355  1.0000
  H   H318      1.0  0.35925  0.29490  0.19749  1.0000
  H   H319      1.0  0.42461  0.38766  0.16730  1.0000
  H   H320      1.0  0.41877  0.42416  0.17656  1.0000
  C   C415      1.0  0.53352  0.02118  0.39037  1.0000
  H   H321      1.0  0.63847  0.01994  0.40257  1.0000
  C   C416      1.0  0.37214  0.25137  0.09398  1.0000
  H   H322      1.0  0.46587  0.10655  0.27209  1.0000
  C   C417      1.0  0.46141  0.40558  0.18951  1.0000
  H   H323      1.0  0.56773  0.37788  0.20748  1.0000
  H   H324      1.0  0.56073  0.34018  0.23998  1.0000
  H   H325      1.0  0.59638  0.33382  0.25341  1.0000
  H   H326      1.0  0.55582  0.98806  0.33792  1.0000
  H   H327      1.0  0.60974  0.40900  0.18833  1.0000
  H   H328      1.0  0.35928  0.27397  0.43185  1.0000
  P   P15       1.0  0.34511  0.31099  0.41304  1.0000
  C   C418      1.0  0.58860  0.98786  0.24847  1.0000
  C   C419      1.0  0.39461  0.17453  0.15031  1.0000
  C   C420      1.0  0.52699  0.16990  0.27414  1.0000
  H   H329      1.0  0.49675  0.32841  0.19826  1.0000
  C   C421      1.0  0.38563  0.26151  0.03302  1.0000
  H   H330      1.0  0.52806  0.42655  0.30353  1.0000
  H   H331      1.0  0.62264  0.46569  0.00114  1.0000
  C   C422      1.0  0.40951  0.26677  0.04265  1.0000
  H   H332      1.0  0.32653  0.38390  0.38674  1.0000
  S   S70       1.0  0.62617  0.10538  0.39756  1.0000
  C   C423      1.0  0.56760  0.10900  0.36387  1.0000
  C   C424      1.0  0.39626  0.25732  0.10400  1.0000
  C   C425      1.0  0.42048  0.21923  0.14517  1.0000
  H   H333      1.0  0.45496  0.13252  0.45482  1.0000
  C   C426      1.0  0.36693  0.25372  0.05865  1.0000
  H   H334      1.0  0.34838  0.38361  0.04162  1.0000
  C   C427      1.0  0.59053  0.01788  0.44952  1.0000
  H   H335      1.0  0.49677  0.15395  0.35823  1.0000
  H   H336      1.0  0.51003  0.11130  0.12478  1.0000
  C   C428      1.0  0.54624  0.17257  0.07108  1.0000
  C   C429      1.0  0.55852  0.16631  0.09668  1.0000
  C   C430      1.0  0.35063  0.24972  0.38731  1.0000
  H   H337      1.0  0.57812  0.17856  0.10161  1.0000
  H   H338      1.0  0.44749  0.08951  0.44800  1.0000
  H   H339      1.0  0.45659  0.45196  0.27732  1.0000
  H   H340      1.0  0.49992  0.20649  0.06119  1.0000
  C   C431      1.0  0.53208  0.42055  0.40817  1.0000
  C   C432      1.0  0.51604  0.39532  0.41472  1.0000
  C   C433      1.0  0.38955  0.47861  0.33891  1.0000
  H   H341      1.0  0.53848  0.42692  0.38143  1.0000
  H   H342      1.0  0.50988  0.38200  0.39315  1.0000
  C   C434      1.0  0.56869  0.01528  0.16726  1.0000
  C   C435      1.0  0.47372  0.15554  0.04898  1.0000
  P   P16       1.0  0.54879  0.02124  0.43109  1.0000
  C   C436      1.0  0.51117  0.02160  0.32604  1.0000
  C   C437      1.0  0.53244  0.04297  0.33753  1.0000
  C   C438      1.0  0.54354  0.04281  0.36961  1.0000
  C   C439      1.0  0.45444  0.44625  0.20136  1.0000
  C   C440      1.0  0.43583  0.42487  0.18496  1.0000
  H   H343      1.0  0.51314  0.12324  0.01266  1.0000
  H   H344      1.0  0.57786  0.01124  0.14597  1.0000
  C   C441      1.0  0.58840  0.02736  0.38789  1.0000
  H   H345      1.0  0.33467  0.39668  0.27922  1.0000
  H   H346      1.0  0.44211  0.39591  0.40836  1.0000
  C   C442      1.0  0.53525  0.00101  0.21053  1.0000
  H   H347      1.0  0.54793  0.00098  0.28070  1.0000
  C   C443      1.0  0.53171  0.42931  0.47066  1.0000
  C   C444      1.0  0.36190  0.44373  0.03455  1.0000
  S   S71       1.0  0.31159  0.43166  0.22878  1.0000
  C   C445      1.0  0.39618  0.33584  0.39813  1.0000
  C   C446      1.0  0.41998  0.35675  0.39779  1.0000
  C   C447      1.0  0.31922  0.39574  0.29391  1.0000
  H   H348      1.0  0.41817  0.39985  0.27515  1.0000
  H   H349      1.0  0.41399  0.13365  0.02183  1.0000
  C   C448      1.0  0.63115  0.17203  0.33862  1.0000
  C   C449      1.0  0.38004  0.40214  0.33820  1.0000
  C   C450      1.0  0.53230  0.05249  0.45747  1.0000
  C   C451      1.0  0.54583  0.02536  0.22369  1.0000
  C   C452      1.0  0.36769  0.44259  0.41389  1.0000
  H   H350      1.0  0.50300  0.02157  0.30073  1.0000
  H   H351      1.0  0.52275  0.25142  0.04901  1.0000
  H   H352      1.0  0.56034  0.05938  0.37789  1.0000
  H   H353      1.0  0.35558  0.16090  0.15833  1.0000
  C   C453      1.0  0.47061  0.07603  0.32240  1.0000
  P   P17       1.0  0.50443  0.16461  0.03216  1.0000
  C   C454      1.0  0.47678  0.05756  0.31492  1.0000
  C   C455      1.0  0.32298  0.40880  0.32576  1.0000
  H   H354      1.0  0.37914  0.46756  0.99007  1.0000
  C   C456      1.0  0.37590  0.33779  0.41068  1.0000
  C   C457      1.0  0.52254  0.15215  0.30028  1.0000
  C   C458      1.0  0.41797  0.19551  0.14545  1.0000
  C   C459      1.0  0.48527  0.00537  0.21076  1.0000
  C   C460      1.0  0.37607  0.20090  0.15390  1.0000
  C   C461      1.0  0.53043  0.99237  0.45478  1.0000
  H   H355      1.0  0.40624  0.39985  0.42958  1.0000
  C   C462      1.0  0.51173  0.99994  0.37913  1.0000
  Fe  Fe35      1.0  0.63102  0.09558  0.34015  1.0000
  H   H356      1.0  0.53710  0.11483  0.29330  1.0000
  H   H357      1.0  0.38113  0.44273  0.27614  1.0000
  C   C463      1.0  0.52267  0.10728  0.34683  1.0000
  C   C464      1.0  0.50797  0.13460  0.08418  1.0000
  C   C465      1.0  0.34096  0.24406  0.35309  1.0000
  H   H358      1.0  0.42388  0.27238  0.02267  1.0000
  H   H359      1.0  0.44459  0.15473  0.12613  1.0000
  C   C466      1.0  0.64047  0.41602  0.12898  1.0000
  C   C467      1.0  0.43364  0.02828  0.30170  1.0000
  C   C468      1.0  0.42731  0.04648  0.30942  1.0000
  C   C469      1.0  0.44566  0.07019  0.32000  1.0000
  H   H360      1.0  0.51244  0.17866  0.22787  1.0000
  H   H361      1.0  0.47604  0.33753  0.14941  1.0000
  C   C470      1.0  0.40648  0.40570  0.28867  1.0000
  H   H362      1.0  0.51670  0.04294  0.43966  1.0000
  H   H363      1.0  0.36425  0.36288  0.43175  1.0000
  H   H364      1.0  0.35963  0.20264  0.15685  1.0000
  H   H365      1.0  0.41943  0.01003  0.29304  1.0000
  H   H366      1.0  0.40823  0.04232  0.30654  1.0000
  H   H367      1.0  0.44045  0.08416  0.32553  1.0000
  H   H368      1.0  0.47339  0.13829  0.22755  1.0000
  C   C471      1.0  0.37286  0.44924  0.00097  1.0000
  H   H369      1.0  0.39382  0.31830  0.38868  1.0000
  H   H370      1.0  0.37957  0.46129  0.40445  1.0000
  C   C472      1.0  0.54068  0.20781  0.99920  1.0000
  H   H371      1.0  0.43319  0.26803  0.08494  1.0000
  C   C473      1.0  0.33345  0.27890  0.35489  1.0000
  H   H372      1.0  0.61728  0.02905  0.35416  1.0000
  C   C474      1.0  0.35544  0.40198  0.03032  1.0000
  H   H373      1.0  0.39904  0.38102  0.33279  1.0000
  H   H374      1.0  0.55377  0.10121  0.41719  1.0000
  C   C475      1.0  0.57910  0.03941  0.18058  1.0000
  H   H375      1.0  0.46314  0.01976  0.29775  1.0000
  C   C476      1.0  0.50928  0.16487  0.24790  1.0000
  Fe  Fe36      1.0  0.32218  0.41115  0.18901  1.0000
  H   H376      1.0  0.54405  0.18763  0.27439  1.0000
  C   C477      1.0  0.53286  0.07048  0.48042  1.0000
  H   H377      1.0  0.57604  0.06319  0.21908  1.0000
  H   H378      1.0  0.45480  0.14358  0.99848  1.0000
  C   C478      1.0  0.37516  0.41990  0.32270  1.0000
  H   H379      1.0  0.39404  0.00629  0.23576  1.0000
  C   C479      1.0  0.52079  0.15677  0.06475  1.0000
  C   C480      1.0  0.51593  0.44858  0.27465  1.0000
  H   H380      1.0  0.32701  0.29002  0.34145  1.0000
  C   C481      1.0  0.53996  0.43752  0.43613  1.0000
  C   C482      1.0  0.50047  0.12903  0.30005  1.0000
  H   H381      1.0  0.49765  0.42799  0.21142  1.0000
  C   C483      1.0  0.47046  0.15868  0.08507  1.0000
  C   C484      1.0  0.55139  0.04648  0.45816  1.0000
  C   C485      1.0  0.54709  0.24909  0.01032  1.0000
  C   C486      1.0  0.54551  0.14426  0.11606  1.0000
  C   C487      1.0  0.44802  0.08184  0.98913  1.0000
  H   H382      1.0  0.40266  0.47327  0.34856  1.0000
  C   C488      1.0  0.59568  0.99107  0.21278  1.0000
  C   C489      1.0  0.39571  0.39514  0.32123  1.0000
  C   C490      1.0  0.45846  0.10355  0.42845  1.0000
  C   C491      1.0  0.44450  0.30032  0.14775  1.0000
  C   C492      1.0  0.56770  0.04445  0.20877  1.0000
  H   H383      1.0  0.35955  0.45756  0.04900  1.0000
  C   C493      1.0  0.46756  0.31888  0.16024  1.0000
  H   H384      1.0  0.35767  0.23866  0.39967  1.0000
  H   H385      1.0  0.54055  0.05960  0.32139  1.0000
  H   H386      1.0  0.48841  0.12213  0.07967  1.0000
  C   C494      1.0  0.52023  0.12841  0.10976  1.0000
  H   H387      1.0  0.55495  0.13940  0.13596  1.0000
  C   C495      1.0  0.33099  0.33381  0.36187  1.0000
  H   H388      1.0  0.48595  0.16558  0.10323  1.0000
  C   C496      1.0  0.38217  0.25602  0.17962  1.0000
  C   C497      1.0  0.46264  0.12776  0.43230  1.0000
  C   C498      1.0  0.57844  0.02317  0.42230  1.0000
  H   H389      1.0  0.57279  0.45850  0.30025  1.0000
  C   C499      1.0  0.33233  0.25862  0.33695  1.0000
  H   H390      1.0  0.43421  0.19334  0.14291  1.0000
  C   C500      1.0  0.42983  0.14096  0.03945  1.0000
  H   H391      1.0  0.46277  0.37272  0.46984  1.0000
  H   H392      1.0  0.41809  0.35452  0.47661  1.0000
  C   C501      1.0  0.50787  0.38706  0.44916  1.0000
  H   H393      1.0  0.49584  0.06162  0.31621  1.0000
  C   C502      1.0  0.50062  0.00020  0.34705  1.0000
  Fe  Fe37      1.0  0.61973  0.05655  0.28090  1.0000
  H   H394      1.0  0.46783  0.02616  0.19349  1.0000
  C   C503      1.0  0.35172  0.26994  0.40534  1.0000
  C   C504      1.0  0.37365  0.17721  0.15437  1.0000
  H   H395      1.0  0.34831  0.24923  0.05108  1.0000
  H   H396      1.0  0.43876  0.23521  0.14143  1.0000
  C   C505      1.0  0.38558  0.42994  0.28954  1.0000
  C   C506      1.0  0.43917  0.40440  0.17949  1.0000
  C   C507      1.0  0.39960  0.22213  0.15013  1.0000
  H   H397      1.0  0.54151  0.48421  0.18331  1.0000
  C   C508      1.0  0.41476  0.26445  0.07797  1.0000
  C   C509      1.0  0.37968  0.36103  0.42198  1.0000
  C   C510      1.0  0.46566  0.01034  0.20863  1.0000
  C   C511      1.0  0.48292  0.12413  0.27337  1.0000
  C   C512      1.0  0.40121  0.42290  0.27270  1.0000
  H   H398      1.0  0.39290  0.15625  0.15168  1.0000
  H   H399      1.0  0.35390  0.23432  0.25944  1.0000
  H   H400      1.0  0.53723  0.02950  0.24561  1.0000
  C   C513      1.0  0.36279  0.27952  0.20046  1.0000
  P   P18       1.0  0.50086  0.47555  0.23184  1.0000
  C   C514      1.0  0.45831  0.03377  0.30456  1.0000
  C   C515      1.0  0.40343  0.38198  0.42088  1.0000
  H   H401      1.0  0.43570  0.35498  0.38908  1.0000
  H   H402      1.0  0.37861  0.22699  0.21520  1.0000
  C   C516      1.0  0.37690  0.27545  0.17516  1.0000
  H   H403      1.0  0.40852  0.43017  0.24666  1.0000
  P   P19       1.0  0.35390  0.42817  0.34315  1.0000
  H   H404      1.0  0.34387  0.26815  0.25052  1.0000
  C   C517      1.0  0.31467  0.27863  0.46564  1.0000
  C   C518      1.0  0.36454  0.46057  0.33339  1.0000
  H   H405      1.0  0.57664  0.11665  0.30866  1.0000
  H   H406      1.0  0.37157  0.39334  0.36302  1.0000
  H   H407      1.0  0.40848  0.13871  0.08580  1.0000
  H   H408      1.0  0.51414  0.09957  0.40264  1.0000
  C   C519      1.0  0.63349  0.09908  0.44070  1.0000
  C   C520      1.0  0.35181  0.41410  0.46359  1.0000
  H   H409      1.0  0.54597  0.19591  0.98512  1.0000
  C   C521      1.0  0.45620  0.31912  0.48006  1.0000
  H   H410      1.0  0.43760  0.46922  0.31758  1.0000
  C   C522      1.0  0.52333  0.47078  0.25591  1.0000
  C   C523      1.0  0.45318  0.14670  0.02623  1.0000
  H   H411      1.0  0.55666  0.18973  0.05647  1.0000
  C   C524      1.0  0.44312  0.99482  0.22553  1.0000
  C   C525      1.0  0.34832  0.46795  0.31891  1.0000
  H   H412      1.0  0.57957  0.03112  0.36606  1.0000
  C   C526      1.0  0.62176  0.02081  0.40811  1.0000
  H   H413      1.0  0.37261  0.32768  0.48050  1.0000
  C   C527      1.0  0.48025  0.42715  0.20516  1.0000
  H   H414      1.0  0.62625  0.42002  0.07879  1.0000
  H   H415      1.0  0.50219  0.01738  0.19643  1.0000
  C   C528      1.0  0.53370  0.44423  0.29077  1.0000
  C   C529      1.0  0.36700  0.43806  0.45027  1.0000
  C   C530      1.0  0.54699  0.99608  0.18234  1.0000
  Fe  Fe38      1.0  0.61599  0.47652  0.20078  1.0000
  H   H416      1.0  0.61303  0.16748  0.32855  1.0000
  H   H417      1.0  0.31547  0.35081  0.24839  1.0000
  H   H418      1.0  0.32056  0.35162  0.32182  1.0000
  C   C531      1.0  0.52778  0.23924  0.03513  1.0000
  S   S72       1.0  0.63403  0.08580  0.23776  1.0000
  H   H419      1.0  0.37821  0.45317  0.46820  1.0000
  C   C532      1.0  0.51483  0.21366  0.04195  1.0000
  C   C533      1.0  0.60991  0.02610  0.38089  1.0000
  C   C534      1.0  0.36651  0.40743  0.99676  1.0000
  H   H420      1.0  0.63872  0.36481  0.23412  1.0000
  H   H421      1.0  0.45163  0.46201  0.20520  1.0000
  H   H422      1.0  0.46413  0.38978  0.18511  1.0000
  H   H423      1.0  0.62146  0.01293  0.46367  1.0000
  H   H424      1.0  0.61703  0.15352  0.38862  1.0000
  C   C535      1.0  0.33726  0.39464  0.44053  1.0000
  H   H425      1.0  0.49566  0.36736  0.45351  1.0000
  C   C536      1.0  0.37575  0.99002  0.23478  1.0000
  C   C537      1.0  0.33789  0.39915  0.40420  1.0000
  C   C538      1.0  0.51542  0.40395  0.47752  1.0000
  C   C539      1.0  0.33718  0.30043  0.45831  1.0000
  C   C540      1.0  0.61214  0.01681  0.44246  1.0000
  H   H426      1.0  0.32523  0.25454  0.31021  1.0000
  C   C541      1.0  0.63078  0.11154  0.47011  1.0000
  H   H427      1.0  0.39865  0.99791  0.14748  1.0000
  H   H428      1.0  0.62482  0.12506  0.46597  1.0000
  H   H429      1.0  0.42794  0.99869  0.22342  1.0000
  C   C542      1.0  0.55887  0.46224  0.28911  1.0000
  H   H430      1.0  0.46442  0.44545  0.99566  1.0000
  H   H431      1.0  0.41995  0.43280  0.99353  1.0000
  C   C543      1.0  0.31544  0.34160  0.34670  1.0000
  H   H432      1.0  0.62544  0.39719  0.13277  1.0000
  H   H433      1.0  0.51801  0.07489  0.47997  1.0000
  H   H434      1.0  0.58313  0.01427  0.47620  1.0000
  H   H435      1.0  0.43596  0.99353  0.13808  1.0000
  C   C544      1.0  0.50853  0.12993  0.98903  1.0000
  C   C545      1.0  0.55355  0.23338  0.99241  1.0000
  C   C546      1.0  0.50263  0.14906  0.99079  1.0000
  C   C547      1.0  0.45496  0.48156  0.30443  1.0000
  C   C548      1.0  0.57114  0.05893  0.48194  1.0000
  C   C549      1.0  0.63338  0.16420  0.37241  1.0000
  C   C550      1.0  0.64104  0.42872  0.09804  1.0000
  C   C551      1.0  0.48258  0.98481  0.23019  1.0000
  C   C552      1.0  0.64131  0.08176  0.44661  1.0000
  H   H436      1.0  0.36808  0.39313  0.98244  1.0000
  Fe  Fe39      1.0  0.47156  0.09578  0.79561  1.0000
  S   S73       1.0  0.45036  0.09307  0.74637  1.0000
  S   S74       1.0  0.50942  0.09783  0.79777  1.0000
  Fe  Fe40      1.0  0.42894  0.08914  0.84386  1.0000
  S   S75       1.0  0.40461  0.08533  0.79652  1.0000
  S   S76       1.0  0.41316  0.08764  0.89995  1.0000
  Fe  Fe41      1.0  0.41786  0.06029  0.77289  1.0000
  S   S77       1.0  0.39958  0.02556  0.73661  1.0000
  Fe  Fe42      1.0  0.43885  0.11852  0.77342  1.0000
  S   S78       1.0  0.43929  0.15011  0.73872  1.0000
  S   S79       1.0  0.43980  0.06213  0.82133  1.0000
  S   S80       1.0  0.46244  0.12323  0.82164  1.0000
  Fe  Fe43      1.0  0.43345  0.28352  0.68838  1.0000
  S   S81       1.0  0.45653  0.30402  0.64008  1.0000
  S   S82       1.0  0.43455  0.25216  0.72167  1.0000
  Fe  Fe44      1.0  0.41074  0.31909  0.69345  1.0000
  S   S83       1.0  0.43179  0.34032  0.64527  1.0000
  S   S84       1.0  0.39119  0.33267  0.73268  1.0000
  Fe  Fe45      1.0  0.42210  0.30379  0.62001  1.0000
  S   S85       1.0  0.40638  0.29695  0.56302  1.0000
  Fe  Fe46      1.0  0.46460  0.33948  0.66849  1.0000
  S   S86       1.0  0.49983  0.37763  0.66564  1.0000
  S   S87       1.0  0.39836  0.28180  0.66723  1.0000
  S   S88       1.0  0.44421  0.31951  0.71759  1.0000
  S   S89       1.0  0.56054  0.43654  0.80245  1.0000
  Fe  Fe47      1.0  0.60620  0.09610  0.66224  1.0000
  S   S90       1.0  0.57193  0.10058  0.66157  1.0000
  C   C553      1.0  0.54033  0.45809  0.60180  1.0000
  S   S91       1.0  0.60472  0.06173  0.63985  1.0000
  C   C554      1.0  0.36262  0.09499  0.73088  1.0000
  S   S92       1.0  0.33583  0.43029  0.82142  1.0000
  H   H437      1.0  0.39288  0.12033  0.89115  1.0000
  Fe  Fe48      1.0  0.33317  0.46254  0.79942  1.0000
  H   H438      1.0  0.39190  0.47077  0.82955  1.0000
  C   C555      1.0  0.59760  0.99919  0.72562  1.0000
  H   H439      1.0  0.49143  0.17143  0.96024  1.0000
  C   C556      1.0  0.40478  0.45260  0.66298  1.0000
  H   H440      1.0  0.44340  0.04801  0.68079  1.0000
  C   C557      1.0  0.37452  0.34946  0.73177  1.0000
  C   C558      1.0  0.37094  0.35912  0.76366  1.0000
  C   C559      1.0  0.35734  0.37193  0.76462  1.0000
  C   C560      1.0  0.34681  0.37506  0.73368  1.0000
  C   C561      1.0  0.35068  0.36571  0.70172  1.0000
  C   C562      1.0  0.36442  0.35304  0.70070  1.0000
  H   H441      1.0  0.37854  0.35640  0.78784  1.0000
  P   P20       1.0  0.35124  0.11264  0.75455  1.0000
  H   H442      1.0  0.34261  0.36790  0.67759  1.0000
  H   H443      1.0  0.36678  0.34563  0.67601  1.0000
  C   C563      1.0  0.51482  0.39450  0.70451  1.0000
  C   C564      1.0  0.53339  0.41962  0.70171  1.0000
  C   C565      1.0  0.54716  0.43290  0.73162  1.0000
  C   C566      1.0  0.54256  0.42115  0.76458  1.0000
  C   C567      1.0  0.52320  0.39642  0.76767  1.0000
  C   C568      1.0  0.50942  0.38313  0.73782  1.0000
  H   H444      1.0  0.53749  0.42868  0.67622  1.0000
  H   H445      1.0  0.56164  0.45207  0.72923  1.0000
  H   H446      1.0  0.51930  0.38721  0.79312  1.0000
  H   H447      1.0  0.49516  0.36384  0.74046  1.0000
  C   C569      1.0  0.42038  0.30298  0.51989  1.0000
  C   C570      1.0  0.55242  0.08254  0.50431  1.0000
  C   C571      1.0  0.44610  0.31417  0.51471  1.0000
  H   H448      1.0  0.49669  0.43510  0.53696  1.0000
  H   H449      1.0  0.45818  0.31895  0.53741  1.0000
  H   H450      1.0  0.58798  0.13430  0.93366  1.0000
  H   H451      1.0  0.58728  0.37924  0.57024  1.0000
  C   C572      1.0  0.63226  0.15294  0.73477  1.0000
  C   C573      1.0  0.64249  0.08856  0.51091  1.0000
  H   H452      1.0  0.42737  0.98672  0.68242  1.0000
  C   C574      1.0  0.52596  0.09751  0.75949  1.0000
  C   C575      1.0  0.54727  0.09516  0.76343  1.0000
  C   C576      1.0  0.56137  0.09570  0.73375  1.0000
  C   C577      1.0  0.55423  0.09854  0.69974  1.0000
  C   C578      1.0  0.53275  0.10053  0.69578  1.0000
  C   C579      1.0  0.51871  0.10007  0.72545  1.0000
  H   H453      1.0  0.55295  0.09305  0.78959  1.0000
  H   H454      1.0  0.57797  0.09438  0.73722  1.0000
  H   H455      1.0  0.52707  0.10276  0.66963  1.0000
  H   H456      1.0  0.50244  0.10199  0.72197  1.0000
  C   C580      1.0  0.43855  0.17889  0.73474  1.0000
  C   C581      1.0  0.43876  0.19289  0.76407  1.0000
  C   C582      1.0  0.43772  0.21512  0.75950  1.0000
  C   C583      1.0  0.43663  0.22410  0.72557  1.0000
  C   C584      1.0  0.43664  0.21022  0.69622  1.0000
  C   C585      1.0  0.43750  0.18788  0.70081  1.0000
  H   H457      1.0  0.43979  0.18666  0.79040  1.0000
  H   H458      1.0  0.43777  0.22550  0.78253  1.0000
  H   H459      1.0  0.43576  0.21657  0.66990  1.0000
  H   H460      1.0  0.43734  0.17746  0.67777  1.0000
  C   C586      1.0  0.51975  0.01273  0.75639  1.0000
  C   C587      1.0  0.42152  0.08562  0.94473  1.0000
  C   C588      1.0  0.44205  0.08302  0.95332  1.0000
  C   C589      1.0  0.57148  0.07672  0.50510  1.0000
  H   H461      1.0  0.45329  0.08184  0.93233  1.0000
  H   H462      1.0  0.49100  0.42626  0.90171  1.0000
  H   H463      1.0  0.63345  0.16369  0.93369  1.0000
  H   H464      1.0  0.40977  0.10302  0.67605  1.0000
  H   H465      1.0  0.47969  0.01316  0.62823  1.0000
  P   P21       1.0  0.38913  0.43795  0.93819  1.0000
  C   C590      1.0  0.46335  0.46864  0.64731  1.0000
  H   H466      1.0  0.62176  0.06399  0.80479  1.0000
  C   C591      1.0  0.48045  0.43422  0.64728  1.0000
  C   C592      1.0  0.46046  0.43027  0.62586  1.0000
  C   C593      1.0  0.45184  0.44730  0.62598  1.0000
  S   S93       1.0  0.32856  0.39022  0.73318  1.0000
  H   H467      1.0  0.39112  0.05776  0.68766  1.0000
  H   H468      1.0  0.53438  0.98737  0.64200  1.0000
  C   C594      1.0  0.51291  0.46141  0.78200  1.0000
  H   H469      1.0  0.55453  0.06726  0.58479  1.0000
  H   H470      1.0  0.48680  0.42072  0.64775  1.0000
  H   H471      1.0  0.45138  0.41372  0.60969  1.0000
  H   H472      1.0  0.43619  0.44383  0.60946  1.0000
  H   H473      1.0  0.45076  0.02977  0.62667  1.0000
  C   C595      1.0  0.58815  0.41791  0.68234  1.0000
  C   C596      1.0  0.40504  0.29647  0.48974  1.0000
  C   C597      1.0  0.63802  0.15892  0.87822  1.0000
  C   C598      1.0  0.62426  0.15428  0.90949  1.0000
  C   C599      1.0  0.61027  0.43817  0.60216  1.0000
  C   C600      1.0  0.62638  0.15587  0.76960  1.0000
  H   H474      1.0  0.39954  0.35223  0.53571  1.0000
  H   H475      1.0  0.55281  0.09632  0.52239  1.0000
  H   H476      1.0  0.58777  0.46361  0.68070  1.0000
  C   C601      1.0  0.60735  0.16157  0.77555  1.0000
  C   C602      1.0  0.63539  0.10646  0.50493  1.0000
  C   C603      1.0  0.59866  0.13770  0.90951  1.0000
  C   C604      1.0  0.37255  0.41073  0.91051  1.0000
  C   C605      1.0  0.48365  0.47262  0.66840  1.0000
  H   H477      1.0  0.56487  0.04306  0.69426  1.0000
  H   H478      1.0  0.54853  0.47317  0.62078  1.0000
  C   C606      1.0  0.36015  0.10080  0.85889  1.0000
  C   C607      1.0  0.53034  0.02104  0.72279  1.0000
  H   H479      1.0  0.57200  0.04089  0.80668  1.0000
  H   H480      1.0  0.58647  0.08589  0.52394  1.0000
  H   H481      1.0  0.33589  0.35345  0.84903  1.0000
  C   C608      1.0  0.62740  0.44420  0.71149  1.0000
  C   C609      1.0  0.51110  0.43649  0.55454  1.0000
  C   C610      1.0  0.33339  0.37617  0.89017  1.0000
  H   H482      1.0  0.52619  0.01405  0.81248  1.0000
  C   C611      1.0  0.36376  0.11566  0.79846  1.0000
  H   H483      1.0  0.31271  0.07409  0.70950  1.0000
  C   C612      1.0  0.37890  0.44132  0.66465  1.0000
  H   H484      1.0  0.50054  0.11762  0.90060  1.0000
  C   C613      1.0  0.36119  0.47832  0.89042  1.0000
  C   C614      1.0  0.39328  0.09344  0.69240  1.0000
  C   C615      1.0  0.36250  0.05605  0.72191  1.0000
  C   C616      1.0  0.47241  0.46147  0.94335  1.0000
  H   H485      1.0  0.34789  0.44011  0.90231  1.0000
  C   C617      1.0  0.34652  0.39661  0.91241  1.0000
  C   C618      1.0  0.53525  0.04215  0.62767  1.0000
  P   P22       1.0  0.50437  0.39309  0.52215  1.0000
  C   C619      1.0  0.47111  0.38081  0.52578  1.0000
  C   C620      1.0  0.51141  0.36923  0.53581  1.0000
  C   C621      1.0  0.50414  0.35849  0.56958  1.0000
  C   C622      1.0  0.51053  0.34100  0.58126  1.0000
  C   C623      1.0  0.52371  0.33360  0.55914  1.0000
  C   C624      1.0  0.53107  0.34415  0.52553  1.0000
  C   C625      1.0  0.52526  0.36212  0.51405  1.0000
  C   C626      1.0  0.46035  0.37934  0.55915  1.0000
  C   C627      1.0  0.43469  0.36952  0.56246  1.0000
  C   C628      1.0  0.41947  0.36075  0.53274  1.0000
  C   C629      1.0  0.60054  0.13004  0.84710  1.0000
  H   H486      1.0  0.57797  0.16579  0.75204  1.0000
  C   C630      1.0  0.51881  0.41867  0.55317  1.0000
  C   C631      1.0  0.48566  0.03341  0.71341  1.0000
  H   H487      1.0  0.46606  0.05082  0.73580  1.0000
  C   C632      1.0  0.42992  0.36219  0.49951  1.0000
  C   C633      1.0  0.59878  0.15862  0.71273  1.0000
  H   H488      1.0  0.33098  0.08405  0.82055  1.0000
  C   C634      1.0  0.59342  0.41109  0.74408  1.0000
  H   H489      1.0  0.62254  0.15102  0.67974  1.0000
  H   H490      1.0  0.49390  0.36384  0.58735  1.0000
  H   H491      1.0  0.50521  0.33317  0.60760  1.0000
  H   H492      1.0  0.52817  0.31965  0.56810  1.0000
  C   C635      1.0  0.53693  0.47967  0.77263  1.0000
  C   C636      1.0  0.46225  0.39217  0.87911  1.0000
  H   H493      1.0  0.47167  0.38542  0.58280  1.0000
  H   H494      1.0  0.42640  0.36792  0.58824  1.0000
  C   C637      1.0  0.49200  0.45538  0.66859  1.0000
  C   C638      1.0  0.35458  0.31172  0.48562  1.0000
  C   C639      1.0  0.39892  0.13547  0.83845  1.0000
  C   C640      1.0  0.52187  0.45614  0.57873  1.0000
  C   C641      1.0  0.59250  0.39874  0.57080  1.0000
  H   H495      1.0  0.54373  0.40738  0.57630  1.0000
  H   H496      1.0  0.57842  0.99859  0.67799  1.0000
  C   C642      1.0  0.59491  0.43477  0.54207  1.0000
  C   C643      1.0  0.48947  0.02232  0.68332  1.0000
  C   C644      1.0  0.60591  0.44900  0.57234  1.0000
  C   C645      1.0  0.49283  0.46565  0.77748  1.0000
  H   H497      1.0  0.61419  0.09853  0.81892  1.0000
  P   P23       1.0  0.46174  0.44116  0.78766  1.0000
  C   C646      1.0  0.45059  0.42250  0.74829  1.0000
  C   C647      1.0  0.46196  0.42191  0.82333  1.0000
  C   C648      1.0  0.47791  0.43275  0.85221  1.0000
  C   C649      1.0  0.47820  0.41790  0.87988  1.0000
  H   H498      1.0  0.36817  0.42435  0.67985  1.0000
  C   C650      1.0  0.36121  0.14270  0.73469  1.0000
  C   C651      1.0  0.44557  0.39610  0.82313  1.0000
  C   C652      1.0  0.46062  0.40748  0.73823  1.0000
  C   C653      1.0  0.45032  0.39094  0.71002  1.0000
  C   C654      1.0  0.43021  0.38958  0.69147  1.0000
  C   C655      1.0  0.42082  0.40513  0.70044  1.0000
  C   C656      1.0  0.43117  0.42184  0.72843  1.0000
  C   C657      1.0  0.44029  0.45109  0.80232  1.0000
  C   C658      1.0  0.41494  0.43338  0.80454  1.0000
  C   C659      1.0  0.39766  0.44045  0.81431  1.0000
  H   H499      1.0  0.57967  0.39865  0.51787  1.0000
  H   H500      1.0  0.46269  0.38059  0.90028  1.0000
  H   H501      1.0  0.61099  0.46841  0.57230  1.0000
  C   C660      1.0  0.58816  0.40964  0.54133  1.0000
  C   C661      1.0  0.36364  0.45868  0.90405  1.0000
  H   H502      1.0  0.55830  0.44622  0.89128  1.0000
  H   H503      1.0  0.57596  0.41312  0.65972  1.0000
  S   S94       1.0  0.64021  0.12237  0.63097  1.0000
  C   C662      1.0  0.61277  0.43770  0.68082  1.0000
  H   H504      1.0  0.58626  0.05495  0.48302  1.0000
  H   H505      1.0  0.31323  0.36596  0.89109  1.0000
  C   C663      1.0  0.52931  0.01959  0.64419  1.0000
  C   C664      1.0  0.61844  0.15418  0.70648  1.0000
  H   H506      1.0  0.47578  0.40780  0.75290  1.0000
  H   H507      1.0  0.45746  0.37865  0.70328  1.0000
  H   H508      1.0  0.42137  0.37606  0.67069  1.0000
  H   H509      1.0  0.40482  0.40341  0.68650  1.0000
  H   H510      1.0  0.42342  0.43357  0.73501  1.0000
  H   H511      1.0  0.40836  0.41408  0.79781  1.0000
  H   H512      1.0  0.37815  0.42658  0.81490  1.0000
  H   H513      1.0  0.56922  0.04009  0.55816  1.0000
  H   H514      1.0  0.35514  0.03653  0.72809  1.0000
  H   H515      1.0  0.43267  0.38722  0.80150  1.0000
  H   H516      1.0  0.59160  0.44324  0.51917  1.0000
  H   H517      1.0  0.62906  0.43661  0.76668  1.0000
  C   C665      1.0  0.54377  0.46873  0.87033  1.0000
  H   H518      1.0  0.31630  0.11828  0.79989  1.0000
  C   C666      1.0  0.61774  0.43101  0.74298  1.0000
  C   C667      1.0  0.62622  0.14698  0.84665  1.0000
  C   C668      1.0  0.58681  0.12559  0.87830  1.0000
  C   C669      1.0  0.38601  0.46324  0.91977  1.0000
  H   H519      1.0  0.50733  0.45827  0.68550  1.0000
  H   H520      1.0  0.34953  0.08762  0.87955  1.0000
  H   H521      1.0  0.41824  0.14909  0.84307  1.0000
  P   P24       1.0  0.62462  0.45653  0.64129  1.0000
  C   C670      1.0  0.32679  0.28010  0.52686  1.0000
  H   H522      1.0  0.38512  0.28725  0.49321  1.0000
  C   C671      1.0  0.44825  0.47574  0.81246  1.0000
  C   C672      1.0  0.31780  0.09703  0.75548  1.0000
  H   H523      1.0  0.56691  0.11289  0.87808  1.0000
  H   H524      1.0  0.35120  0.41064  0.49180  1.0000
  C   C673      1.0  0.57104  0.04332  0.75003  1.0000
  H   H525      1.0  0.34675  0.44389  0.64993  1.0000
  C   C674      1.0  0.36008  0.14481  0.69782  1.0000
  C   C675      1.0  0.55198  0.01173  0.59808  1.0000
  H   H526      1.0  0.37122  0.48358  0.61713  1.0000
  C   C676      1.0  0.38320  0.10687  0.70819  1.0000
  C   C677      1.0  0.37209  0.38267  0.86508  1.0000
  C   C678      1.0  0.36816  0.16378  0.75588  1.0000
  C   C679      1.0  0.45631  0.04097  0.68126  1.0000
  C   C680      1.0  0.34972  0.09891  0.82545  1.0000
  C   C681      1.0  0.46266  0.46639  0.91309  1.0000
  C   C682      1.0  0.56032  0.03531  0.78342  1.0000
  H   H527      1.0  0.48976  0.15103  0.90337  1.0000
  H   H528      1.0  0.59100  0.12057  0.82310  1.0000
  C   C683      1.0  0.57876  0.40436  0.71366  1.0000
  C   C684      1.0  0.41197  0.99047  0.82552  1.0000
  H   H529      1.0  0.39229  0.12674  0.70378  1.0000
  C   C685      1.0  0.37509  0.18897  0.70351  1.0000
  H   H530      1.0  0.40529  0.41356  0.88494  1.0000
  C   C686      1.0  0.42725  0.99760  0.85531  1.0000
  H   H531      1.0  0.52948  0.05449  0.63926  1.0000
  Fe  Fe49      1.0  0.64036  0.08819  0.61163  1.0000
  C   C687      1.0  0.53746  0.42085  0.57639  1.0000
  C   C688      1.0  0.59336  0.16252  0.74723  1.0000
  C   C689      1.0  0.63141  0.10265  0.80619  1.0000
  H   H532      1.0  0.56848  0.24101  0.97311  1.0000
  C   C690      1.0  0.55615  0.03645  0.71978  1.0000
  C   C691      1.0  0.53462  0.02011  0.78664  1.0000
  H   H533      1.0  0.38169  0.20332  0.75652  1.0000
  C   C692      1.0  0.40683  0.08653  0.97264  1.0000
  C   C693      1.0  0.46042  0.03062  0.65090  1.0000
  C   C694      1.0  0.57916  0.98767  0.69980  1.0000
  S   S95       1.0  0.62051  0.03171  0.72426  1.0000
  C   C695      1.0  0.38289  0.06803  0.69915  1.0000
  Fe  Fe50      1.0  0.59703  0.47353  0.80089  1.0000
  C   C696      1.0  0.38467  0.11920  0.86546  1.0000
  C   C697      1.0  0.35249  0.06950  0.73796  1.0000
  H   H534      1.0  0.49989  0.00074  0.75900  1.0000
  C   C698      1.0  0.42169  0.44695  0.94052  1.0000
  H   H535      1.0  0.53431  0.45598  0.84880  1.0000
  H   H536      1.0  0.51012  0.44386  0.79223  1.0000
  Fe  Fe51      1.0  0.62829  0.06419  0.68633  1.0000
  C   C699      1.0  0.38855  0.13357  0.80504  1.0000
  H   H537      1.0  0.33737  0.06018  0.75668  1.0000
  H   H538      1.0  0.33621  0.40159  0.93068  1.0000
  H   H539      1.0  0.43355  0.36133  0.85007  1.0000
  H   H540      1.0  0.34400  0.47461  0.87780  1.0000
  H   H541      1.0  0.40000  0.14572  0.78406  1.0000
  C   C700      1.0  0.44586  0.38131  0.85084  1.0000
  C   C701      1.0  0.46893  0.04235  0.71243  1.0000
  C   C702      1.0  0.45689  0.44933  0.97220  1.0000
  H   H542      1.0  0.32308  0.27201  0.55317  1.0000
  C   C703      1.0  0.49539  0.14545  0.92723  1.0000
  C   C704      1.0  0.37530  0.18684  0.74026  1.0000
  S   S96       1.0  0.62797  0.09757  0.71007  1.0000
  H   H543      1.0  0.49033  0.45263  0.85310  1.0000
  C   C705      1.0  0.55742  0.46319  0.89430  1.0000
  H   H544      1.0  0.38142  0.20707  0.69157  1.0000
  H   H545      1.0  0.38193  0.37716  0.84676  1.0000
  C   C706      1.0  0.60371  0.41296  0.60098  1.0000
  C   C707      1.0  0.34940  0.30150  0.51971  1.0000
  H   H546      1.0  0.49194  0.46696  0.94440  1.0000
  H   H547      1.0  0.36842  0.16263  0.78441  1.0000
  H   H548      1.0  0.62715  0.48028  0.93876  1.0000
  H   H549      1.0  0.54124  0.33834  0.50833  1.0000
  H   H550      1.0  0.35459  0.37901  0.78931  1.0000
  C   C708      1.0  0.43739  0.45900  0.91160  1.0000
  C   C709      1.0  0.34614  0.36921  0.86646  1.0000
  H   H551      1.0  0.36166  0.99258  0.78879  1.0000
  H   H552      1.0  0.42942  0.01312  0.87125  1.0000
  H   H553      1.0  0.36726  0.16968  0.65380  1.0000
  H   H554      1.0  0.51219  0.10381  0.95540  1.0000
  H   H555      1.0  0.41396  0.44446  0.67734  1.0000
  H   H556      1.0  0.54814  0.99740  0.85354  1.0000
  C   C710      1.0  0.50807  0.11886  0.95654  1.0000
  H   H557      1.0  0.51551  0.00726  0.49377  1.0000
  C   C711      1.0  0.36679  0.45237  0.64780  1.0000
  C   C712      1.0  0.50148  0.12659  0.92567  1.0000
  H   H558      1.0  0.58573  0.40124  0.76872  1.0000
  C   C713      1.0  0.54932  0.04938  0.59651  1.0000
  H   H559      1.0  0.35399  0.12866  0.68104  1.0000
  C   C714      1.0  0.55760  0.03412  0.58161  1.0000
  H   H560      1.0  0.36329  0.30953  0.54039  1.0000
  H   H561      1.0  0.51573  0.46974  0.57989  1.0000
  H   H562      1.0  0.49585  0.03591  0.73757  1.0000
  C   C715      1.0  0.38527  0.40340  0.88690  1.0000
  C   C716      1.0  0.36732  0.16794  0.68230  1.0000
  H   H563      1.0  0.53175  0.37033  0.48828  1.0000
  H   H564      1.0  0.59098  0.05474  0.74750  1.0000
  C   C717      1.0  0.49614  0.15678  0.95957  1.0000
  C   C718      1.0  0.54809  0.44045  0.60060  1.0000
  C   C719      1.0  0.38060  0.47466  0.62924  1.0000
  H   H565      1.0  0.58747  0.15858  0.69086  1.0000
  C   C720      1.0  0.41884  0.47492  0.64434  1.0000
  H   H566      1.0  0.63314  0.11615  0.52719  1.0000
  H   H567      1.0  0.56216  0.44173  0.61876  1.0000
  C   C721      1.0  0.43162  0.44212  0.97088  1.0000
  H   H568      1.0  0.55974  0.38916  0.71479  1.0000
  C   C722      1.0  0.47675  0.02114  0.65198  1.0000
  H   H569      1.0  0.60301  0.16506  0.80191  1.0000
  C   C723      1.0  0.37683  0.99310  0.73736  1.0000
  C   C724      1.0  0.53800  0.00451  0.62933  1.0000
  H   H570      1.0  0.55238  0.47639  0.77645  1.0000
  C   C725      1.0  0.57076  0.47998  0.92118  1.0000
  H   H571      1.0  0.45119  0.99010  0.88783  1.0000
  H   H572      1.0  0.40235  0.00044  0.81838  1.0000
  C   C726      1.0  0.37502  0.43102  0.98164  1.0000
  C   C727      1.0  0.45559  0.37238  0.49591  1.0000
  H   H573      1.0  0.39071  0.08823  0.96649  1.0000
  S   S97       1.0  0.31415  0.44281  0.74968  1.0000
  H   H574      1.0  0.58180  0.47595  0.93931  1.0000
  C   C728      1.0  0.43077  0.48280  0.82210  1.0000
  P   P25       1.0  0.51074  0.01015  0.68412  1.0000
  H   H575      1.0  0.60732  0.40428  0.62336  1.0000
  H   H576      1.0  0.47461  0.47581  0.89069  1.0000
  C   C729      1.0  0.63560  0.08294  0.79831  1.0000
  H   H577      1.0  0.38678  0.98705  0.68516  1.0000
  C   C730      1.0  0.40546  0.46521  0.82264  1.0000
  C   C731      1.0  0.51610  0.99107  0.48444  1.0000
  H   H578      1.0  0.42997  0.46259  0.88789  1.0000
  H   H579      1.0  0.61235  0.99290  0.77366  1.0000
  C   C732      1.0  0.61838  0.48207  0.64395  1.0000
  C   C733      1.0  0.59925  0.48034  0.66579  1.0000
  H   H580      1.0  0.53822  0.44285  0.49176  1.0000
  Fe  Fe52      1.0  0.31515  0.40967  0.77278  1.0000
  H   H581      1.0  0.55910  0.00030  0.58720  1.0000
  S   S98       1.0  0.63116  0.47967  0.83068  1.0000
  H   H582      1.0  0.47767  0.98469  0.98081  1.0000
  H   H583      1.0  0.50338  0.98305  0.39468  1.0000
  S   S99       1.0  0.59734  0.54466  0.20429  1.0000
  P   P26       1.0  0.58985  0.84867  0.04472  1.0000
  H   H584      1.0  0.39614  0.77595  0.25993  1.0000
  S   S100      1.0  0.33712  0.86793  0.33712  1.0000
  H   H585      1.0  0.38093  0.90081  0.28522  1.0000
  Fe  Fe53      1.0  0.33875  0.83884  0.30349  1.0000
  S   S101      1.0  0.37411  0.83638  0.30834  1.0000
  H   H586      1.0  0.32501  0.50494  0.08624  1.0000
  Fe  Fe54      1.0  0.50643  0.83784  0.11039  1.0000
  S   S102      1.0  0.53974  0.84897  0.14587  1.0000
  S   S103      1.0  0.49702  0.82462  0.05257  1.0000
  Fe  Fe55      1.0  0.47579  0.84077  0.17247  1.0000
  S   S104      1.0  0.50665  0.85186  0.21215  1.0000
  S   S105      1.0  0.43801  0.83862  0.17490  1.0000
  Fe  Fe56      1.0  0.53165  0.87801  0.16955  1.0000
  S   S106      1.0  0.55968  0.92045  0.17100  1.0000
  Fe  Fe57      1.0  0.51269  0.82186  0.18621  1.0000
  S   S107      1.0  0.52223  0.79543  0.21832  1.0000
  S   S108      1.0  0.50030  0.86805  0.13123  1.0000
  S   S109      1.0  0.48006  0.80951  0.14966  1.0000
  Fe  Fe58      1.0  0.54034  0.62950  0.28689  1.0000
  S   S110      1.0  0.51426  0.60283  0.32753  1.0000
  S   S111      1.0  0.57565  0.62803  0.27069  1.0000
  Fe  Fe59      1.0  0.50784  0.65493  0.27655  1.0000
  S   S112      1.0  0.47921  0.62800  0.31551  1.0000
  S   S113      1.0  0.49914  0.68214  0.24456  1.0000
  Fe  Fe60      1.0  0.51161  0.63494  0.35052  1.0000
  S   S114      1.0  0.50614  0.64245  0.40893  1.0000
  Fe  Fe61      1.0  0.48404  0.59788  0.28983  1.0000
  S   S115      1.0  0.45728  0.55654  0.28007  1.0000
  S   S116      1.0  0.54019  0.66286  0.31239  1.0000
  S   S117      1.0  0.51025  0.62368  0.24838  1.0000
  S   S118      1.0  0.35116  0.50448  0.20630  1.0000
  C   C734      1.0  0.42891  0.54302  0.25654  1.0000
  C   C735      1.0  0.41722  0.55659  0.24764  1.0000
  C   C736      1.0  0.39359  0.54456  0.23168  1.0000
  C   C737      1.0  0.38155  0.51896  0.22420  1.0000
  C   C738      1.0  0.39358  0.50552  0.23216  1.0000
  C   C739      1.0  0.41716  0.51752  0.24830  1.0000
  H   H587      1.0  0.42610  0.57621  0.25379  1.0000
  H   H588      1.0  0.38445  0.55510  0.22551  1.0000
  C   C740      1.0  0.42522  0.87190  0.09915  1.0000
  H   H589      1.0  0.42607  0.50688  0.25515  1.0000
  C   C741      1.0  0.51147  0.63498  0.45264  1.0000
  C   C742      1.0  0.52685  0.62488  0.45936  1.0000
  H   H590      1.0  0.41739  0.89570  0.29764  1.0000
  H   H591      1.0  0.53573  0.62108  0.43747  1.0000
  C   C743      1.0  0.43321  0.77859  0.21832  1.0000
  C   C744      1.0  0.51564  0.76373  0.22461  1.0000
  C   C745      1.0  0.52901  0.75864  0.25033  1.0000
  C   C746      1.0  0.52435  0.73408  0.25679  1.0000
  C   C747      1.0  0.50610  0.71389  0.23764  1.0000
  C   C748      1.0  0.49274  0.71898  0.21185  1.0000
  C   C749      1.0  0.49740  0.74354  0.20540  1.0000
  H   H592      1.0  0.54313  0.77386  0.26558  1.0000
  H   H593      1.0  0.53488  0.73080  0.27674  1.0000
  H   H594      1.0  0.47853  0.70372  0.19678  1.0000
  H   H595      1.0  0.48668  0.74677  0.18573  1.0000
  C   C750      1.0  0.52442  0.86268  0.00377  1.0000
  C   C751      1.0  0.50666  0.83771  0.00933  1.0000
  H   H596      1.0  0.34841  0.70848  0.22688  1.0000
  H   H597      1.0  0.53262  0.87484  0.02615  1.0000
  P   P27       1.0  0.38592  0.75225  0.18897  1.0000
  C   C752      1.0  0.56326  0.94270  0.23742  1.0000
  C   C753      1.0  0.57026  0.94594  0.20170  1.0000
  C   C754      1.0  0.49379  0.91138  0.99479  1.0000
  H   H598      1.0  0.55103  0.92417  0.24743  1.0000
  C   C755      1.0  0.31223  0.51247  0.13527  1.0000
  C   C756      1.0  0.39171  0.83673  0.27120  1.0000
  C   C757      1.0  0.41580  0.84040  0.27608  1.0000
  C   C758      1.0  0.43019  0.84070  0.24694  1.0000
  C   C759      1.0  0.42044  0.83708  0.21275  1.0000
  C   C760      1.0  0.39608  0.83263  0.20809  1.0000
  C   C761      1.0  0.38184  0.83261  0.23712  1.0000
  H   H599      1.0  0.42340  0.84322  0.30249  1.0000
  H   H600      1.0  0.44884  0.84392  0.25090  1.0000
  H   H601      1.0  0.38804  0.82898  0.18197  1.0000
  H   H602      1.0  0.36300  0.82879  0.23340  1.0000
  H   H603      1.0  0.42927  0.85689  0.10285  1.0000
  C   C762      1.0  0.55549  0.68856  0.21138  1.0000
  C   C763      1.0  0.59213  0.56788  0.22468  1.0000
  C   C764      1.0  0.56749  0.56254  0.23029  1.0000
  C   C765      1.0  0.56210  0.58018  0.24562  1.0000
  C   C766      1.0  0.58131  0.60410  0.25396  1.0000
  C   C767      1.0  0.60599  0.60952  0.24813  1.0000
  C   C768      1.0  0.46656  0.50720  0.31022  1.0000
  H   H604      1.0  0.55250  0.54459  0.22260  1.0000
  H   H605      1.0  0.54307  0.57535  0.25067  1.0000
  H   H606      1.0  0.62110  0.62785  0.25453  1.0000
  H   H607      1.0  0.53986  0.97741  0.17226  1.0000
  C   C769      1.0  0.39240  0.90064  0.26363  1.0000
  H   H608      1.0  0.38599  0.96669  0.26474  1.0000
  C   C770      1.0  0.34735  0.94610  0.25037  1.0000
  C   C771      1.0  0.45116  0.64291  0.42249  1.0000
  H   H609      1.0  0.45876  0.56565  0.13661  1.0000
  H   H610      1.0  0.63111  0.60839  0.15025  1.0000
  C   C772      1.0  0.57001  0.67756  0.21825  1.0000
  H   H611      1.0  0.46246  0.65414  0.40050  1.0000
  C   C773      1.0  0.53332  0.78872  0.12083  1.0000
  C   C774      1.0  0.47815  0.90848  0.15589  1.0000
  H   H612      1.0  0.44364  0.71181  0.48006  1.0000
  C   C775      1.0  0.42324  0.61406  0.47988  1.0000
  H   H613      1.0  0.36294  0.49362  0.39917  1.0000
  H   H614      1.0  0.50847  0.53891  0.14541  1.0000
  C   C776      1.0  0.53086  0.97092  0.44384  1.0000
  C   C777      1.0  0.44857  0.56795  0.43690  1.0000
  C   C778      1.0  0.44791  0.56396  0.40019  1.0000
  C   C779      1.0  0.46652  0.56106  0.38375  1.0000
  C   C780      1.0  0.48608  0.56237  0.40363  1.0000
  C   C781      1.0  0.61379  0.90018  0.05608  1.0000
  C   C782      1.0  0.32826  0.94768  0.23294  1.0000
  C   C783      1.0  0.54847  0.48934  0.25622  1.0000
  S   S119      1.0  0.34250  0.91796  0.27127  1.0000
  C   C784      1.0  0.32993  0.76085  0.23214  1.0000
  S   S120      1.0  0.63749  0.51242  0.23041  1.0000
  H   H615      1.0  0.46619  0.55862  0.35534  1.0000
  H   H616      1.0  0.50096  0.56101  0.39059  1.0000
  C   C785      1.0  0.52557  0.79264  0.08800  1.0000
  H   H617      1.0  0.53284  0.59956  0.01453  1.0000
  C   C786      1.0  0.53552  0.52735  0.13559  1.0000
  H   H618      1.0  0.48410  0.98363  0.33812  1.0000
  C   C787      1.0  0.43589  0.73628  0.23669  1.0000
  C   C788      1.0  0.45576  0.75990  0.24415  1.0000
  C   C789      1.0  0.45442  0.78103  0.23496  1.0000
  H   H619      1.0  0.43725  0.71997  0.24338  1.0000
  H   H620      1.0  0.47238  0.76191  0.25668  1.0000
  H   H621      1.0  0.47005  0.79930  0.24035  1.0000
  H   H622      1.0  0.45649  0.95263  0.26070  1.0000
  C   C790      1.0  0.51715  0.94852  0.46220  1.0000
  C   C791      1.0  0.41312  0.89810  0.27063  1.0000
  C   C792      1.0  0.39561  0.55188  0.43444  1.0000
  H   H623      1.0  0.58501  0.59634  0.00390  1.0000
  C   C793      1.0  0.35771  0.54553  0.40621  1.0000
  H   H624      1.0  0.44326  0.89479  0.24791  1.0000
  H   H625      1.0  0.57937  0.65004  0.20261  1.0000
  C   C794      1.0  0.37949  0.56073  0.42502  1.0000
  C   C795      1.0  0.49835  0.59101  0.13651  1.0000
  C   C796      1.0  0.54575  0.53392  0.00956  1.0000
  C   C797      1.0  0.54536  0.93200  0.99757  1.0000
  C   C798      1.0  0.41302  0.75493  0.21103  1.0000
  C   C799      1.0  0.38145  0.51087  0.31812  1.0000
  H   H626      1.0  0.45179  0.61052  0.40458  1.0000
  C   C800      1.0  0.44517  0.61804  0.42503  1.0000
  C   C801      1.0  0.57960  0.84272  0.99919  1.0000
  C   C802      1.0  0.31981  0.86065  0.11703  1.0000
  P   P28       1.0  0.42422  0.57149  0.45782  1.0000
  C   C803      1.0  0.61972  0.63603  0.14575  1.0000
  H   H627      1.0  0.35963  0.85422  0.19070  1.0000
  H   H628      1.0  0.38380  0.81093  0.10156  1.0000
  C   C804      1.0  0.33281  0.97022  0.21693  1.0000
  C   C805      1.0  0.58662  0.97033  0.18971  1.0000
  C   C806      1.0  0.41453  0.73373  0.22028  1.0000
  C   C807      1.0  0.48239  0.94849  0.17002  1.0000
  H   H629      1.0  0.33614  0.74616  0.18418  1.0000
  H   H630      1.0  0.39949  0.71523  0.21467  1.0000
  H   H631      1.0  0.56732  0.96036  0.28814  1.0000
  H   H632      1.0  0.43255  0.79516  0.21109  1.0000
  H   H633      1.0  0.52484  0.65567  0.13851  1.0000
  H   H634      1.0  0.56530  0.93956  0.99855  1.0000
  H   H635      1.0  0.55502  0.89827  0.09545  1.0000
  C   C808      1.0  0.39277  0.80050  0.10939  1.0000
  C   C809      1.0  0.47615  0.57170  0.15038  1.0000
  C   C810      1.0  0.55714  0.65919  0.04322  1.0000
  C   C811      1.0  0.57252  0.96341  0.26054  1.0000
  H   H636      1.0  0.45883  0.54651  0.19416  1.0000
  C   C812      1.0  0.47613  0.56088  0.18284  1.0000
  C   C813      1.0  0.37111  0.96752  0.25118  1.0000
  C   C814      1.0  0.34866  0.85630  0.17023  1.0000
  C   C815      1.0  0.46832  0.56923  0.45671  1.0000
  C   C816      1.0  0.35177  0.52137  0.39692  1.0000
  H   H637      1.0  0.41722  0.51759  0.33546  1.0000
  H   H638      1.0  0.43294  0.91640  0.03969  1.0000
  C   C817      1.0  0.56804  0.82412  0.07366  1.0000
  H   H639      1.0  0.55243  0.85998  0.07172  1.0000
  C   C818      1.0  0.57120  0.59583  0.14527  1.0000
  C   C819      1.0  0.36813  0.76035  0.21875  1.0000
  H   H640      1.0  0.42616  0.76457  0.13842  1.0000
  C   C820      1.0  0.33514  0.67063  0.15552  1.0000
  Fe  Fe62      1.0  0.32129  0.87648  0.28868  1.0000
  H   H641      1.0  0.53727  0.59621  0.20330  1.0000
  H   H642      1.0  0.49805  0.56184  0.22750  1.0000
  Fe  Fe63      1.0  0.62305  0.52869  0.18964  1.0000
  C   C821      1.0  0.61559  0.61174  0.14768  1.0000
  C   C822      1.0  0.49828  0.56942  0.20155  1.0000
  C   C823      1.0  0.57360  0.57720  0.99544  1.0000
  H   H643      1.0  0.44064  0.79146  0.08550  1.0000
  H   H644      1.0  0.47378  0.90316  0.99396  1.0000
  C   C824      1.0  0.41284  0.80252  0.08979  1.0000
  H   H645      1.0  0.47902  0.96352  0.16313  1.0000
  C   C825      1.0  0.56871  0.65897  0.19590  1.0000
  C   C826      1.0  0.37767  0.77136  0.25174  1.0000
  C   C827      1.0  0.44341  0.65346  0.44872  1.0000
  C   C828      1.0  0.52078  0.59926  0.15483  1.0000
  H   H646      1.0  0.51988  0.77560  0.13947  1.0000
  H   H647      1.0  0.52463  0.94792  0.36484  1.0000
  C   C829      1.0  0.42763  0.89754  0.24267  1.0000
  C   C830      1.0  0.34938  0.70296  0.19998  1.0000
  H   H648      1.0  0.49780  0.59989  0.11216  1.0000
  C   C831      1.0  0.52077  0.95382  0.33984  1.0000
  C   C832      1.0  0.41661  0.77443  0.13054  1.0000
  C   C833      1.0  0.37434  0.95889  0.15664  1.0000
  C   C834      1.0  0.39647  0.77230  0.15048  1.0000
  C   C835      1.0  0.52046  0.58871  0.18775  1.0000
  C   C836      1.0  0.50525  0.91140  0.02665  1.0000
  C   C837      1.0  0.56014  0.55864  0.02040  1.0000
  C   C838      1.0  0.42476  0.78951  0.10037  1.0000
  C   C839      1.0  0.54474  0.51194  0.14648  1.0000
  H   H649      1.0  0.34552  0.55258  0.39853  1.0000
  H   H650      1.0  0.41944  0.81441  0.06666  1.0000
  C   C840      1.0  0.61500  0.92199  0.06879  1.0000
  H   H651      1.0  0.36943  0.78468  0.15471  1.0000
  C   C841      1.0  0.38462  0.78549  0.13965  1.0000
  C   C842      1.0  0.36599  0.72039  0.17551  1.0000
  H   H652      1.0  0.58166  0.68279  0.24159  1.0000
  H   H653      1.0  0.50604  0.78263  0.08108  1.0000
  P   P29       1.0  0.54928  0.62565  0.13953  1.0000
  S   S121      1.0  0.32454  0.84825  0.25481  1.0000
  H   H654      1.0  0.49502  0.89473  0.19268  1.0000
  C   C843      1.0  0.39786  0.50369  0.33173  1.0000
  C   C844      1.0  0.55297  0.65134  0.16635  1.0000
  H   H655      1.0  0.55588  0.70243  0.22928  1.0000
  H   H656      1.0  0.45811  0.51492  0.32743  1.0000
  C   C845      1.0  0.49142  0.90970  0.18635  1.0000
  Fe  Fe64      1.0  0.63396  0.50237  0.12758  1.0000
  C   C846      1.0  0.53957  0.68087  0.18225  1.0000
  H   H657      1.0  0.52769  0.68884  0.17783  1.0000
  H   H658      1.0  0.63031  0.90112  0.04490  1.0000
  C   C847      1.0  0.53807  0.66213  0.16003  1.0000
  H   H659      1.0  0.55461  0.50706  0.24337  1.0000
  C   C848      1.0  0.53824  0.97644  0.32483  1.0000
  H   H660      1.0  0.51161  0.93141  0.23105  1.0000
  H   H661      1.0  0.55263  0.58007  0.14540  1.0000
  C   C849      1.0  0.38587  0.90211  0.22873  1.0000
  H   H662      1.0  0.35265  0.68196  0.10438  1.0000
  C   C850      1.0  0.50044  0.93040  0.20847  1.0000
  C   C851      1.0  0.54817  0.63913  0.01979  1.0000
  H   H663      1.0  0.54390  0.53964  0.11320  1.0000
  H   H664      1.0  0.47104  0.89229  0.13897  1.0000
  C   C852      1.0  0.48912  0.52308  0.29351  1.0000
  H   H665      1.0  0.48524  0.92070  0.33334  1.0000
  H   H666      1.0  0.47745  0.93286  0.27500  1.0000
  C   C853      1.0  0.49862  0.93849  0.32205  1.0000
  C   C854      1.0  0.57515  0.62016  0.14383  1.0000
  H   H667      1.0  0.36947  0.90363  0.22379  1.0000
  C   C855      1.0  0.42123  0.89921  0.20776  1.0000
  H   H668      1.0  0.49812  0.54299  0.29804  1.0000
  H   H669      1.0  0.53315  0.59235  0.07884  1.0000
  C   C856      1.0  0.39999  0.90101  0.20046  1.0000
  C   C857      1.0  0.54809  0.63103  0.09288  1.0000
  C   C858      1.0  0.41613  0.95369  0.14567  1.0000
  C   C859      1.0  0.53960  0.61103  0.06914  1.0000
  H   H670      1.0  0.59245  0.97322  0.16231  1.0000
  H   H671      1.0  0.58827  0.57288  0.14893  1.0000
  C   C860      1.0  0.53951  0.61506  0.03273  1.0000
  H   H672      1.0  0.56492  0.67108  0.09723  1.0000
  C   C861      1.0  0.59136  0.59167  0.14701  1.0000
  H   H673      1.0  0.63853  0.65158  0.14648  1.0000
  C   C862      1.0  0.49517  0.94951  0.20116  1.0000
  C   C863      1.0  0.55731  0.65522  0.07963  1.0000
  H   H674      1.0  0.48981  0.51131  0.19679  1.0000
  C   C864      1.0  0.62837  0.48495  0.99580  1.0000
  H   H675      1.0  0.37982  0.72558  0.12161  1.0000
  H   H676      1.0  0.43263  0.89847  0.18685  1.0000
  C   C865      1.0  0.36711  0.71263  0.14097  1.0000
  C   C866      1.0  0.38937  0.52746  0.42532  1.0000
  H   H677      1.0  0.62916  0.87111  0.09816  1.0000
  C   C867      1.0  0.47409  0.92810  0.14733  1.0000
  C   C868      1.0  0.59959  0.64024  0.14337  1.0000
  C   C869      1.0  0.39721  0.97975  0.14882  1.0000
  H   H678      1.0  0.41035  0.92524  0.08609  1.0000
  C   C870      1.0  0.36332  0.77678  0.27478  1.0000
  H   H679      1.0  0.32120  0.66484  0.20897  1.0000
  H   H680      1.0  0.60308  0.65917  0.14164  1.0000
  H   H681      1.0  0.53988  0.92162  0.05269  1.0000
  C   C871      1.0  0.40787  0.89678  0.12197  1.0000
  H   H682      1.0  0.63048  0.59611  0.22986  1.0000
  H   H683      1.0  0.33080  0.52496  0.14502  1.0000
  H   H684      1.0  0.63240  0.93941  0.06792  1.0000
  C   C872      1.0  0.41815  0.97719  0.14349  1.0000
  H   H685      1.0  0.56519  0.80295  0.00228  1.0000
  H   H686      1.0  0.48868  0.64814  0.47704  1.0000
  H   H687      1.0  0.43338  0.56367  0.38401  1.0000
  C   C873      1.0  0.35867  0.87796  0.14956  1.0000
  H   H688      1.0  0.51731  0.52598  0.25783  1.0000
  C   C874      1.0  0.35170  0.68784  0.13106  1.0000
  C   C875      1.0  0.41490  0.91070  0.09047  1.0000
  C   C876      1.0  0.61140  0.59150  0.23410  1.0000
  H   H689      1.0  0.53560  0.51948  0.02899  1.0000
  H   H690      1.0  0.35825  0.96102  0.16138  1.0000
  C   C877      1.0  0.36753  0.51230  0.40664  1.0000
  H   H691      1.0  0.44253  0.88222  0.04787  1.0000
  P   P30       1.0  0.39044  0.90227  0.15572  1.0000
  C   C878      1.0  0.59144  0.87741  0.05828  1.0000
  C   C879      1.0  0.43159  0.60354  0.45409  1.0000
  C   C880      1.0  0.34401  0.75490  0.20931  1.0000
  C   C881      1.0  0.51165  0.96831  0.27355  1.0000
  H   H692      1.0  0.56119  0.56339  0.04818  1.0000
  H   H693      1.0  0.31153  0.75706  0.22451  1.0000
  C   C882      1.0  0.49982  0.51342  0.27041  1.0000
  C   C883      1.0  0.62014  0.85127  0.04829  1.0000
  C   C884      1.0  0.42750  0.90557  0.06389  1.0000
  H   H694      1.0  0.43260  0.95205  0.14231  1.0000
  C   C885      1.0  0.57137  0.89888  0.08405  1.0000
  H   H695      1.0  0.32323  0.65142  0.14780  1.0000
  H   H696      1.0  0.38378  0.57944  0.43168  1.0000
  H   H697      1.0  0.50253  0.56819  0.45532  1.0000
  H   H698      1.0  0.34453  0.49849  0.29874  1.0000
  H   H699      1.0  0.59475  0.83067  0.11517  1.0000
  C   C886      1.0  0.63332  0.50135  0.02448  1.0000
  C   C887      1.0  0.62849  0.84079  0.02246  1.0000
  H   H700      1.0  0.37090  0.78565  0.29999  1.0000
  C   C888      1.0  0.43281  0.88627  0.06836  1.0000
  C   C889      1.0  0.63531  0.86313  0.07766  1.0000
  H   H701      1.0  0.35453  0.91977  0.16669  1.0000
  H   H702      1.0  0.40158  0.52031  0.43232  1.0000
  C   C890      1.0  0.37226  0.93544  0.15909  1.0000
  H   H703      1.0  0.35197  0.89588  0.10511  1.0000
  C   C891      1.0  0.53104  0.92183  0.02807  1.0000
  C   C892      1.0  0.41248  0.87688  0.12554  1.0000
  H   H704      1.0  0.51976  0.77004  0.47268  1.0000
  H   H705      1.0  0.54201  0.97159  0.42130  1.0000
  S   S122      1.0  0.62990  0.48962  0.06891  1.0000
  C   C893      1.0  0.53419  0.49618  0.17557  1.0000
  H   H706      1.0  0.40634  0.86521  0.14884  1.0000
  C   C894      1.0  0.33963  0.77185  0.26484  1.0000
  C   C895      1.0  0.55835  0.80234  0.13019  1.0000
  C   C896      1.0  0.33400  0.67819  0.18997  1.0000
  C   C897      1.0  0.54281  0.81028  0.06457  1.0000
  C   C898      1.0  0.34431  0.87971  0.12221  1.0000
  H   H707      1.0  0.56413  0.67789  0.03315  1.0000
  H   H708      1.0  0.44848  0.67286  0.44681  1.0000
  H   H709      1.0  0.51769  0.93206  0.45377  1.0000
  H   H710      1.0  0.46429  0.92737  0.12334  1.0000
  H   H711      1.0  0.54811  0.64230  0.99158  1.0000
  C   C899      1.0  0.59388  0.92125  0.08329  1.0000
  H   H712      1.0  0.38809  0.53021  0.31149  1.0000
  C   C900      1.0  0.39299  0.93253  0.15247  1.0000
  S   S123      1.0  0.60009  0.49191  0.16159  1.0000
  H   H713      1.0  0.42234  0.96167  0.25678  1.0000
  H   H714      1.0  0.31779  0.97110  0.20377  1.0000
  C   C901      1.0  0.48693  0.56637  0.44009  1.0000
  H   H715      1.0  0.49420  0.90307  0.05020  1.0000
  P   P31       1.0  0.50670  0.97641  0.22938  1.0000
  C   C902      1.0  0.49413  0.94561  0.28902  1.0000
  H   H716      1.0  0.33502  0.50974  0.38199  1.0000
  C   C903      1.0  0.57009  0.87711  0.07119  1.0000
  C   C904      1.0  0.57566  0.81997  0.10677  1.0000
  H   H717      1.0  0.53616  0.81365  0.03988  1.0000
  C   C905      1.0  0.45968  0.96915  0.24680  1.0000
  C   C906      1.0  0.50035  0.64004  0.48171  1.0000
  C   C907      1.0  0.44008  0.97414  0.24447  1.0000
  C   C908      1.0  0.50527  0.51144  0.18317  1.0000
  C   C909      1.0  0.51569  0.52700  0.15380  1.0000
  H   H718      1.0  0.56410  0.79968  0.15615  1.0000
  H   H719      1.0  0.59489  0.93790  0.09429  1.0000
  H   H720      1.0  0.38447  0.48581  0.22659  1.0000
  C   C910      1.0  0.35682  0.49299  0.31122  1.0000
  H   H721      1.0  0.31669  0.87452  0.43413  1.0000
  H   H722      1.0  0.32898  0.77692  0.28237  1.0000
  H   H723      1.0  0.58570  0.49897  0.27091  1.0000
  C   C911      1.0  0.51480  0.49627  0.19470  1.0000
  H   H724      1.0  0.56041  0.51244  0.13285  1.0000
  H   H725      1.0  0.47656  0.74949  0.45009  1.0000
  C   C912      1.0  0.64076  0.52622  0.01685  1.0000
  C   C913      1.0  0.32419  0.83725  0.16497  1.0000
  C   C914      1.0  0.48781  0.48782  0.26336  1.0000
  H   H726      1.0  0.61719  0.83133  0.99971  1.0000
  C   C915      1.0  0.42929  0.63899  0.47731  1.0000
  C   C916      1.0  0.48107  0.74186  0.47286  1.0000
  H   H727      1.0  0.31632  0.82081  0.18168  1.0000
  C   C917      1.0  0.53369  0.98372  0.29196  1.0000
  H   H728      1.0  0.59227  0.88134  0.98628  1.0000
  H   H729      1.0  0.48238  0.80297  0.98338  1.0000
  C   C918      1.0  0.56806  0.81840  0.98565  1.0000
  C   C919      1.0  0.56619  0.48493  0.27229  1.0000
  S   S124      1.0  0.59742  0.50717  0.82399  1.0000
  C   C920      1.0  0.59551  0.50069  0.66979  1.0000
  H   H730      1.0  0.35468  0.85962  0.54859  1.0000
  C   C921      1.0  0.40308  0.50750  0.90879  1.0000
  S   S125      1.0  0.33830  0.88167  0.65466  1.0000
  P   P32       1.0  0.45238  0.49086  0.64693  1.0000
  Fe  Fe65      1.0  0.33926  0.84897  0.67821  1.0000
  S   S126      1.0  0.37904  0.85628  0.67875  1.0000
  H   H731      1.0  0.55128  0.93150  0.82762  1.0000
  Fe  Fe66      1.0  0.47517  0.83571  0.78726  1.0000
  S   S127      1.0  0.49951  0.84126  0.74003  1.0000
  S   S128      1.0  0.43344  0.82110  0.78736  1.0000
  Fe  Fe67      1.0  0.51831  0.85489  0.83980  1.0000
  S   S129      1.0  0.54582  0.86199  0.79556  1.0000
  S   S130      1.0  0.53139  0.86968  0.89622  1.0000
  Fe  Fe68      1.0  0.52626  0.87860  0.76485  1.0000
  S   S131      1.0  0.53981  0.91438  0.73085  1.0000
  Fe  Fe69      1.0  0.51708  0.82398  0.77405  1.0000
  S   S132      1.0  0.52994  0.79608  0.75547  1.0000
  S   S133      1.0  0.50046  0.87335  0.81001  1.0000
  S   S134      1.0  0.49100  0.81648  0.82035  1.0000
  Fe  Fe70      1.0  0.52703  0.61744  0.70187  1.0000
  S   S135      1.0  0.50538  0.59132  0.65811  1.0000
  S   S136      1.0  0.54750  0.60674  0.74351  1.0000
  Fe  Fe71      1.0  0.50600  0.65286  0.68451  1.0000
  S   S137      1.0  0.48297  0.62795  0.63928  1.0000
  S   S138      1.0  0.49850  0.68545  0.69785  1.0000
  Fe  Fe72      1.0  0.47334  0.59581  0.67596  1.0000
  S   S139      1.0  0.43520  0.56107  0.67263  1.0000
  Fe  Fe73      1.0  0.51637  0.62502  0.62392  1.0000
  S   S140      1.0  0.52745  0.62010  0.56736  1.0000
  S   S141      1.0  0.49393  0.62018  0.72195  1.0000
  S   S142      1.0  0.54061  0.65173  0.66700  1.0000
  C   C922      1.0  0.50568  0.96417  0.70193  1.0000
  C   C923      1.0  0.41698  0.54460  0.70976  1.0000
  C   C924      1.0  0.42297  0.55417  0.74408  1.0000
  C   C925      1.0  0.40766  0.54055  0.77276  1.0000
  C   C926      1.0  0.38639  0.51722  0.76741  1.0000
  C   C927      1.0  0.38056  0.50756  0.73313  1.0000
  C   C928      1.0  0.39571  0.52130  0.70447  1.0000
  H   H732      1.0  0.43924  0.57216  0.74845  1.0000
  H   H733      1.0  0.41226  0.54821  0.79916  1.0000
  H   H734      1.0  0.53643  0.78745  0.67156  1.0000
  H   H735      1.0  0.39086  0.51388  0.67802  1.0000
  C   C929      1.0  0.44838  0.86335  0.85907  1.0000
  C   C930      1.0  0.52029  0.62549  0.52355  1.0000
  C   C931      1.0  0.50461  0.63524  0.51685  1.0000
  C   C932      1.0  0.53251  0.70258  0.52278  1.0000
  H   H736      1.0  0.49635  0.63969  0.53884  1.0000
  C   C933      1.0  0.52034  0.76483  0.74049  1.0000
  C   C934      1.0  0.49587  0.74779  0.73048  1.0000
  C   C935      1.0  0.48965  0.72385  0.71748  1.0000
  C   C936      1.0  0.50760  0.71620  0.71449  1.0000
  C   C937      1.0  0.53201  0.73319  0.72467  1.0000
  C   C938      1.0  0.53828  0.75720  0.73730  1.0000
  H   H737      1.0  0.48175  0.75312  0.73246  1.0000
  H   H738      1.0  0.47070  0.71109  0.70983  1.0000
  H   H739      1.0  0.54617  0.72790  0.72265  1.0000
  H   H740      1.0  0.55729  0.77002  0.74470  1.0000
  C   C939      1.0  0.52108  0.85664  0.93929  1.0000
  C   C940      1.0  0.44480  0.50486  0.71437  1.0000
  C   C941      1.0  0.50318  0.83171  0.94478  1.0000
  H   H741      1.0  0.52530  0.70885  0.50159  1.0000
  H   H742      1.0  0.49499  0.81958  0.92226  1.0000
  C   C942      1.0  0.58077  0.95860  0.75574  1.0000
  C   C943      1.0  0.56244  0.94702  0.72981  1.0000
  C   C944      1.0  0.56190  0.96184  0.70181  1.0000
  H   H743      1.0  0.58188  0.94761  0.77713  1.0000
  H   H744      1.0  0.54814  0.95320  0.68124  1.0000
  C   C945      1.0  0.39396  0.84742  0.71063  1.0000
  C   C946      1.0  0.41871  0.85362  0.70450  1.0000
  C   C947      1.0  0.43133  0.84648  0.72847  1.0000
  C   C948      1.0  0.41905  0.83256  0.75846  1.0000
  C   C949      1.0  0.39432  0.82654  0.76482  1.0000
  C   C950      1.0  0.38185  0.83413  0.74115  1.0000
  H   H745      1.0  0.42798  0.86348  0.68062  1.0000
  H   H746      1.0  0.45026  0.85097  0.72309  1.0000
  H   H747      1.0  0.38469  0.81571  0.78794  1.0000
  H   H748      1.0  0.36279  0.82935  0.74617  1.0000
  H   H749      1.0  0.38709  0.52804  0.49875  1.0000
  H   H750      1.0  0.38962  0.86887  0.58924  1.0000
  C   C951      1.0  0.56415  0.59000  0.74083  1.0000
  C   C952      1.0  0.57191  0.58485  0.70865  1.0000
  C   C953      1.0  0.58614  0.57269  0.70819  1.0000
  C   C954      1.0  0.59246  0.56503  0.73974  1.0000
  C   C955      1.0  0.58392  0.56934  0.77179  1.0000
  C   C956      1.0  0.57013  0.58195  0.77233  1.0000
  H   H751      1.0  0.56760  0.59092  0.68416  1.0000
  H   H752      1.0  0.59256  0.56950  0.68315  1.0000
  H   H753      1.0  0.56432  0.58585  0.79736  1.0000
  H   H754      1.0  0.47447  0.48729  0.57903  1.0000
  C   C957      1.0  0.34287  0.95596  0.76472  1.0000
  C   C958      1.0  0.34103  0.94123  0.73518  1.0000
  C   C959      1.0  0.35734  0.95266  0.70678  1.0000
  H   H755      1.0  0.51377  0.54333  0.79790  1.0000
  H   H756      1.0  0.35619  0.94176  0.68378  1.0000
  Fe  Fe74      1.0  0.62064  0.52761  0.77678  1.0000
  C   C960      1.0  0.37083  0.86754  0.83201  1.0000
  C   C961      1.0  0.39277  0.88881  0.82164  1.0000
  C   C962      1.0  0.39187  0.90596  0.79823  1.0000
  C   C963      1.0  0.36868  0.90232  0.78718  1.0000
  P   P33       1.0  0.41984  0.93357  0.78446  1.0000
  C   C964      1.0  0.44361  0.63832  0.57704  1.0000
  C   C965      1.0  0.44681  0.92958  0.78552  1.0000
  C   C966      1.0  0.47044  0.95000  0.79214  1.0000
  H   H757      1.0  0.40489  0.95118  0.64132  1.0000
  C   C967      1.0  0.48904  0.92392  0.78523  1.0000
  C   C968      1.0  0.46572  0.90366  0.77754  1.0000
  C   C969      1.0  0.44470  0.90651  0.77711  1.0000
  H   H758      1.0  0.47047  0.66098  0.53768  1.0000
  H   H759      1.0  0.33083  0.84721  0.82793  1.0000
  C   C970      1.0  0.40925  0.97066  0.80464  1.0000
  C   C971      1.0  0.41651  0.93951  0.73867  1.0000
  C   C972      1.0  0.40435  0.91953  0.71514  1.0000
  C   C973      1.0  0.40049  0.92381  0.68005  1.0000
  C   C974      1.0  0.40859  0.94799  0.66824  1.0000
  C   C975      1.0  0.43955  0.98465  0.86454  1.0000
  H   H760      1.0  0.42258  0.49216  0.93617  1.0000
  H   H761      1.0  0.37161  0.85394  0.84918  1.0000
  H   H762      1.0  0.41032  0.89164  0.83162  1.0000
  H   H763      1.0  0.36426  0.48965  0.72864  1.0000
  C   C976      1.0  0.46049  0.93649  0.66689  1.0000
  H   H764      1.0  0.50540  0.92181  0.78454  1.0000
  H   H765      1.0  0.46405  0.88582  0.77131  1.0000
  H   H766      1.0  0.42694  0.89075  0.76981  1.0000
  C   C977      1.0  0.49163  0.53470  0.88231  1.0000
  H   H767      1.0  0.43971  0.86079  0.83340  1.0000
  H   H768      1.0  0.39755  0.90058  0.72393  1.0000
  H   H769      1.0  0.47808  0.53999  0.83243  1.0000
  C   C978      1.0  0.49437  0.93828  0.70059  1.0000
  C   C979      1.0  0.46268  0.88721  0.87302  1.0000
  H   H770      1.0  0.46508  0.90303  0.85770  1.0000
  H   H771      1.0  0.41822  0.52647  0.91076  1.0000
  C   C980      1.0  0.58345  0.86241  0.97675  1.0000
  C   C981      1.0  0.57288  0.57108  0.95967  1.0000
  C   C982      1.0  0.35029  0.71765  0.54704  1.0000
  H   H772      1.0  0.53391  0.50847  0.96590  1.0000
  H   H773      1.0  0.44631  0.95482  0.85139  1.0000
  H   H774      1.0  0.56538  0.97614  0.81724  1.0000
  C   C983      1.0  0.47188  0.86985  0.92444  1.0000
  H   H775      1.0  0.33543  0.51731  0.75945  1.0000
  C   C984      1.0  0.47424  0.93613  0.93345  1.0000
  S   S143      1.0  0.64206  0.52982  0.90823  1.0000
  C   C985      1.0  0.50542  0.75344  0.48557  1.0000
  H   H776      1.0  0.48162  0.49069  0.75460  1.0000
  C   C986      1.0  0.50804  0.92155  0.96400  1.0000
  H   H777      1.0  0.33748  0.52546  0.82369  1.0000
  C   C987      1.0  0.51133  0.74363  0.51490  1.0000
  H   H778      1.0  0.47514  0.69595  0.63836  1.0000
  C   C988      1.0  0.38095  0.50266  0.89246  1.0000
  C   C989      1.0  0.37479  0.97841  0.70771  1.0000
  H   H779      1.0  0.46775  0.48948  0.81294  1.0000
  H   H780      1.0  0.32309  0.78177  0.57018  1.0000
  C   C990      1.0  0.43912  0.57951  0.52847  1.0000
  C   C991      1.0  0.56341  0.83346  0.92863  1.0000
  C   C992      1.0  0.57548  0.85775  0.94160  1.0000
  C   C993      1.0  0.46992  0.96839  0.96397  1.0000
  H   H781      1.0  0.54585  0.89111  0.96513  1.0000
  C   C994      1.0  0.54176  0.97787  0.85788  1.0000
  C   C995      1.0  0.46256  0.72056  0.48967  1.0000
  H   H782      1.0  0.31454  0.78966  0.72387  1.0000
  C   C996      1.0  0.45788  0.84603  0.91009  1.0000
  C   C997      1.0  0.51114  0.53389  0.89970  1.0000
  C   C998      1.0  0.54106  0.50200  0.75777  1.0000
  H   H783      1.0  0.32760  0.88960  0.49600  1.0000
  H   H784      1.0  0.34500  0.69682  0.59506  1.0000
  C   C999      1.0  0.53393  0.93173  0.96554  1.0000
  C   C1000     1.0  0.43675  0.57363  0.56450  1.0000
  H   H785      1.0  0.58215  0.51569  0.94398  1.0000
  C   C1001     1.0  0.42248  0.95831  0.81272  1.0000
  C   C1002     1.0  0.50296  0.94737  0.49167  1.0000
  S   S144      1.0  0.31392  0.84488  0.72328  1.0000
  H   H786      1.0  0.55657  0.82993  0.90164  1.0000
  H   H787      1.0  0.57794  0.87289  0.92455  1.0000
  H   H788      1.0  0.35671  0.74303  0.50405  1.0000
  H   H789      1.0  0.48158  0.57059  0.58402  1.0000
  H   H790      1.0  0.43567  0.82434  0.86603  1.0000
  H   H791      1.0  0.44310  0.92562  0.65304  1.0000
  H   H792      1.0  0.49973  0.53306  0.66902  1.0000
  C   C1003     1.0  0.43576  0.93750  0.92935  1.0000
  C   C1004     1.0  0.46771  0.53523  0.61029  1.0000
  C   C1005     1.0  0.47944  0.55214  0.58269  1.0000
  C   C1006     1.0  0.48925  0.54570  0.55398  1.0000
  C   C1007     1.0  0.44985  0.92626  0.92071  1.0000
  H   H793      1.0  0.44139  0.90977  0.90447  1.0000
  C   C1008     1.0  0.62929  0.52449  0.62902  1.0000
  C   C1009     1.0  0.49698  0.48773  0.76098  1.0000
  C   C1010     1.0  0.35590  0.84458  0.56135  1.0000
  C   C1011     1.0  0.47618  0.54058  0.74618  1.0000
  H   H794      1.0  0.41698  0.92983  0.91935  1.0000
  S   S145      1.0  0.61872  0.49331  0.75248  1.0000
  C   C1012     1.0  0.55866  0.54625  0.94855  1.0000
  H   H795      1.0  0.60673  0.54234  0.88721  1.0000
  H   H796      1.0  0.43482  0.96724  0.95762  1.0000
  H   H797      1.0  0.49245  0.93003  0.50601  1.0000
  C   C1013     1.0  0.34785  0.86372  0.82009  1.0000
  C   C1014     1.0  0.43501  0.63713  0.61160  1.0000
  H   H798      1.0  0.39113  0.90826  0.66210  1.0000
  H   H799      1.0  0.60898  0.61813  0.84023  1.0000
  H   H800      1.0  0.48146  0.55360  0.76794  1.0000
  H   H801      1.0  0.48150  0.87186  0.94911  1.0000
  C   C1015     1.0  0.34824  0.71425  0.58371  1.0000
  P   P34       1.0  0.55819  0.53794  0.90252  1.0000
  C   C1016     1.0  0.53673  0.74424  0.61614  1.0000
  C   C1017     1.0  0.54353  0.49115  0.87298  1.0000
  Fe  Fe75      1.0  0.31184  0.87685  0.69796  1.0000
  H   H802      1.0  0.54536  0.93920  0.94212  1.0000
  C   C1018     1.0  0.54370  0.94085  0.84334  1.0000
  H   H803      1.0  0.31949  0.92390  0.60754  1.0000
  H   H804      1.0  0.58380  0.58576  0.94099  1.0000
  H   H805      1.0  0.43665  0.50188  0.82904  1.0000
  H   H806      1.0  0.52047  0.90831  0.87400  1.0000
  C   C1019     1.0  0.49758  0.74398  0.61267  1.0000
  Fe  Fe76      1.0  0.63307  0.51473  0.85087  1.0000
  C   C1020     1.0  0.55160  0.96596  0.83752  1.0000
  C   C1021     1.0  0.42138  0.56318  0.50419  1.0000
  C   C1022     1.0  0.47189  0.96246  0.66778  1.0000
  H   H807      1.0  0.42015  0.61978  0.62204  1.0000
  C   C1023     1.0  0.52601  0.92766  0.86950  1.0000
  C   C1024     1.0  0.46589  0.51171  0.60960  1.0000
  H   H808      1.0  0.38330  0.51791  0.56227  1.0000
  S   S146      1.0  0.36753  0.50092  0.80415  1.0000
  C   C1025     1.0  0.51571  0.93934  0.88973  1.0000
  H   H809      1.0  0.57134  0.58645  0.87094  1.0000
  C   C1026     1.0  0.53168  0.87196  0.96905  1.0000
  C   C1027     1.0  0.44608  0.84276  0.87751  1.0000
  H   H810      1.0  0.49311  0.48896  0.68478  1.0000
  C   C1028     1.0  0.54520  0.76340  0.64108  1.0000
  C   C1029     1.0  0.41668  0.55139  0.57659  1.0000
  C   C1030     1.0  0.63087  0.49318  0.96025  1.0000
  H   H811      1.0  0.45375  0.69438  0.53184  1.0000
  H   H812      1.0  0.58158  0.49972  0.68812  1.0000
  H   H813      1.0  0.50337  0.92891  0.71256  1.0000
  H   H814      1.0  0.33031  0.94747  0.78681  1.0000
  H   H815      1.0  0.55970  0.51590  0.75029  1.0000
  H   H816      1.0  0.43842  0.51771  0.76402  1.0000
  C   C1031     1.0  0.50245  0.96863  0.50278  1.0000
  H   H817      1.0  0.41480  0.54695  0.60456  1.0000
  H   H818      1.0  0.45478  0.59687  0.51954  1.0000
  C   C1032     1.0  0.49143  0.94714  0.79212  1.0000
  H   H819      1.0  0.46320  0.97142  0.65412  1.0000
  C   C1033     1.0  0.31970  0.51728  0.81032  1.0000
  C   C1034     1.0  0.36068  0.98163  0.76594  1.0000
  C   C1035     1.0  0.35486  0.74027  0.53247  1.0000
  H   H820      1.0  0.45672  0.83013  0.92384  1.0000
  H   H821      1.0  0.47603  0.53319  0.89733  1.0000
  C   C1036     1.0  0.42138  0.96801  0.69126  1.0000
  C   C1037     1.0  0.37687  0.83041  0.60119  1.0000
  C   C1038     1.0  0.52423  0.70105  0.55785  1.0000
  C   C1039     1.0  0.33818  0.80063  0.57360  1.0000
  C   C1040     1.0  0.61065  0.52282  0.65165  1.0000
  H   H822      1.0  0.36739  0.91562  0.76991  1.0000
  C   C1041     1.0  0.55981  0.81380  0.95059  1.0000
  C   C1042     1.0  0.47480  0.68170  0.58577  1.0000
  C   C1043     1.0  0.46616  0.68031  0.62051  1.0000
  C   C1044     1.0  0.48407  0.95720  0.95539  1.0000
  H   H823      1.0  0.54903  0.73743  0.60831  1.0000
  C   C1045     1.0  0.49298  0.72192  0.53143  1.0000
  H   H824      1.0  0.52354  0.97447  0.71486  1.0000
  C   C1046     1.0  0.52113  0.50605  0.75179  1.0000
  C   C1047     1.0  0.44579  0.95856  0.95095  1.0000
  H   H825      1.0  0.51200  0.56021  0.72102  1.0000
  H   H826      1.0  0.56347  0.77068  0.65269  1.0000
  C   C1048     1.0  0.53118  0.62017  0.49451  1.0000
  H   H827      1.0  0.37905  0.51773  0.88116  1.0000
  H   H828      1.0  0.60833  0.53888  0.65591  1.0000
  C   C1049     1.0  0.55886  0.68598  0.54082  1.0000
  C   C1050     1.0  0.54985  0.69516  0.51440  1.0000
  S   S147      1.0  0.61095  0.55017  0.73753  1.0000
  H   H829      1.0  0.32902  0.87859  0.78907  1.0000
  C   C1051     1.0  0.34680  0.88128  0.79807  1.0000
  H   H830      1.0  0.47902  0.73655  0.60208  1.0000
  C   C1052     1.0  0.40123  0.54086  0.51662  1.0000
  C   C1053     1.0  0.44636  0.65811  0.63333  1.0000
  C   C1054     1.0  0.42583  0.96389  0.72613  1.0000
  C   C1055     1.0  0.35822  0.80566  0.59592  1.0000
  P   P35       1.0  0.35799  0.78053  0.62042  1.0000
  C   C1056     1.0  0.38675  0.78991  0.64369  1.0000
  C   C1057     1.0  0.33211  0.76998  0.65064  1.0000
  C   C1058     1.0  0.33361  0.78507  0.67924  1.0000
  P   P36       1.0  0.50123  0.70970  0.56921  1.0000
  C   C1059     1.0  0.52375  0.96461  0.88375  1.0000
  C   C1060     1.0  0.60688  0.55873  0.87727  1.0000
  C   C1061     1.0  0.52995  0.77287  0.65175  1.0000
  C   C1062     1.0  0.38667  0.78306  0.67917  1.0000
  C   C1063     1.0  0.40899  0.78925  0.69622  1.0000
  C   C1064     1.0  0.43154  0.80223  0.67808  1.0000
  C   C1065     1.0  0.43178  0.80879  0.64265  1.0000
  C   C1066     1.0  0.40945  0.80242  0.62538  1.0000
  C   C1067     1.0  0.35460  0.75597  0.59131  1.0000
  C   C1068     1.0  0.35720  0.75947  0.55449  1.0000
  C   C1069     1.0  0.63314  0.50419  0.62509  1.0000
  P   P37       1.0  0.49282  0.92174  0.92335  1.0000
  H   H831      1.0  0.54347  0.61278  0.49925  1.0000
  C   C1070     1.0  0.35052  0.73338  0.60580  1.0000
  H   H832      1.0  0.39181  0.83501  0.61969  1.0000
  H   H833      1.0  0.34852  0.70282  0.52992  1.0000
  H   H834      1.0  0.35030  0.80272  0.68352  1.0000
  C   C1071     1.0  0.51271  0.73420  0.60195  1.0000
  C   C1072     1.0  0.49337  0.54452  0.71954  1.0000
  H   H835      1.0  0.52607  0.68898  0.61104  1.0000
  H   H836      1.0  0.53356  0.49539  0.85329  1.0000
  H   H837      1.0  0.36952  0.77290  0.69388  1.0000
  H   H838      1.0  0.40893  0.78445  0.72385  1.0000
  H   H839      1.0  0.44881  0.80740  0.69171  1.0000
  H   H840      1.0  0.44930  0.81886  0.62866  1.0000
  H   H841      1.0  0.40989  0.80733  0.59778  1.0000
  H   H842      1.0  0.36125  0.77699  0.54264  1.0000
  C   C1073     1.0  0.53289  0.69118  0.58405  1.0000
  H   H843      1.0  0.34917  0.73063  0.63422  1.0000
  H   H844      1.0  0.53027  0.75286  0.52461  1.0000
  H   H845      1.0  0.51032  0.53174  0.92816  1.0000
  C   C1074     1.0  0.47409  0.89063  0.90619  1.0000
  C   C1075     1.0  0.47167  0.92442  0.68346  1.0000
  C   C1076     1.0  0.58605  0.56175  0.88115  1.0000
  C   C1077     1.0  0.60847  0.60166  0.85099  1.0000
  C   C1078     1.0  0.46354  0.66046  0.56421  1.0000
  H   H846      1.0  0.46297  0.90435  0.68270  1.0000
  H   H847      1.0  0.55038  0.79497  0.94044  1.0000
  H   H848      1.0  0.49495  0.51732  0.53045  1.0000
  C   C1079     1.0  0.55037  0.68397  0.57557  1.0000
  C   C1080     1.0  0.39895  0.53502  0.55269  1.0000
  S   S148      1.0  0.31732  0.90910  0.73443  1.0000
  C   C1081     1.0  0.46183  0.50925  0.68689  1.0000
  H   H849      1.0  0.50272  0.96500  0.96587  1.0000
  C   C1082     1.0  0.48628  0.52904  0.68997  1.0000
  H   H850      1.0  0.55684  0.67610  0.59569  1.0000
  C   C1083     1.0  0.49449  0.97653  0.68561  1.0000
  H   H851      1.0  0.64119  0.54179  0.61532  1.0000
  H   H852      1.0  0.43528  0.62189  0.56059  1.0000
  H   H853      1.0  0.58851  0.56347  0.79618  1.0000
  C   C1084     1.0  0.48713  0.52217  0.55266  1.0000
  H   H854      1.0  0.41690  0.50385  0.61463  1.0000
  H   H855      1.0  0.52454  0.52330  0.73953  1.0000
  H   H856      1.0  0.57171  0.67951  0.53416  1.0000
  H   H857      1.0  0.49423  0.77023  0.64657  1.0000
  H   H858      1.0  0.44053  0.65701  0.66067  1.0000
  C   C1085     1.0  0.37566  0.84977  0.58399  1.0000
  C   C1086     1.0  0.50614  0.76313  0.63762  1.0000
  C   C1087     1.0  0.49266  0.53833  0.84570  1.0000
  C   C1088     1.0  0.58709  0.58353  0.86818  1.0000
  H   H859      1.0  0.45045  0.58633  0.58318  1.0000
  H   H860      1.0  0.49889  0.55923  0.53317  1.0000
  C   C1089     1.0  0.53199  0.53900  0.84345  1.0000
  H   H861      1.0  0.47270  0.96823  0.79676  1.0000
  C   C1090     1.0  0.57074  0.50248  0.92385  1.0000
  C   C1091     1.0  0.62823  0.57685  0.86012  1.0000
  C   C1092     1.0  0.43695  0.96487  0.84358  1.0000
  C   C1093     1.0  0.51272  0.54022  0.82625  1.0000
  C   C1094     1.0  0.47551  0.50520  0.58036  1.0000
  C   C1095     1.0  0.55707  0.50824  0.89981  1.0000
  C   C1096     1.0  0.45202  0.52049  0.74387  1.0000
  H   H862      1.0  0.46054  0.54077  0.63256  1.0000
  C   C1097     1.0  0.33721  0.82001  0.55608  1.0000
  H   H863      1.0  0.54750  0.54068  0.82798  1.0000
  H   H864      1.0  0.49156  0.96775  0.52578  1.0000
  C   C1098     1.0  0.46843  0.71063  0.51895  1.0000
  C   C1099     1.0  0.53175  0.53664  0.88043  1.0000
  H   H865      1.0  0.39701  0.96523  0.78193  1.0000
  H   H866      1.0  0.42312  0.64710  0.49753  1.0000
  H   H867      1.0  0.50968  0.96298  0.79655  1.0000
  H   H868      1.0  0.42567  0.49012  0.71271  1.0000
  H   H869      1.0  0.41207  0.60305  0.50199  1.0000
  C   C1100     1.0  0.40655  0.48605  0.62774  1.0000
  C   C1101     1.0  0.62899  0.59825  0.84678  1.0000
  C   C1102     1.0  0.49609  0.82234  0.97955  1.0000
  C   C1103     1.0  0.63830  0.51805  0.95264  1.0000
  C   C1104     1.0  0.40555  0.48792  0.92273  1.0000
  C   C1105     1.0  0.54492  0.52774  0.97378  1.0000
  H   H870      1.0  0.51635  0.97420  0.89902  1.0000
  C   C1106     1.0  0.31857  0.51267  0.77401  1.0000
  C   C1107     1.0  0.31442  0.87021  0.49118  1.0000
  H   H871      1.0  0.46991  0.57304  0.48475  1.0000
  H   H872      1.0  0.32166  0.81613  0.53907  1.0000
  H   H873      1.0  0.43596  0.97975  0.74331  1.0000
  C   C1108     1.0  0.31341  0.77771  0.70215  1.0000
  S   S149      1.0  0.31107  0.86653  0.56397  1.0000
  H   H874      1.0  0.55572  0.69575  0.48720  1.0000
  C   C1109     1.0  0.64325  0.53444  0.98129  1.0000
  C   C1110     1.0  0.59813  0.98440  0.75363  1.0000
  S   S150      1.0  0.83801  0.43122  0.30460  1.0000
  C   C1111     1.0  0.95544  0.35376  0.20236  1.0000
  H   H875      1.0  0.78335  0.28059  0.00505  1.0000
  H   H876      1.0  0.94578  0.35111  0.17761  1.0000
  H   H877      1.0  0.66035  0.46308  0.06882  1.0000
  H   H878      1.0  0.65035  0.19016  0.29059  1.0000
  Fe  Fe77      1.0  0.66585  0.11019  0.27440  1.0000
  S   S151      1.0  0.70634  0.13423  0.25369  1.0000
  C   C1112     1.0  0.88878  0.42425  0.34408  1.0000
  Fe  Fe78      1.0  0.87488  0.31463  0.19765  1.0000
  S   S152      1.0  0.87626  0.33707  0.15038  1.0000
  S   S153      1.0  0.90848  0.32472  0.23415  1.0000
  Fe  Fe79      1.0  0.81712  0.28001  0.19182  1.0000
  S   S154      1.0  0.81545  0.30115  0.14392  1.0000
  S   S155      1.0  0.77945  0.25044  0.21661  1.0000
  Fe  Fe80      1.0  0.84948  0.30081  0.12403  1.0000
  S   S156      1.0  0.85475  0.29043  0.06714  1.0000
  Fe  Fe81      1.0  0.84218  0.33594  0.17316  1.0000
  S   S157      1.0  0.84087  0.37192  0.16895  1.0000
  S   S158      1.0  0.85010  0.27777  0.17049  1.0000
  S   S159      1.0  0.84191  0.31543  0.22216  1.0000
  C   C1113     1.0  0.94182  0.34301  0.23335  1.0000
  C   C1114     1.0  0.95507  0.34648  0.26507  1.0000
  H   H879      1.0  0.94494  0.33818  0.28924  1.0000
  H   H880      1.0  0.95455  0.41289  0.27472  1.0000
  C   C1115     1.0  0.84945  0.29845  0.02361  1.0000
  C   C1116     1.0  0.83967  0.31423  0.01778  1.0000
  H   H881      1.0  0.90028  0.46158  0.41574  1.0000
  H   H882      1.0  0.83515  0.32216  0.04010  1.0000
  C   C1117     1.0  0.96234  0.39903  0.05274  1.0000
  C   C1118     1.0  0.72661  0.16683  0.24481  1.0000
  C   C1119     1.0  0.71949  0.18478  0.25049  1.0000
  C   C1120     1.0  0.73584  0.21007  0.24179  1.0000
  C   C1121     1.0  0.75965  0.21803  0.22731  1.0000
  C   C1122     1.0  0.76691  0.20015  0.22220  1.0000
  C   C1123     1.0  0.75056  0.17485  0.23084  1.0000
  H   H883      1.0  0.70122  0.17909  0.26105  1.0000
  H   H884      1.0  0.72992  0.22360  0.24614  1.0000
  H   H885      1.0  0.78516  0.20585  0.21160  1.0000
  H   H886      1.0  0.75644  0.16130  0.22631  1.0000
  C   C1124     1.0  0.78881  0.44700  0.21574  1.0000
  H   H887      1.0  0.94679  0.43579  0.10619  1.0000
  C   C1125     1.0  0.86814  0.36882  0.08231  1.0000
  C   C1126     1.0  0.88565  0.36288  0.06917  1.0000
  C   C1127     1.0  0.93957  0.40858  0.14673  1.0000
  C   C1128     1.0  0.84074  0.41565  0.26709  1.0000
  C   C1129     1.0  0.83448  0.39061  0.27023  1.0000
  C   C1130     1.0  0.83520  0.37722  0.24060  1.0000
  C   C1131     1.0  0.84170  0.38867  0.20737  1.0000
  C   C1132     1.0  0.84837  0.41385  0.20433  1.0000
  C   C1133     1.0  0.84824  0.42739  0.23421  1.0000
  H   H888      1.0  0.82863  0.38140  0.29559  1.0000
  H   H889      1.0  0.83009  0.35788  0.24330  1.0000
  H   H890      1.0  0.85357  0.42288  0.17879  1.0000
  H   H891      1.0  0.85338  0.44673  0.23182  1.0000
  C   C1134     1.0  0.83976  0.33581  0.33063  1.0000
  C   C1135     1.0  0.84318  0.31615  0.31983  1.0000
  C   C1136     1.0  0.86676  0.32076  0.30958  1.0000
  C   C1137     1.0  0.88689  0.34499  0.31007  1.0000
  C   C1138     1.0  0.88368  0.36490  0.32103  1.0000
  C   C1139     1.0  0.85989  0.36011  0.33115  1.0000
  P   P38       1.0  0.90933  0.39638  0.31763  1.0000
  H   H892      1.0  0.79592  0.28577  0.06808  1.0000
  C   C1140     1.0  0.78175  0.15041  0.02018  1.0000
  H   H893      1.0  0.83266  0.47850  0.43774  1.0000
  H   H894      1.0  0.85064  0.35434  0.09301  1.0000
  C   C1141     1.0  0.90903  0.40794  0.27384  1.0000
  H   H895      1.0  0.82140  0.33233  0.33793  1.0000
  H   H896      1.0  0.82751  0.29741  0.31867  1.0000
  H   H897      1.0  0.86940  0.30570  0.30009  1.0000
  H   H898      1.0  0.90480  0.34819  0.30076  1.0000
  H   H899      1.0  0.85660  0.37502  0.33887  1.0000
  C   C1142     1.0  0.91794  0.43344  0.26827  1.0000
  H   H900      1.0  0.87691  0.41811  0.32098  1.0000
  C   C1143     1.0  0.92581  0.34475  0.06011  1.0000
  C   C1144     1.0  0.67945  0.46435  0.11703  1.0000
  C   C1145     1.0  0.90200  0.44903  0.39746  1.0000
  C   C1146     1.0  0.67946  0.40048  0.18679  1.0000
  H   H901      1.0  0.75900  0.20281  0.01149  1.0000
  H   H902      1.0  0.75530  0.38363  0.06897  1.0000
  C   C1147     1.0  0.95285  0.43204  0.13104  1.0000
  C   C1148     1.0  0.93769  0.39542  0.32452  1.0000
  C   C1149     1.0  0.91550  0.29919  0.09057  1.0000
  C   C1150     1.0  0.74610  0.18658  0.11674  1.0000
  C   C1151     1.0  0.94061  0.38425  0.35511  1.0000
  C   C1152     1.0  0.69850  0.12059  0.41129  1.0000
  C   C1153     1.0  0.70287  0.11129  0.38008  1.0000
  C   C1154     1.0  0.70810  0.12499  0.34876  1.0000
  C   C1155     1.0  0.70905  0.14801  0.34862  1.0000
  C   C1156     1.0  0.70593  0.15805  0.38020  1.0000
  C   C1157     1.0  0.69967  0.14372  0.41130  1.0000
  P   P39       1.0  0.70764  0.18801  0.38000  1.0000
  C   C1158     1.0  0.71370  0.20060  0.42427  1.0000
  C   C1159     1.0  0.73307  0.21087  0.35346  1.0000
  C   C1160     1.0  0.75233  0.20685  0.34170  1.0000
  C   C1161     1.0  0.77133  0.22447  0.32023  1.0000
  C   C1162     1.0  0.77164  0.24647  0.31112  1.0000
  C   C1163     1.0  0.75312  0.25105  0.32381  1.0000
  C   C1164     1.0  0.73402  0.23342  0.34515  1.0000
  H   H903      1.0  0.78355  0.18315  0.15376  1.0000
  C   C1165     1.0  0.95677  0.40525  0.29920  1.0000
  H   H904      1.0  0.89303  0.37186  0.24829  1.0000
  Fe  Fe82      1.0  0.84601  0.47127  0.30300  1.0000
  C   C1166     1.0  0.80031  0.20768  0.10878  1.0000
  C   C1167     1.0  0.67795  0.18254  0.36389  1.0000
  H   H905      1.0  0.73585  0.47287  0.23547  1.0000
  H   H906      1.0  0.78126  0.43972  0.27139  1.0000
  C   C1168     1.0  0.83524  0.31945  0.98295  1.0000
  C   C1169     1.0  0.75905  0.46131  0.12335  1.0000
  H   H907      1.0  0.72705  0.46390  0.10734  1.0000
  H   H908      1.0  0.96736  0.37967  0.98534  1.0000
  H   H909      1.0  0.70161  0.09321  0.37992  1.0000
  H   H910      1.0  0.71092  0.11755  0.32431  1.0000
  H   H911      1.0  0.71228  0.15796  0.32384  1.0000
  H   H912      1.0  0.69531  0.15010  0.43551  1.0000
  H   H913      1.0  0.75271  0.19012  0.34859  1.0000
  H   H914      1.0  0.78552  0.22083  0.30984  1.0000
  H   H915      1.0  0.78597  0.25973  0.29356  1.0000
  H   H916      1.0  0.75335  0.26807  0.31645  1.0000
  H   H917      1.0  0.71970  0.23717  0.35461  1.0000
  C   C1170     1.0  0.68733  0.36744  0.16828  1.0000
  C   C1171     1.0  0.92188  0.42552  0.37946  1.0000
  H   H918      1.0  0.78661  0.39989  0.02071  1.0000
  C   C1172     1.0  0.91702  0.44227  0.23459  1.0000
  H   H919      1.0  0.69077  0.41985  0.25713  1.0000
  H   H920      1.0  0.92571  0.37570  0.37436  1.0000
  C   C1173     1.0  0.85000  0.47881  0.16673  1.0000
  H   H921      1.0  0.72647  0.15807  0.05242  1.0000
  H   H922      1.0  0.74151  0.42049  0.18556  1.0000
  H   H923      1.0  0.69136  0.19901  0.31211  1.0000
  C   C1174     1.0  0.96905  0.42252  0.19510  1.0000
  C   C1175     1.0  0.65664  0.16923  0.38488  1.0000
  C   C1176     1.0  0.77400  0.22348  0.06016  1.0000
  H   H924      1.0  0.64533  0.44903  0.21700  1.0000
  H   H925      1.0  0.97004  0.46250  0.31656  1.0000
  C   C1177     1.0  0.73492  0.16204  0.12952  1.0000
  H   H926      1.0  0.93166  0.44849  0.42614  1.0000
  C   C1178     1.0  0.69094  0.44929  0.28707  1.0000
  H   H927      1.0  0.82325  0.23387  0.06813  1.0000
  C   C1179     1.0  0.77162  0.40188  0.07135  1.0000
  C   C1180     1.0  0.85513  0.28841  0.99386  1.0000
  P   P40       1.0  0.77150  0.19750  0.08535  1.0000
  C   C1181     1.0  0.90627  0.41647  0.34975  1.0000
  C   C1182     1.0  0.92312  0.32501  0.03868  1.0000
  C   C1183     1.0  0.77001  0.24119  0.00478  1.0000
  H   H928      1.0  0.89940  0.43112  0.06752  1.0000
  H   H929      1.0  0.79077  0.24990  0.10296  1.0000
  C   C1184     1.0  0.78034  0.26460  0.02055  1.0000
  H   H930      1.0  0.86289  0.22832  0.15716  1.0000
  C   C1185     1.0  0.82314  0.20439  0.15872  1.0000
  H   H931      1.0  0.70369  0.44945  0.30675  1.0000
  H   H932      1.0  0.92431  0.35586  0.11392  1.0000
  C   C1186     1.0  0.89987  0.39157  0.24502  1.0000
  H   H933      1.0  0.70694  0.13458  0.16407  1.0000
  C   C1187     1.0  0.88665  0.44039  0.36784  1.0000
  C   C1188     1.0  0.78741  0.26752  0.05606  1.0000
  C   C1189     1.0  0.76674  0.22065  0.02448  1.0000
  C   C1190     1.0  0.79636  0.43972  0.10513  1.0000
  H   H934      1.0  0.85976  0.39794  0.09319  1.0000
  C   C1191     1.0  0.71287  0.38335  0.17248  1.0000
  H   H935      1.0  0.72577  0.37663  0.16769  1.0000
  C   C1192     1.0  0.92294  0.34121  0.09691  1.0000
  H   H936      1.0  0.69347  0.46107  0.16733  1.0000
  C   C1193     1.0  0.70520  0.41665  0.18937  1.0000
  C   C1194     1.0  0.91317  0.40616  0.05483  1.0000
  S   S160      1.0  0.64547  0.12716  0.30075  1.0000
  H   H937      1.0  0.75349  0.44472  0.10792  1.0000
  C   C1195     1.0  0.91803  0.30237  0.05391  1.0000
  H   H938      1.0  0.90618  0.43242  0.18022  1.0000
  C   C1196     1.0  0.89902  0.40051  0.21144  1.0000
  C   C1197     1.0  0.96289  0.38429  0.36119  1.0000
  S   S161      1.0  0.65327  0.07948  0.31592  1.0000
  H   H939      1.0  0.86279  0.27626  0.99781  1.0000
  C   C1198     1.0  0.87326  0.39344  0.08228  1.0000
  H   H940      1.0  0.89130  0.38767  0.18952  1.0000
  H   H941      1.0  0.78902  0.46450  0.21739  1.0000
  C   C1199     1.0  0.72177  0.40801  0.18267  1.0000
  C   C1200     1.0  0.89565  0.41208  0.06813  1.0000
  C   C1201     1.0  0.78449  0.41046  0.24545  1.0000
  C   C1202     1.0  0.78938  0.40223  0.21361  1.0000
  C   C1203     1.0  0.79441  0.41658  0.18291  1.0000
  H   H942      1.0  0.76127  0.40883  0.12253  1.0000
  C   C1204     1.0  0.78425  0.43287  0.24650  1.0000
  H   H943      1.0  0.82321  0.19645  0.18424  1.0000
  H   H944      1.0  0.78192  0.40001  0.26962  1.0000
  H   H945      1.0  0.79057  0.38535  0.21319  1.0000
  H   H946      1.0  0.79960  0.41050  0.15915  1.0000
  C   C1205     1.0  0.90749  0.42578  0.20619  1.0000
  C   C1206     1.0  0.94781  0.40378  0.17859  1.0000
  H   H947      1.0  0.65787  0.16215  0.41057  1.0000
  C   C1207     1.0  0.77509  0.41618  0.10167  1.0000
  H   H948      1.0  0.88122  0.34366  0.06932  1.0000
  C   C1208     1.0  0.84550  0.22227  0.14343  1.0000
  H   H949      1.0  0.93744  0.38563  0.19088  1.0000
  H   H950      1.0  0.92284  0.39417  0.13435  1.0000
  C   C1209     1.0  0.79375  0.43894  0.18361  1.0000
  P   P41       1.0  0.93169  0.37397  0.04077  1.0000
  C   C1210     1.0  0.90862  0.38159  0.05625  1.0000
  C   C1211     1.0  0.65893  0.42782  0.15484  1.0000
  C   C1212     1.0  0.73747  0.20235  0.12902  1.0000
  H   H951      1.0  0.82399  0.44162  0.02607  1.0000
  H   H952      1.0  0.83035  0.46702  0.07925  1.0000
  C   C1213     1.0  0.66040  0.45295  0.09222  1.0000
  H   H953      1.0  0.71252  0.43596  0.19670  1.0000
  H   H954      1.0  0.79717  0.14834  0.01086  1.0000
  H   H955      1.0  0.93022  0.42085  0.04370  1.0000
  H   H956      1.0  0.88977  0.35858  0.99168  1.0000
  C   C1214     1.0  0.76616  0.17244  0.05576  1.0000
  H   H957      1.0  0.91118  0.28154  0.10231  1.0000
  C   C1215     1.0  0.74392  0.47217  0.12289  1.0000
  C   C1216     1.0  0.78925  0.41103  0.04415  1.0000
  C   C1217     1.0  0.78447  0.24712  0.07574  1.0000
  C   C1218     1.0  0.71764  0.19351  0.15296  1.0000
  C   C1219     1.0  0.65837  0.44922  0.23608  1.0000
  C   C1220     1.0  0.83284  0.48246  0.14722  1.0000
  H   H958      1.0  0.74609  0.22154  0.12070  1.0000
  H   H959      1.0  0.86255  0.24703  0.09911  1.0000
  C   C1221     1.0  0.80062  0.19699  0.14139  1.0000
  C   C1222     1.0  0.70633  0.16895  0.16493  1.0000
  H   H960      1.0  0.74171  0.14972  0.12139  1.0000
  H   H961      1.0  0.97138  0.46313  0.25113  1.0000
  C   C1223     1.0  0.84535  0.23276  0.11077  1.0000
  H   H962      1.0  0.75437  0.11912  0.99046  1.0000
  H   H963      1.0  0.93599  0.42054  0.38436  1.0000
  H   H964      1.0  0.91544  0.31589  0.14046  1.0000
  H   H965      1.0  0.96468  0.42257  0.00880  1.0000
  H   H966      1.0  0.68750  0.47882  0.31183  1.0000
  C   C1224     1.0  0.71512  0.15330  0.15349  1.0000
  C   C1225     1.0  0.82289  0.22543  0.09342  1.0000
  C   C1226     1.0  0.78605  0.16962  0.04360  1.0000
  H   H967      1.0  0.80489  0.18224  0.05194  1.0000
  C   C1227     1.0  0.73269  0.20045  0.44426  1.0000
  S   S162      1.0  0.82128  0.48144  0.33404  1.0000
  P   P42       1.0  0.80075  0.45808  0.14444  1.0000
  H   H968      1.0  0.68044  0.34843  0.15974  1.0000
  S   S163      1.0  0.64810  0.48382  0.16533  1.0000
  H   H969      1.0  0.74368  0.19289  0.43321  1.0000
  H   H970      1.0  0.87311  0.44632  0.36307  1.0000
  C   C1228     1.0  0.70015  0.21110  0.43881  1.0000
  C   C1229     1.0  0.67067  0.37603  0.17503  1.0000
  H   H971      1.0  0.68594  0.21218  0.42361  1.0000
  H   H972      1.0  0.92520  0.44650  0.28997  1.0000
  H   H973      1.0  0.69132  0.16224  0.18410  1.0000
  H   H974      1.0  0.96667  0.38129  0.09978  1.0000
  H   H975      1.0  0.91543  0.28708  0.03718  1.0000
  H   H976      1.0  0.71144  0.20591  0.16299  1.0000
  C   C1230     1.0  0.97448  0.39772  0.08343  1.0000
  C   C1231     1.0  0.91964  0.44162  0.40326  1.0000
  C   C1232     1.0  0.78095  0.47190  0.14353  1.0000
  C   C1233     1.0  0.68178  0.46578  0.29005  1.0000
  C   C1234     1.0  0.66527  0.46554  0.26476  1.0000
  C   C1235     1.0  0.81387  0.44889  0.07749  1.0000
  P   P43       1.0  0.65828  0.41198  0.19530  1.0000
  C   C1236     1.0  0.97414  0.45075  0.14735  1.0000
  C   C1237     1.0  0.81032  0.43454  0.04719  1.0000
  C   C1238     1.0  0.75764  0.13396  0.00865  1.0000
  C   C1239     1.0  0.66809  0.43321  0.23220  1.0000
  C   C1240     1.0  0.68388  0.43280  0.25849  1.0000
  C   C1241     1.0  0.74201  0.15596  0.04382  1.0000
  H   H977      1.0  0.69373  0.10966  0.43537  1.0000
  H   H978      1.0  0.96519  0.37586  0.38494  1.0000
  C   C1242     1.0  0.91794  0.31859  0.11207  1.0000
  C   C1243     1.0  0.67877  0.45182  0.14819  1.0000
  C   C1244     1.0  0.67552  0.18999  0.32970  1.0000
  H   H979      1.0  0.92315  0.46181  0.23069  1.0000
  H   H980      1.0  0.84439  0.46127  0.17973  1.0000
  H   H981      1.0  0.71910  0.12407  0.01139  1.0000
  C   C1245     1.0  0.65222  0.18490  0.31727  1.0000
  C   C1246     1.0  0.73778  0.13675  0.02045  1.0000
  H   H982      1.0  0.64382  0.07230  0.42434  1.0000
  H   H983      1.0  0.97555  0.41830  0.21929  1.0000
  C   C1247     1.0  0.97361  0.42097  0.03248  1.0000
  H   H984      1.0  0.92438  0.32669  0.01018  1.0000
  C   C1248     1.0  0.92913  0.37049  0.99324  1.0000
  H   H985      1.0  0.65794  0.47815  0.26704  1.0000
  H   H986      1.0  0.65101  0.36362  0.17085  1.0000
  H   H987      1.0  0.69417  0.48333  0.11276  1.0000
  C   C1249     1.0  0.73741  0.20980  0.47877  1.0000
  C   C1250     1.0  0.70491  0.22042  0.47337  1.0000
  C   C1251     1.0  0.64576  0.07656  0.48141  1.0000
  H   H988      1.0  0.81606  0.22201  0.48212  1.0000
  S   S164      1.0  0.83550  0.45307  0.74519  1.0000
  C   C1252     1.0  0.79594  0.25572  0.68222  1.0000
  S   S165      1.0  0.66457  0.08865  0.65706  1.0000
  C   C1253     1.0  0.67722  0.20311  0.79195  1.0000
  C   C1254     1.0  0.70066  0.22454  0.79259  1.0000
  Fe  Fe83      1.0  0.66258  0.12189  0.67798  1.0000
  S   S166      1.0  0.69300  0.16123  0.69681  1.0000
  H   H989      1.0  0.82363  0.41872  0.68543  1.0000
  C   C1255     1.0  0.73702  0.15550  0.64145  1.0000
  Fe  Fe84      1.0  0.83931  0.30886  0.85112  1.0000
  S   S167      1.0  0.85466  0.28531  0.82956  1.0000
  S   S168      1.0  0.83413  0.31637  0.90983  1.0000
  Fe  Fe85      1.0  0.83413  0.32527  0.77531  1.0000
  S   S169      1.0  0.84957  0.30284  0.74997  1.0000
  S   S170      1.0  0.82245  0.34460  0.73435  1.0000
  Fe  Fe86      1.0  0.82409  0.27238  0.78784  1.0000
  S   S171      1.0  0.79946  0.23090  0.77153  1.0000
  Fe  Fe87      1.0  0.87848  0.31783  0.79313  1.0000
  S   S172      1.0  0.92161  0.33955  0.79165  1.0000
  S   S173      1.0  0.80767  0.29435  0.81143  1.0000
  S   S174      1.0  0.86407  0.34177  0.81642  1.0000
  C   C1256     1.0  0.94541  0.34993  0.75845  1.0000
  C   C1257     1.0  0.94184  0.33791  0.72584  1.0000
  C   C1258     1.0  0.96201  0.34514  0.70216  1.0000
  H   H990      1.0  0.92373  0.32250  0.71930  1.0000
  C   C1259     1.0  0.71668  0.20282  0.82726  1.0000
  C   C1260     1.0  0.84057  0.30914  0.95319  1.0000
  C   C1261     1.0  0.85078  0.29371  0.95898  1.0000
  H   H991      1.0  0.88878  0.39512  0.79465  1.0000
  H   H992      1.0  0.85512  0.28567  0.93656  1.0000
  H   H993      1.0  0.76189  0.12276  0.67859  1.0000
  C   C1262     1.0  0.72239  0.18007  0.71855  1.0000
  C   C1263     1.0  0.73102  0.20562  0.72385  1.0000
  C   C1264     1.0  0.75412  0.22131  0.74048  1.0000
  C   C1265     1.0  0.76934  0.21184  0.75175  1.0000
  C   C1266     1.0  0.76060  0.18625  0.74666  1.0000
  C   C1267     1.0  0.73734  0.17049  0.73055  1.0000
  H   H994      1.0  0.71972  0.21340  0.71508  1.0000
  H   H995      1.0  0.76030  0.24084  0.74413  1.0000
  H   H996      1.0  0.77199  0.17852  0.75523  1.0000
  H   H997      1.0  0.73111  0.15096  0.72719  1.0000
  P   P44       1.0  0.75777  0.20179  0.60754  1.0000
  H   H998      1.0  0.92251  0.35923  0.89147  1.0000
  H   H999      1.0  0.65563  0.43863  0.60679  1.0000
  C   C1268     1.0  0.78299  0.15878  0.65403  1.0000
  C   C1269     1.0  0.93506  0.44944  0.61374  1.0000
  C   C1270     1.0  0.83395  0.42386  0.74038  1.0000
  C   C1271     1.0  0.83862  0.41314  0.77011  1.0000
  C   C1272     1.0  0.83597  0.38923  0.76837  1.0000
  C   C1273     1.0  0.82819  0.37559  0.73698  1.0000
  C   C1274     1.0  0.82413  0.38655  0.70695  1.0000
  C   C1275     1.0  0.82725  0.41069  0.70850  1.0000
  H   H1000     1.0  0.84379  0.42319  0.79488  1.0000
  H   H1001     1.0  0.83906  0.38099  0.79167  1.0000
  H   H1002     1.0  0.81819  0.37617  0.68250  1.0000
  H   H1003     1.0  0.71898  0.15379  0.63722  1.0000
  C   C1276     1.0  0.89024  0.37868  0.71297  1.0000
  H   H1004     1.0  0.69079  0.16477  0.83997  1.0000
  C   C1277     1.0  0.78192  0.17816  0.63665  1.0000
  H   H1005     1.0  0.76498  0.23910  0.97704  1.0000
  C   C1278     1.0  0.74737  0.46022  0.78742  1.0000
  H   H1006     1.0  0.65158  0.06293  0.48554  1.0000
  S   S175      1.0  0.80843  0.48017  0.66642  1.0000
  C   C1279     1.0  0.64910  0.12717  0.79682  1.0000
  C   C1280     1.0  0.95728  0.44543  0.77490  1.0000
  C   C1281     1.0  0.76110  0.13773  0.66494  1.0000
  C   C1282     1.0  0.91296  0.43065  0.77077  1.0000
  H   H1007     1.0  0.70087  0.45494  0.60555  1.0000
  H   H1008     1.0  0.65645  0.16609  0.57118  1.0000
  H   H1009     1.0  0.70369  0.24120  0.77892  1.0000
  H   H1010     1.0  0.91125  0.36250  0.73319  1.0000
  C   C1283     1.0  0.93499  0.41554  0.68416  1.0000
  H   H1011     1.0  0.72699  0.22675  0.52024  1.0000
  C   C1284     1.0  0.79120  0.19388  0.51868  1.0000
  H   H1012     1.0  0.95907  0.33525  0.67745  1.0000
  H   H1013     1.0  0.69421  0.22825  0.48463  1.0000
  H   H1014     1.0  0.64741  0.14950  0.72946  1.0000
  C   C1285     1.0  0.73815  0.13604  0.65846  1.0000
  H   H1015     1.0  0.76818  0.28390  0.64022  1.0000
  H   H1016     1.0  0.68369  0.15895  0.53047  1.0000
  H   H1017     1.0  0.64614  0.45977  0.71156  1.0000
  H   H1018     1.0  0.73219  0.20261  0.84013  1.0000
  H   H1019     1.0  0.88614  0.35233  0.92720  1.0000
  H   H1020     1.0  0.82149  0.46204  0.49914  1.0000
  H   H1021     1.0  0.65775  0.17197  0.87880  1.0000
  C   C1286     1.0  0.67086  0.13144  0.77919  1.0000
  H   H1022     1.0  0.75186  0.20933  0.49418  1.0000
  H   H1023     1.0  0.96674  0.41983  0.80029  1.0000
  C   C1287     1.0  0.93872  0.26793  0.79470  1.0000
  C   C1288     1.0  0.94594  0.29170  0.78183  1.0000
  H   H1024     1.0  0.72972  0.44589  0.77718  1.0000
  C   C1289     1.0  0.69335  0.46500  0.61958  1.0000
  H   H1025     1.0  0.94107  0.46482  0.74809  1.0000
  C   C1290     1.0  0.71025  0.19496  0.61818  1.0000
  C   C1291     1.0  0.67498  0.11172  0.77139  1.0000
  C   C1292     1.0  0.95650  0.26275  0.80872  1.0000
  C   C1293     1.0  0.90617  0.36245  0.97654  1.0000
  C   C1294     1.0  0.68536  0.18611  0.60937  1.0000
  C   C1295     1.0  0.90105  0.46506  0.70057  1.0000
  C   C1296     1.0  0.95871  0.47931  0.56753  1.0000
  H   H1026     1.0  0.80883  0.47804  0.78563  1.0000
  C   C1297     1.0  0.94209  0.47191  0.59599  1.0000
  H   H1027     1.0  0.91932  0.25360  0.79384  1.0000
  H   H1028     1.0  0.93213  0.29582  0.77121  1.0000
  C   C1298     1.0  0.66767  0.45582  0.62038  1.0000
  H   H1029     1.0  0.76646  0.16998  0.55904  1.0000
  C   C1299     1.0  0.97090  0.31028  0.78297  1.0000
  C   C1300     1.0  0.72598  0.19148  0.59500  1.0000
  H   H1030     1.0  0.79061  0.21970  0.67071  1.0000
  H   H1031     1.0  0.72116  0.11983  0.66715  1.0000
  C   C1301     1.0  0.91295  0.41597  0.67731  1.0000
  C   C1302     1.0  0.89075  0.39799  0.69326  1.0000
  P   P45       1.0  0.91321  0.44008  0.65007  1.0000
  C   C1303     1.0  0.91984  0.46599  0.67871  1.0000
  H   H1032     1.0  0.76844  0.44491  0.76328  1.0000
  H   H1033     1.0  0.89774  0.43323  0.76203  1.0000
  H   H1034     1.0  0.80821  0.25853  0.70429  1.0000
  C   C1304     1.0  0.69323  0.18142  0.82696  1.0000
  H   H1035     1.0  0.73872  0.24078  0.80980  1.0000
  C   C1305     1.0  0.91193  0.37758  0.71792  1.0000
  H   H1036     1.0  0.75099  0.24536  0.60475  1.0000
  C   C1306     1.0  0.65784  0.46860  0.63910  1.0000
  H   H1037     1.0  0.88459  0.46418  0.63002  1.0000
  C   C1307     1.0  0.94392  0.43389  0.60134  1.0000
  H   H1038     1.0  0.95124  0.39535  0.70844  1.0000
  C   C1308     1.0  0.88337  0.42872  0.62902  1.0000
  C   C1309     1.0  0.86966  0.40390  0.61769  1.0000
  C   C1310     1.0  0.84635  0.39510  0.60203  1.0000
  C   C1311     1.0  0.83685  0.41114  0.59682  1.0000
  C   C1312     1.0  0.85078  0.43604  0.60691  1.0000
  C   C1313     1.0  0.87403  0.44484  0.62267  1.0000
  C   C1314     1.0  0.80438  0.23763  0.52392  1.0000
  H   H1039     1.0  0.87373  0.39866  0.69038  1.0000
  H   H1040     1.0  0.87305  0.36458  0.72474  1.0000
  C   C1315     1.0  0.72039  0.22436  0.81009  1.0000
  H   H1041     1.0  0.66236  0.20360  0.77767  1.0000
  H   H1042     1.0  0.93764  0.41576  0.61297  1.0000
  H   H1043     1.0  0.88257  0.44889  0.70061  1.0000
  C   C1316     1.0  0.93754  0.44854  0.76307  1.0000
  H   H1044     1.0  0.79904  0.19432  0.62821  1.0000
  H   H1045     1.0  0.79167  0.17880  0.50480  1.0000
  C   C1317     1.0  0.78589  0.23360  0.66285  1.0000
  H   H1046     1.0  0.87677  0.39124  0.62133  1.0000
  H   H1047     1.0  0.83556  0.37580  0.59414  1.0000
  H   H1048     1.0  0.81874  0.40437  0.58490  1.0000
  H   H1049     1.0  0.84347  0.44851  0.60266  1.0000
  C   C1318     1.0  0.76342  0.24795  0.62643  1.0000
  C   C1319     1.0  0.67336  0.18128  0.80889  1.0000
  H   H1050     1.0  0.80080  0.16014  0.65922  1.0000
  C   C1320     1.0  0.69129  0.16953  0.55456  1.0000
  C   C1321     1.0  0.90788  0.40912  0.78926  1.0000
  C   C1322     1.0  0.77700  0.18897  0.54952  1.0000
  C   C1323     1.0  0.75892  0.17678  0.63051  1.0000
  H   H1051     1.0  0.68450  0.14994  0.77067  1.0000
  C   C1324     1.0  0.77633  0.20839  0.56781  1.0000
  H   H1052     1.0  0.72749  0.17444  0.54558  1.0000
  C   C1325     1.0  0.76967  0.22957  0.63453  1.0000
  H   H1053     1.0  0.95253  0.42989  0.67379  1.0000
  C   C1326     1.0  0.71621  0.17839  0.56329  1.0000
  H   H1054     1.0  0.69157  0.11523  0.75704  1.0000
  C   C1327     1.0  0.78955  0.27381  0.67411  1.0000
  C   C1328     1.0  0.93439  0.39615  0.70393  1.0000
  H   H1055     1.0  0.71692  0.20372  0.64369  1.0000
  C   C1329     1.0  0.79015  0.23278  0.55474  1.0000
  H   H1056     1.0  0.79706  0.29073  0.68972  1.0000
  H   H1057     1.0  0.67321  0.18824  0.62797  1.0000
  C   C1330     1.0  0.90396  0.35869  0.93993  1.0000
  C   C1331     1.0  0.94737  0.37035  0.93624  1.0000
  H   H1058     1.0  0.92325  0.38808  0.81281  1.0000
  H   H1059     1.0  0.75236  0.48328  0.71413  1.0000
  C   C1332     1.0  0.96922  0.36997  0.76616  1.0000
  C   C1333     1.0  0.95197  0.42332  0.79245  1.0000
  C   C1334     1.0  0.92734  0.40528  0.79966  1.0000
  C   C1335     1.0  0.94969  0.37422  0.97286  1.0000
  H   H1060     1.0  0.79016  0.24815  0.56831  1.0000
  Fe  Fe88      1.0  0.83727  0.48003  0.70271  1.0000
  C   C1336     1.0  0.67591  0.17352  0.57750  1.0000
  C   C1337     1.0  0.77323  0.26989  0.64626  1.0000
  C   C1338     1.0  0.80492  0.21820  0.50590  1.0000
  C   C1339     1.0  0.92450  0.36259  0.91978  1.0000
  H   H1061     1.0  0.81515  0.25652  0.51413  1.0000
  H   H1062     1.0  0.96317  0.37301  0.92064  1.0000
  C   C1340     1.0  0.96079  0.44148  0.57313  1.0000
  C   C1341     1.0  0.76913  0.45968  0.77950  1.0000
  H   H1063     1.0  0.97216  0.37964  0.79098  1.0000
  H   H1064     1.0  0.82746  0.33150  0.97899  1.0000
  C   C1342     1.0  0.79195  0.47842  0.79212  1.0000
  H   H1065     1.0  0.95087  0.24428  0.81864  1.0000
  H   H1066     1.0  0.97619  0.32854  0.77274  1.0000
  C   C1343     1.0  0.83407  0.48168  0.49500  1.0000
  H   H1067     1.0  0.70938  0.46849  0.73631  1.0000
  H   H1068     1.0  0.89099  0.48464  0.73831  1.0000
  C   C1344     1.0  0.72344  0.21967  0.49340  1.0000
  S   S176      1.0  0.64759  0.08041  0.55428  1.0000
  C   C1345     1.0  0.96828  0.46423  0.55635  1.0000
  H   H1069     1.0  0.96777  0.42950  0.56395  1.0000
  C   C1346     1.0  0.65735  0.08747  0.78090  1.0000
  H   H1070     1.0  0.66017  0.07206  0.77384  1.0000
  H   H1071     1.0  0.93449  0.48358  0.60397  1.0000
  C   C1347     1.0  0.74840  0.47964  0.80765  1.0000
  S   S177      1.0  0.83390  0.48460  0.56811  1.0000
  H   H1072     1.0  0.73134  0.47989  0.81269  1.0000
  P   P46       1.0  0.64368  0.15285  0.80591  1.0000
  C   C1348     1.0  0.89246  0.59539  0.42424  1.0000
  H   H1073     1.0  0.75951  0.56160  0.24277  1.0000
  Fe  Fe89      1.0  0.85679  0.51422  0.35306  1.0000
  S   S178      1.0  0.85800  0.53880  0.30730  1.0000
  S   S179      1.0  0.86465  0.52946  0.41034  1.0000
  Fe  Fe90      1.0  0.82335  0.50495  0.28682  1.0000
  H   H1074     1.0  0.88071  0.59464  0.33630  1.0000
  Fe  Fe91      1.0  0.88083  0.52468  0.27833  1.0000
  S   S180      1.0  0.91307  0.54534  0.23793  1.0000
  H   H1075     1.0  0.77749  0.52116  0.17752  1.0000
  C   C1349     1.0  0.75878  0.53430  0.36141  1.0000
  H   H1076     1.0  0.83819  0.57852  0.35905  1.0000
  Fe  Fe92      1.0  0.66918  0.52054  0.19295  1.0000
  C   C1350     1.0  0.66678  0.85447  0.05491  1.0000
  S   S181      1.0  0.70978  0.53598  0.21340  1.0000
  C   C1351     1.0  0.95827  0.56909  0.20237  1.0000
  C   C1352     1.0  0.87729  0.59253  0.36456  1.0000
  S   S182      1.0  0.65653  0.54007  0.15350  1.0000
  S   S183      1.0  0.88157  0.50244  0.32507  1.0000
  C   C1353     1.0  0.78732  0.49346  0.16332  1.0000
  H   H1077     1.0  0.81573  0.52759  0.38741  1.0000
  H   H1078     1.0  0.74315  0.53641  0.35339  1.0000
  H   H1079     1.0  0.94699  0.56473  0.17884  1.0000
  C   C1354     1.0  0.94651  0.56162  0.23570  1.0000
  C   C1355     1.0  0.78344  0.51421  0.35443  1.0000
  C   C1356     1.0  0.76305  0.51666  0.34472  1.0000
  H   H1080     1.0  0.95309  0.56220  0.29160  1.0000
  H   H1081     1.0  0.75078  0.50509  0.32386  1.0000
  C   C1357     1.0  0.76481  0.50934  0.25054  1.0000
  C   C1358     1.0  0.96163  0.56768  0.26575  1.0000
  H   H1082     1.0  0.78680  0.50070  0.34112  1.0000
  C   C1359     1.0  0.73049  0.52504  0.22777  1.0000
  C   C1360     1.0  0.75419  0.54214  0.24116  1.0000
  C   C1361     1.0  0.77116  0.53443  0.25247  1.0000
  H   H1083     1.0  0.67011  0.87393  0.10363  1.0000
  C   C1362     1.0  0.79550  0.54716  0.39780  1.0000
  C   C1363     1.0  0.87445  0.49818  0.17068  1.0000
  C   C1364     1.0  0.72422  0.50002  0.22593  1.0000
  C   C1365     1.0  0.85641  0.51636  0.45396  1.0000
  H   H1084     1.0  0.90081  0.53639  0.15881  1.0000
  C   C1366     1.0  0.77486  0.54945  0.38796  1.0000
  C   C1367     1.0  0.77239  0.50448  0.16226  1.0000
  H   H1085     1.0  0.77123  0.56308  0.40027  1.0000
  H   H1086     1.0  0.78919  0.54795  0.26256  1.0000
  C   C1368     1.0  0.85315  0.58320  0.37761  1.0000
  H   H1087     1.0  0.73893  0.50225  0.14223  1.0000
  S   S184      1.0  0.78554  0.49822  0.26369  1.0000
  C   C1369     1.0  0.79972  0.52947  0.38067  1.0000
  H   H1088     1.0  0.87132  0.54263  0.12191  1.0000
  H   H1089     1.0  0.83079  0.65248  0.41301  1.0000
  C   C1370     1.0  0.75061  0.49377  0.14232  1.0000
  H   H1090     1.0  0.80376  0.50178  0.17986  1.0000
  H   H1091     1.0  0.68478  0.85571  0.05745  1.0000
  C   C1371     1.0  0.88206  0.52118  0.15466  1.0000
  C   C1372     1.0  0.86536  0.52471  0.13412  1.0000
  C   C1373     1.0  0.65854  0.86476  0.08089  1.0000
  C   C1374     1.0  0.65176  0.84249  0.02574  1.0000
  H   H1092     1.0  0.82807  0.50855  0.11456  1.0000
  H   H1093     1.0  0.91547  0.60501  0.37758  1.0000
  C   C1375     1.0  0.84085  0.50540  0.13023  1.0000
  H   H1094     1.0  0.70628  0.48668  0.21576  1.0000
  C   C1376     1.0  0.84036  0.49097  0.46002  1.0000
  H   H1095     1.0  0.83949  0.61833  0.40227  1.0000
  C   C1377     1.0  0.84843  0.57961  0.41416  1.0000
  C   C1378     1.0  0.89691  0.59846  0.38783  1.0000
  C   C1379     1.0  0.74111  0.49227  0.23727  1.0000
  H   H1096     1.0  0.86529  0.58342  0.46560  1.0000
  C   C1380     1.0  0.82524  0.61563  0.42121  1.0000
  C   C1381     1.0  0.82031  0.63506  0.42715  1.0000
  P   P47       1.0  0.81714  0.56740  0.43084  1.0000
  C   C1382     1.0  0.81177  0.59302  0.43949  1.0000
  S   S185      1.0  0.84611  0.49243  0.25495  1.0000
  H   H1097     1.0  0.78183  0.57241  0.47675  1.0000
  C   C1383     1.0  0.80176  0.63197  0.45108  1.0000
  H   H1098     1.0  0.79692  0.51410  0.44823  1.0000
  C   C1384     1.0  0.86834  0.58609  0.43741  1.0000
  H   H1099     1.0  0.90758  0.59951  0.44222  1.0000
  C   C1385     1.0  0.80280  0.52482  0.47235  1.0000
  H   H1100     1.0  0.79792  0.64702  0.45558  1.0000
  C   C1386     1.0  0.78803  0.60940  0.46899  1.0000
  H   H1101     1.0  0.65812  0.83444  0.00564  1.0000
  C   C1387     1.0  0.79289  0.58993  0.46308  1.0000
  H   H1102     1.0  0.64476  0.53918  0.03834  1.0000
  H   H1103     1.0  0.97322  0.48730  0.18992  1.0000
  H   H1104     1.0  0.88734  0.49573  0.18724  1.0000
  C   C1388     1.0  0.81366  0.55083  0.47186  1.0000
  H   H1105     1.0  0.87880  0.55175  0.47945  1.0000
  C   C1389     1.0  0.77127  0.49856  0.82047  1.0000
  S   S186      1.0  0.85159  0.53761  0.64488  1.0000
  Fe  Fe93      1.0  0.83958  0.49884  0.62588  1.0000
  C   C1390     1.0  0.95866  0.55749  0.58015  1.0000
  S   S187      1.0  0.84883  0.51777  0.72578  1.0000
  Fe  Fe94      1.0  0.82144  0.51880  0.68712  1.0000
  S   S188      1.0  0.79499  0.53400  0.70206  1.0000
  Fe  Fe95      1.0  0.87763  0.53294  0.68245  1.0000
  S   S189      1.0  0.92060  0.55580  0.68427  1.0000
  H   H1106     1.0  0.73028  0.52243  0.81257  1.0000
  H   H1107     1.0  0.76781  0.56831  0.85174  1.0000
  Fe  Fe96      1.0  0.65347  0.50239  0.78330  1.0000
  C   C1391     1.0  0.80943  0.51252  0.92831  1.0000
  H   H1108     1.0  0.72929  0.49395  0.63724  1.0000
  H   H1109     1.0  0.93279  0.52225  0.73862  1.0000
  C   C1392     1.0  0.80087  0.55581  0.79095  1.0000
  C   C1393     1.0  0.81015  0.55326  0.89519  1.0000
  S   S190      1.0  0.65699  0.53812  0.80474  1.0000
  H   H1110     1.0  0.96385  0.49657  0.55380  1.0000
  H   H1111     1.0  0.80621  0.51567  0.56053  1.0000
  H   H1112     1.0  0.81185  0.61292  0.76461  1.0000
  C   C1394     1.0  0.84352  0.49753  0.52459  1.0000
  C   C1395     1.0  0.78922  0.59256  0.80934  1.0000
  C   C1396     1.0  0.72216  0.48823  0.73395  1.0000
  C   C1397     1.0  0.82176  0.56400  0.50387  1.0000
  C   C1398     1.0  0.94570  0.57228  0.71469  1.0000
  S   S191      1.0  0.68293  0.49319  0.76037  1.0000
  H   H1113     1.0  0.97251  0.57118  0.67953  1.0000
  H   H1114     1.0  0.83823  0.53956  0.96189  1.0000
  C   C1399     1.0  0.71411  0.50507  0.74380  1.0000
  C   C1400     1.0  0.73099  0.53055  0.74009  1.0000
  C   C1401     1.0  0.75534  0.53888  0.72702  1.0000
  C   C1402     1.0  0.76358  0.52206  0.71785  1.0000
  C   C1403     1.0  0.94870  0.55528  0.54607  1.0000
  C   C1404     1.0  0.92936  0.50641  0.72241  1.0000
  H   H1115     1.0  0.72530  0.54389  0.74724  1.0000
  H   H1116     1.0  0.76797  0.55861  0.72418  1.0000
  H   H1117     1.0  0.90910  0.50845  0.61929  1.0000
  H   H1118     1.0  0.80920  0.49673  0.94104  1.0000
  C   C1405     1.0  0.85983  0.52288  0.51856  1.0000
  H   H1119     1.0  0.64541  0.61206  0.83293  1.0000
  C   C1406     1.0  0.94371  0.48708  0.67981  1.0000
  H   H1120     1.0  0.86731  0.53540  0.54083  1.0000
  H   H1121     1.0  0.64412  0.57413  0.85705  1.0000
  C   C1407     1.0  0.79344  0.50874  0.90001  1.0000
  C   C1408     1.0  0.73667  0.51136  0.89911  1.0000
  C   C1409     1.0  0.79303  0.49773  0.81261  1.0000
  C   C1410     1.0  0.80466  0.59612  0.78035  1.0000
  H   H1122     1.0  0.83878  0.57566  0.93261  1.0000
  C   C1411     1.0  0.72582  0.51812  0.84027  1.0000
  H   H1123     1.0  0.92434  0.57693  0.75583  1.0000
  H   H1124     1.0  0.70899  0.50343  0.93952  1.0000
  H   H1125     1.0  0.94460  0.61645  0.65993  1.0000
  C   C1412     1.0  0.96217  0.62062  0.64793  1.0000
  C   C1413     1.0  0.79378  0.52910  0.88313  1.0000
  C   C1414     1.0  0.74294  0.51687  0.86318  1.0000
  C   C1415     1.0  0.81055  0.57780  0.77129  1.0000
  H   H1126     1.0  0.71222  0.51671  0.66993  1.0000
  H   H1127     1.0  0.96663  0.52376  0.70185  1.0000
  H   H1128     1.0  0.89141  0.50468  0.55925  1.0000
  C   C1416     1.0  0.94837  0.50728  0.70143  1.0000
  C   C1417     1.0  0.94418  0.54020  0.60629  1.0000
  H   H1129     1.0  0.96157  0.49162  0.79845  1.0000
  C   C1418     1.0  0.92020  0.52118  0.59861  1.0000
  C   C1419     1.0  0.80789  0.52548  0.53597  1.0000
  H   H1130     1.0  0.78451  0.60669  0.81627  1.0000
  C   C1420     1.0  0.91031  0.51914  0.56483  1.0000
  C   C1421     1.0  0.92459  0.53616  0.53852  1.0000
  H   H1131     1.0  0.82205  0.58021  0.74830  1.0000
  C   C1422     1.0  0.96349  0.59512  0.76950  1.0000
  C   C1423     1.0  0.86622  0.53214  0.48358  1.0000
  C   C1424     1.0  0.78528  0.55201  0.82009  1.0000
  C   C1425     1.0  0.96981  0.57770  0.70469  1.0000
  H   H1132     1.0  0.95921  0.56840  0.52539  1.0000
  H   H1133     1.0  0.80528  0.54176  0.78262  1.0000
  H   H1134     1.0  0.79193  0.49223  0.50449  1.0000
  C   C1426     1.0  0.71372  0.50741  0.91176  1.0000
  H   H1135     1.0  0.66709  0.50032  0.67302  1.0000
  C   C1427     1.0  0.77965  0.57066  0.82925  1.0000
  H   H1136     1.0  0.64801  0.50598  0.60804  1.0000
  S   S192      1.0  0.86673  0.49501  0.66106  1.0000
  C   C1428     1.0  0.94265  0.58082  0.74759  1.0000
  C   C1429     1.0  0.67413  0.49056  0.65717  1.0000
  C   C1430     1.0  0.82610  0.55697  0.92353  1.0000
  H   H1137     1.0  0.68989  0.51513  0.83494  1.0000
  H   H1138     1.0  0.91670  0.53473  0.51245  1.0000
  H   H1139     1.0  0.74947  0.51041  0.91755  1.0000
  H   H1140     1.0  0.97005  0.53485  0.80095  1.0000
  H   H1141     1.0  0.67919  0.50606  0.89854  1.0000
  H   H1142     1.0  0.81076  0.56928  0.88277  1.0000
  C   C1431     1.0  0.69978  0.49983  0.65582  1.0000
  C   C1432     1.0  0.70292  0.51409  0.85295  1.0000
  H   H1143     1.0  0.83052  0.58409  0.50419  1.0000
  H   H1144     1.0  0.95104  0.54183  0.63305  1.0000
  H   H1145     1.0  0.82548  0.56157  0.56032  1.0000
  H   H1146     1.0  0.96088  0.60198  0.79455  1.0000
  H   H1147     1.0  0.78084  0.48993  0.89124  1.0000
  C   C1433     1.0  0.69688  0.50885  0.88871  1.0000
  H   H1148     1.0  0.81094  0.51219  0.82190  1.0000
  H   H1149     1.0  0.94698  0.58468  0.62447  1.0000
  P   P48       1.0  0.77317  0.52399  0.84646  1.0000
  C   C1434     1.0  0.81891  0.55136  0.53575  1.0000
  C   C1435     1.0  0.96366  0.60243  0.62794  1.0000
  H   H1150     1.0  0.64917  0.55375  0.97596  1.0000
  C   C1436     1.0  0.79981  0.51224  0.50431  1.0000
  C   C1437     1.0  0.82577  0.53662  0.94005  1.0000
  H   H1151     1.0  0.77351  0.60694  0.48733  1.0000
  C   C1438     1.0  0.74662  0.49659  0.72125  1.0000
  C   C1439     1.0  0.70940  0.48699  0.63731  1.0000
  H   H1152     1.0  0.95869  0.48804  0.66397  1.0000
  C   C1440     1.0  0.90580  0.48525  0.72219  1.0000
