data_image0
_chemical_formula_structural       FeHS3CHCH2CHSCHCHC2FeCSHCHFeHCH3CHC2SHCH4CHSC4HC4H2FeSH2FeS2H2FeSCS2FeSCFeH3C6H5CHCH3CHCHCHC7HCHCH2CPCH3C2HPC5HC2HC7H3CH3CHC8HCHC3SCH3CH2C3H2CSH4PCHC3H2CHC2H2CSCHCSC2HC2H2SC2HCHC6H4C4SC2H3SHC2H2CFeH3C4PC8H3C4H4C2H8C8HC2PH2C3SH3CHC3SC3H4CH2CH2C2HCH2C2H3C3HC2H3C2HSHCSCFeH2C3Fe2S2FeS2FeSFeS3HSHCH3C7H5C3HC7HC5PCHC3H2CH2CH2C2HCH4C2HCH3C2H6C5PC2HC8HC3H3CH4CHCHC5FeC2H11CH2C2H3CHC4HC3PCH3C2SC2HC4HCH3C3HC3H4CHCH2CSC4H2C2HC2HFeS2FeSCFeC2H2PHCHC5HFeC2HCHPC2SCHSH2CHPCHC2HCH2C5H3C3HC2H6CSC2HCSHCHCHCHS2C2H2CHSHCFeSCH3SFeHCH3CFeHC3HSC2FeHC2HC2HC3SCH2C3HCHCHC4HC3HCFeS2FeSPFeSFeS3C9H2CHCH5CHC2HCHC5HCHCH2C2HCH3CHCPCPC2HC9HC3H7CHCH5CHC6H2C4HC2H2C2HC2HC2HC5HCH5C3H3C3SH4C4H3C2HC3H3FeH2CPC9H2SHC2H4CFeHCFeS3C2SHSH2C9H2C2H2C6PC4HCH2FeC3H7SH3CHSH4PC10HCH7CH3C4HC2H3C2HC2H2CFeCHC2H2SCH2CFeC2HSFeS3H2C2H2CH3CH3CH2CHC2H2C2H2CHFeCH2CHC3H3C4PC9HSCHC3HC2HCH2CHCHC
_chemical_formula_sum              "Fe36 H432 S72 C540 P18"
_cell_length_a       37.1916
_cell_length_b       37.5894
_cell_length_c       32.83
_cell_angle_alpha    89.5985
_cell_angle_beta     89.8904
_cell_angle_gamma    120.078

_space_group_name_H-M_alt    "P 1"
_space_group_IT_number       1

loop_
  _space_group_symop_operation_xyz
  'x, y, z'

loop_
  _atom_site_type_symbol
  _atom_site_label
  _atom_site_symmetry_multiplicity
  _atom_site_fract_x
  _atom_site_fract_y
  _atom_site_fract_z
  _atom_site_occupancy
  Fe  Fe1       1.0  0.07174  0.18824  0.98158  1.0000
  H   H1        1.0  0.30715  0.06329  0.14904  1.0000
  S   S1        1.0  0.28733  0.03798  0.06590  1.0000
  S   S2        1.0  0.01661  0.27282  0.04790  1.0000
  S   S3        1.0  0.08233  0.25218  0.97129  1.0000
  C   C1        1.0  0.13406  0.14129  0.98368  1.0000
  H   H2        1.0  0.20744  0.11178  0.98931  1.0000
  C   C2        1.0  0.01781  0.07604  0.06625  1.0000
  H   H3        1.0  0.03484  0.33499  0.36191  1.0000
  H   H4        1.0  0.30538  0.15570  0.07606  1.0000
  C   C3        1.0  0.03257  0.07197  0.02845  1.0000
  H   H5        1.0  0.18382  0.15456  0.02541  1.0000
  S   S4        1.0  0.19526  0.00341  0.99778  1.0000
  C   C4        1.0  0.01282  0.33667  0.26178  1.0000
  H   H6        1.0  0.04976  0.03618  0.99147  1.0000
  C   C5        1.0  0.05315  0.42559  0.43169  1.0000
  H   H7        1.0  0.06637  0.19489  0.34281  1.0000
  C   C6        1.0  0.00356  0.21522  0.16157  1.0000
  C   C7        1.0  0.14193  0.01452  0.11035  1.0000
  Fe  Fe2       1.0  0.26150  0.01669  0.00117  1.0000
  C   C8        1.0  0.01286  0.01233  0.08908  1.0000
  S   S5        1.0  0.12169  0.17630  0.00693  1.0000
  H   H8        1.0  0.09359  0.02836  0.09932  1.0000
  C   C9        1.0  0.01093  0.40069  0.42133  1.0000
  H   H9        1.0  0.01429  0.10247  0.07201  1.0000
  Fe  Fe3       1.0  0.01926  0.22810  0.00161  1.0000
  H   H10       1.0  0.15890  0.04056  0.13021  1.0000
  C   C10       1.0  0.02362  0.32348  0.33162  1.0000
  H   H11       1.0  0.03096  0.23578  0.14382  1.0000
  H   H12       1.0  0.07591  0.44089  0.40772  1.0000
  H   H13       1.0  0.10456  0.99703  0.98331  1.0000
  C   C11       1.0  0.02768  0.00801  0.05110  1.0000
  H   H14       1.0  0.02403  0.25284  0.21467  1.0000
  C   C12       1.0  0.03769  0.03822  0.02085  1.0000
  C   C13       1.0  0.02932  0.35120  0.30026  1.0000
  S   S6        1.0  0.01133  0.16562  0.01559  1.0000
  H   H15       1.0  0.04528  0.38392  0.30626  1.0000
  C   C14       1.0  0.16733  0.13743  0.99877  1.0000
  H   H16       1.0  0.02832  0.33356  0.10714  1.0000
  H   H17       1.0  0.01590  0.35807  0.23790  1.0000
  H   H18       1.0  0.99642  0.04944  0.12582  1.0000
  H   H19       1.0  0.04033  0.09523  0.00504  1.0000
  C   C15       1.0  0.10475  0.00746  0.09257  1.0000
  H   H20       1.0  0.04051  0.23177  0.30045  1.0000
  S   S7        1.0  0.99650  0.39529  0.36866  1.0000
  C   C16       1.0  0.00786  0.04619  0.09654  1.0000
  C   C17       1.0  0.18060  0.11299  0.97853  1.0000
  C   C18       1.0  0.01855  0.20221  0.31378  1.0000
  C   C19       1.0  0.03330  0.18130  0.33760  1.0000
  H   H21       1.0  0.99704  0.26018  0.34922  1.0000
  C   C20       1.0  0.99908  0.22515  0.20154  1.0000
  C   C21       1.0  0.00210  0.28118  0.32428  1.0000
  C   C22       1.0  0.99788  0.30723  0.11289  1.0000
  C   C23       1.0  0.00547  0.14288  0.35453  1.0000
  H   H22       1.0  0.01696  0.12673  0.37299  1.0000
  H   H23       1.0  0.18705  0.99458  0.11476  1.0000
  Fe  Fe4       1.0  0.21089  0.03336  0.93658  1.0000
  S   S8        1.0  0.18162  0.06928  0.91111  1.0000
  H   H24       1.0  0.26772  0.04161  0.80677  1.0000
  H   H25       1.0  0.09022  0.24227  0.68425  1.0000
  Fe  Fe5       1.0  0.14846  0.44698  0.67684  1.0000
  S   S9        1.0  0.14943  0.42220  0.61457  1.0000
  S   S10       1.0  0.14356  0.42164  0.74231  1.0000
  H   H26       1.0  0.19724  0.23964  0.94335  1.0000
  H   H27       1.0  0.16967  0.30916  0.80912  1.0000
  Fe  Fe6       1.0  0.11361  0.45269  0.59228  1.0000
  S   S11       1.0  0.05193  0.41739  0.55704  1.0000
  C   C24       1.0  0.22758  0.31060  0.81999  1.0000
  S   S12       1.0  0.10954  0.47412  0.65574  1.0000
  S   S13       1.0  0.04238  0.16678  0.92072  1.0000
  Fe  Fe7       1.0  0.04802  0.22895  0.91210  1.0000
  S   S14       1.0  0.06505  0.25289  0.84569  1.0000
  C   C25       1.0  0.03741  0.41167  0.50434  1.0000
  Fe  Fe8       1.0  0.20647  0.48421  0.60215  1.0000
  H   H28       1.0  0.21294  0.28016  0.83360  1.0000
  H   H29       1.0  0.14546  0.25108  0.90693  1.0000
  H   H30       1.0  0.17926  0.14671  0.85788  1.0000
  C   C26       1.0  0.12109  0.37407  0.77012  1.0000
  C   C27       1.0  0.12265  0.37511  0.81304  1.0000
  C   C28       1.0  0.10534  0.33860  0.83671  1.0000
  C   C29       1.0  0.08640  0.30027  0.81774  1.0000
  C   C30       1.0  0.08507  0.29919  0.77484  1.0000
  C   C31       1.0  0.10201  0.33571  0.75116  1.0000
  H   H31       1.0  0.21460  0.18808  0.91788  1.0000
  H   H32       1.0  0.07056  0.26980  0.75980  1.0000
  H   H33       1.0  0.10036  0.33419  0.71828  1.0000
  H   H34       1.0  0.02675  0.35918  0.83816  1.0000
  H   H35       1.0  0.05185  0.40969  0.71740  1.0000
  C   C32       1.0  0.16066  0.09233  0.94295  1.0000
  H   H36       1.0  0.04948  0.12599  0.74377  1.0000
  C   C33       1.0  0.12596  0.09426  0.92941  1.0000
  H   H37       1.0  0.08685  0.12095  0.93761  1.0000
  H   H38       1.0  0.11022  0.07792  0.90242  1.0000
  H   H39       1.0  0.13692  0.40444  0.82817  1.0000
  C   C34       1.0  0.18599  0.09058  0.73711  1.0000
  H   H40       1.0  0.24177  0.14607  0.75386  1.0000
  C   C35       1.0  0.99778  0.34942  0.72376  1.0000
  H   H41       1.0  0.16500  0.23260  0.77801  1.0000
  C   C36       1.0  0.26582  0.39030  0.78657  1.0000
  H   H42       1.0  0.14638  0.02609  0.82469  1.0000
  C   C37       1.0  0.02542  0.04086  0.85853  1.0000
  C   C38       1.0  0.06601  0.18201  0.71136  1.0000
  C   C39       1.0  0.22226  0.36644  0.78903  1.0000
  C   C40       1.0  0.06633  0.43107  0.47276  1.0000
  C   C41       1.0  0.25293  0.42769  0.68809  1.0000
  C   C42       1.0  0.25125  0.42191  0.64598  1.0000
  C   C43       1.0  0.28429  0.42214  0.62546  1.0000
  H   H43       1.0  0.06921  0.41575  0.79052  1.0000
  C   C44       1.0  0.01789  0.35593  0.80650  1.0000
  H   H44       1.0  0.12544  0.03945  0.72374  1.0000
  C   C45       1.0  0.11268  0.11864  0.94948  1.0000
  H   H45       1.0  0.11087  0.21103  0.84584  1.0000
  H   H46       1.0  0.02210  0.01230  0.87010  1.0000
  C   C46       1.0  0.01115  0.30866  0.93571  1.0000
  P   P1        1.0  0.29016  0.44124  0.76432  1.0000
  C   C47       1.0  0.20327  0.32697  0.80628  1.0000
  H   H47       1.0  0.22698  0.42758  0.70335  1.0000
  H   H48       1.0  0.22483  0.41837  0.62887  1.0000
  H   H49       1.0  0.20294  0.37847  0.77796  1.0000
  C   C48       1.0  0.07218  0.15837  0.74063  1.0000
  C   C49       1.0  0.28800  0.43391  0.70996  1.0000
  H   H50       1.0  0.24058  0.43456  0.83694  1.0000
  P   P2        1.0  0.11582  0.14598  0.80294  1.0000
  C   C50       1.0  0.06700  0.10714  0.82477  1.0000
  C   C51       1.0  0.14327  0.12439  0.77696  1.0000
  C   C52       1.0  0.12124  0.08625  0.75748  1.0000
  C   C53       1.0  0.13071  0.24186  0.73081  1.0000
  C   C54       1.0  0.20810  0.12931  0.75497  1.0000
  H   H51       1.0  0.03923  0.14590  0.82400  1.0000
  C   C55       1.0  0.18685  0.14641  0.77436  1.0000
  C   C56       1.0  0.06188  0.06932  0.83827  1.0000
  H   H52       1.0  0.03864  0.16798  0.69234  1.0000
  C   C57       1.0  0.27080  0.33338  0.81585  1.0000
  C   C58       1.0  0.14418  0.17754  0.84566  1.0000
  C   C59       1.0  0.13450  0.20672  0.86041  1.0000
  C   C60       1.0  0.15410  0.22953  0.89508  1.0000
  C   C61       1.0  0.18351  0.22335  0.91537  1.0000
  C   C62       1.0  0.19335  0.19435  0.90095  1.0000
  C   C63       1.0  0.17331  0.17103  0.86660  1.0000
  H   H53       1.0  0.08760  0.06956  0.75740  1.0000
  H   H54       1.0  0.22268  0.06998  0.82681  1.0000
  H   H55       1.0  0.15326  0.27429  0.72713  1.0000
  C   C64       1.0  0.13705  0.21824  0.75992  1.0000
  H   H56       1.0  0.20449  0.17670  0.78753  1.0000
  H   H57       1.0  0.08666  0.06238  0.83475  1.0000
  H   H58       1.0  0.20253  0.07722  0.72242  1.0000
  C   C65       1.0  0.24122  0.45773  0.81672  1.0000
  H   H59       1.0  0.10689  0.34015  0.86959  1.0000
  C   C66       1.0  0.04197  0.38837  0.77962  1.0000
  C   C67       1.0  0.28989  0.37295  0.79882  1.0000
  C   C68       1.0  0.99859  0.08737  0.85197  1.0000
  C   C69       1.0  0.31875  0.42717  0.64717  1.0000
  C   C70       1.0  0.99519  0.38669  0.49397  1.0000
  C   C71       1.0  0.03519  0.11610  0.83211  1.0000
  C   C72       1.0  0.03222  0.38497  0.73826  1.0000
  C   C73       1.0  0.23420  0.02282  0.80442  1.0000
  H   H60       1.0  0.03994  0.31250  0.94797  1.0000
  C   C74       1.0  0.14257  0.06923  0.73804  1.0000
  H   H61       1.0  0.28344  0.41932  0.59258  1.0000
  C   C75       1.0  0.09514  0.22380  0.70663  1.0000
  C   C76       1.0  0.10730  0.17658  0.76576  1.0000
  C   C77       1.0  0.26303  0.46753  0.77956  1.0000
  S   S15       1.0  0.27834  0.05127  0.94099  1.0000
  C   C78       1.0  0.20891  0.03876  0.81571  1.0000
  H   H62       1.0  0.09887  0.45035  0.47997  1.0000
  H   H63       1.0  0.02263  0.29443  0.87559  1.0000
  H   H64       1.0  0.28952  0.32033  0.82587  1.0000
  C   C79       1.0  0.16576  0.01385  0.81454  1.0000
  H   H65       1.0  0.32336  0.38993  0.79524  1.0000
  H   H66       1.0  0.20070  0.46817  0.85545  1.0000
  C   C80       1.0  0.21893  0.47707  0.82763  1.0000
  C   C81       1.0  0.00121  0.29832  0.89481  1.0000
  C   C82       1.0  0.32030  0.43226  0.68939  1.0000
  H   H67       1.0  0.32789  0.45008  0.84446  1.0000
  H   H68       1.0  0.99727  0.19472  0.74926  1.0000
  C   C83       1.0  0.09998  0.94929  0.05661  1.0000
  S   S16       1.0  0.12229  0.88722  0.98597  1.0000
  H   H69       1.0  0.02516  0.88518  0.07053  1.0000
  H   H70       1.0  0.08532  0.92513  0.03438  1.0000
  H   H71       1.0  0.00545  0.98964  0.11295  1.0000
  H   H72       1.0  0.03899  0.84534  0.01821  1.0000
  P   P3        1.0  0.03520  0.96479  0.04212  1.0000
  C   C84       1.0  0.03692  0.84990  0.98596  1.0000
  H   H73       1.0  0.14920  0.93615  0.06765  1.0000
  C   C85       1.0  0.03751  0.95848  0.98790  1.0000
  C   C86       1.0  0.99756  0.83416  0.96776  1.0000
  C   C87       1.0  0.15771  0.98855  0.10184  1.0000
  H   H74       1.0  0.29040  0.96202  0.10451  1.0000
  H   H75       1.0  0.32300  0.95732  0.16805  1.0000
  C   C88       1.0  0.31963  0.96216  0.10336  1.0000
  H   H76       1.0  0.32430  0.96797  0.03806  1.0000
  C   C89       1.0  0.13642  0.95564  0.07535  1.0000
  C   C90       1.0  0.08324  0.97447  0.06572  1.0000
  H   H77       1.0  0.32518  0.88430  0.21070  1.0000
  H   H78       1.0  0.30494  0.81093  0.21402  1.0000
  C   C91       1.0  0.99575  0.88405  0.07327  1.0000
  S   S17       1.0  0.24605  0.95617  0.97236  1.0000
  C   C92       1.0  0.07582  0.97817  0.96715  1.0000
  H   H79       1.0  0.16536  0.68996  0.77870  1.0000
  C   C93       1.0  0.06955  0.72669  0.64312  1.0000
  S   S18       1.0  0.29286  0.76246  0.56448  1.0000
  C   C94       1.0  0.30449  0.62401  0.63044  1.0000
  C   C95       1.0  0.18263  0.82216  0.61662  1.0000
  H   H80       1.0  0.27670  0.85708  0.80670  1.0000
  C   C96       1.0  0.31717  0.59733  0.51413  1.0000
  C   C97       1.0  0.20437  0.92345  0.71259  1.0000
  H   H81       1.0  0.27878  0.78475  0.72449  1.0000
  H   H82       1.0  0.25694  0.81573  0.53765  1.0000
  S   S19       1.0  0.18568  0.59510  0.66426  1.0000
  C   C98       1.0  0.20828  0.85629  0.59210  1.0000
  C   C99       1.0  0.23485  0.85395  0.56345  1.0000
  H   H83       1.0  0.06965  0.88328  0.81235  1.0000
  C   C100      1.0  0.07050  0.87602  0.92073  1.0000
  H   H84       1.0  0.09843  0.89204  0.90240  1.0000
  C   C101      1.0  0.26236  0.71610  0.59230  1.0000
  C   C102      1.0  0.24089  0.67860  0.57154  1.0000
  C   C103      1.0  0.21815  0.64115  0.59316  1.0000
  C   C104      1.0  0.21555  0.64109  0.63573  1.0000
  C   C105      1.0  0.23584  0.67877  0.65629  1.0000
  C   C106      1.0  0.25980  0.71592  0.63476  1.0000
  H   H85       1.0  0.24257  0.67843  0.53868  1.0000
  H   H86       1.0  0.20224  0.61243  0.57691  1.0000
  H   H87       1.0  0.23350  0.67927  0.68906  1.0000
  H   H88       1.0  0.27670  0.74442  0.65102  1.0000
  C   C107      1.0  0.21641  0.98184  0.79237  1.0000
  C   C108      1.0  0.29106  0.88973  0.80073  1.0000
  C   C109      1.0  0.28471  0.91475  0.82847  1.0000
  C   C110      1.0  0.30333  0.95718  0.82154  1.0000
  S   S20       1.0  0.19246  0.97458  0.90357  1.0000
  C   C111      1.0  0.11075  0.83786  0.83636  1.0000
  C   C112      1.0  0.05418  0.85665  0.69757  1.0000
  H   H89       1.0  0.26609  0.90130  0.85557  1.0000
  H   H90       1.0  0.25981  0.64066  0.72413  1.0000
  H   H91       1.0  1.00000  0.85459  0.78217  1.0000
  S   S21       1.0  0.20800  0.50663  0.66523  1.0000
  H   H92       1.0  0.28482  0.61347  0.86634  1.0000
  C   C113      1.0  0.04165  0.75359  0.69332  1.0000
  C   C114      1.0  0.23574  0.81745  0.55925  1.0000
  H   H93       1.0  0.20799  0.88477  0.59560  1.0000
  H   H94       1.0  0.16278  0.82486  0.63898  1.0000
  C   C115      1.0  0.03667  0.73104  0.65799  1.0000
  Fe  Fe9       1.0  0.16940  0.53199  0.64011  1.0000
  H   H95       1.0  0.25226  0.55468  0.52503  1.0000
  H   H96       1.0  0.20080  0.59922  0.76959  1.0000
  H   H97       1.0  0.20262  0.88610  0.91212  1.0000
  C   C116      1.0  0.00247  0.93128  0.92361  1.0000
  C   C117      1.0  0.07956  0.77190  0.71380  1.0000
  C   C118      1.0  0.11246  0.76761  0.69901  1.0000
  C   C119      1.0  0.10764  0.74469  0.66373  1.0000
  P   P4        1.0  0.15116  0.74108  0.64414  1.0000
  C   C120      1.0  0.18029  0.73944  0.68734  1.0000
  C   C121      1.0  0.13330  0.69534  0.61358  1.0000
  C   C122      1.0  0.13298  0.66017  0.62892  1.0000
  C   C123      1.0  0.11952  0.62542  0.60458  1.0000
  C   C124      1.0  0.10682  0.62555  0.56463  1.0000
  C   C125      1.0  0.10736  0.66045  0.54895  1.0000
  C   C126      1.0  0.12052  0.69520  0.57327  1.0000
  C   C127      1.0  0.22343  0.76581  0.68947  1.0000
  H   H98       1.0  0.22897  0.60119  0.49702  1.0000
  H   H99       1.0  0.10713  0.98862  0.90940  1.0000
  H   H100      1.0  0.21285  0.58655  0.84147  1.0000
  C   C128      1.0  0.15944  0.71240  0.71997  1.0000
  C   C129      1.0  0.18336  0.78536  0.61245  1.0000
  C   C130      1.0  0.17701  0.87251  0.89089  1.0000
  C   C131      1.0  0.21023  0.78335  0.58370  1.0000
  H   H101      1.0  0.08350  0.78942  0.74117  1.0000
  H   H102      1.0  0.14172  0.78221  0.71508  1.0000
  H   H103      1.0  0.14391  0.65935  0.65917  1.0000
  H   H104      1.0  0.11992  0.59861  0.61647  1.0000
  C   C132      1.0  0.26177  0.61086  0.49715  1.0000
  C   C133      1.0  0.24258  0.51850  0.76610  1.0000
  H   H105      1.0  0.12118  0.72215  0.56044  1.0000
  H   H106      1.0  0.24052  0.78716  0.66497  1.0000
  H   H107      1.0  0.11443  0.95418  0.80296  1.0000
  H   H108      1.0  0.06500  0.70918  0.61570  1.0000
  H   H109      1.0  0.04205  0.94653  0.87079  1.0000
  H   H110      1.0  0.12612  0.69189  0.71895  1.0000
  H   H111      1.0  0.29165  0.52696  0.65202  1.0000
  H   H112      1.0  0.21194  0.75555  0.58049  1.0000
  C   C134      1.0  0.27957  0.61936  0.83519  1.0000
  C   C135      1.0  0.23902  0.60420  0.82121  1.0000
  C   C136      1.0  0.23219  0.61141  0.78092  1.0000
  C   C137      1.0  0.26589  0.63461  0.75491  1.0000
  C   C138      1.0  0.30677  0.65035  0.76882  1.0000
  C   C139      1.0  0.31519  0.63308  0.67137  1.0000
  C   C140      1.0  0.23202  0.91919  0.68690  1.0000
  C   C141      1.0  0.03115  0.85849  0.90229  1.0000
  H   H113      1.0  0.09799  0.66068  0.51777  1.0000
  C   C142      1.0  0.22037  0.85910  0.72518  1.0000
  C   C143      1.0  0.18005  0.89189  0.85352  1.0000
  P   P5        1.0  0.15043  0.90229  0.77917  1.0000
  H   H114      1.0  0.24803  0.94132  0.66263  1.0000
  H   H115      1.0  0.08491  0.82335  0.81565  1.0000
  C   C144      1.0  0.09978  0.88258  0.75624  1.0000
  C   C145      1.0  0.22451  0.73738  0.75562  1.0000
  C   C146      1.0  0.31589  0.90651  0.76549  1.0000
  S   S22       1.0  0.17090  0.51295  0.57563  1.0000
  H   H116      1.0  0.20845  0.92013  0.84623  1.0000
  H   H117      1.0  0.32674  0.57717  0.52798  1.0000
  H   H118      1.0  0.02884  0.86115  0.86982  1.0000
  C   C147      1.0  0.14651  0.87545  0.82644  1.0000
  H   H119      1.0  0.28235  0.50788  0.72674  1.0000
  C   C148      1.0  0.24540  0.76459  0.72344  1.0000
  C   C149      1.0  0.14059  0.83636  0.90143  1.0000
  C   C150      1.0  0.02040  0.85011  0.72182  1.0000
  S   S23       1.0  0.29771  0.99100  0.85589  1.0000
  C   C151      1.0  0.31409  0.51763  0.59507  1.0000
  C   C152      1.0  0.14780  0.97284  0.80237  1.0000
  C   C153      1.0  0.09372  0.87278  0.71466  1.0000
  H   H120      1.0  0.30141  0.71862  0.77723  1.0000
  H   H121      1.0  0.19959  0.51985  0.80913  1.0000
  H   H122      1.0  0.25529  0.88055  0.54491  1.0000
  H   H123      1.0  0.07933  0.79085  0.88239  1.0000
  C   C154      1.0  0.10766  0.81876  0.87398  1.0000
  H   H124      1.0  0.24162  0.73648  0.78185  1.0000
  H   H125      1.0  0.30672  0.60795  0.69266  1.0000
  C   C155      1.0  0.18153  0.71126  0.75388  1.0000
  H   H126      1.0  0.28105  0.67077  0.47162  1.0000
  H   H127      1.0  0.22787  0.83513  0.73084  1.0000
  C   C156      1.0  0.17300  0.95632  0.79133  1.0000
  C   C157      1.0  0.06567  0.87611  0.78023  1.0000
  H   H128      1.0  0.28815  0.59236  0.62034  1.0000
  C   C158      1.0  0.19299  0.86340  0.75113  1.0000
  H   H129      1.0  0.17900  0.84193  0.77626  1.0000
  H   H130      1.0  0.04971  0.84918  0.66547  1.0000
  C   C159      1.0  0.07737  0.97389  0.92502  1.0000
  C   C160      1.0  0.27485  0.58466  0.51297  1.0000
  H   H131      1.0  0.23683  0.96985  0.78549  1.0000
  H   H132      1.0  0.09709  0.59872  0.54575  1.0000
  H   H133      1.0  0.19877  0.94878  0.70756  1.0000
  C   C161      1.0  0.24017  0.88714  0.69334  1.0000
  C   C162      1.0  0.07357  0.87107  0.96260  1.0000
  C   C163      1.0  0.18516  0.89595  0.74531  1.0000
  H   H134      1.0  0.11928  0.87728  0.69533  1.0000
  C   C164      1.0  0.04075  0.95041  0.90327  1.0000
  C   C165      1.0  0.02616  0.85980  0.76317  1.0000
  H   H135      1.0  0.26267  0.88454  0.67436  1.0000
  H   H136      1.0  0.13771  0.82245  0.93119  1.0000
  H   H137      1.0  0.30511  0.64890  0.57114  1.0000
  C   C166      1.0  0.31413  0.65576  0.60257  1.0000
  C   C167      1.0  0.31339  0.64257  0.80917  1.0000
  H   H138      1.0  0.24267  0.54175  0.74635  1.0000
  S   S24       1.0  0.32231  0.87289  0.73156  1.0000
  H   H139      1.0  0.00726  0.71683  0.64206  1.0000
  C   C168      1.0  0.29110  0.64992  0.48265  1.0000
  S   S25       1.0  0.26532  0.49430  0.57019  1.0000
  C   C169      1.0  0.31830  0.53043  0.63553  1.0000
  Fe  Fe10      1.0  0.18085  0.94555  0.96548  1.0000
  H   H140      1.0  0.31754  0.78922  0.79306  1.0000
  H   H141      1.0  0.01612  0.75685  0.70485  1.0000
  C   C170      1.0  0.21881  0.50670  0.80185  1.0000
  C   C171      1.0  0.26475  0.49904  0.75496  1.0000
  C   C172      1.0  0.00078  0.93536  0.96575  1.0000
  Fe  Fe11      1.0  0.25881  0.98963  0.91158  1.0000
  Fe  Fe12      1.0  0.47708  0.12137  0.23498  1.0000
  S   S26       1.0  0.45004  0.12963  0.29350  1.0000
  S   S27       1.0  0.45675  0.11040  0.16770  1.0000
  Fe  Fe13      1.0  0.55730  0.13717  0.27887  1.0000
  S   S28       1.0  0.53649  0.14691  0.33984  1.0000
  S   S29       1.0  0.61767  0.13925  0.26268  1.0000
  Fe  Fe14      1.0  0.47426  0.09192  0.32514  1.0000
  S   S30       1.0  0.43489  0.03385  0.36473  1.0000
  Fe  Fe15      1.0  0.51438  0.18402  0.30419  1.0000
  S   S31       1.0  0.52870  0.24616  0.32951  1.0000
  S   S32       1.0  0.49674  0.08011  0.26552  1.0000
  S   S33       1.0  0.53974  0.17791  0.24455  1.0000
  H   H142      1.0  0.56248  0.06099  0.29973  1.0000
  S   S34       1.0  0.61327  0.42097  0.23837  1.0000
  H   H143      1.0  0.37737  0.15649  0.31406  1.0000
  C   C173      1.0  0.64308  0.09083  0.43502  1.0000
  H   H144      1.0  0.38918  0.02747  0.19690  1.0000
  H   H145      1.0  0.45247  0.19332  0.09588  1.0000
  H   H146      1.0  0.63435  0.16774  0.34675  1.0000
  C   C174      1.0  0.39805  0.16077  0.05944  1.0000
  C   C175      1.0  0.55430  0.29453  0.30368  1.0000
  C   C176      1.0  0.56828  0.33073  0.32631  1.0000
  C   C177      1.0  0.58732  0.36965  0.30697  1.0000
  C   C178      1.0  0.59194  0.37282  0.26456  1.0000
  C   C179      1.0  0.57801  0.33660  0.24196  1.0000
  C   C180      1.0  0.55978  0.29772  0.26136  1.0000
  H   H147      1.0  0.56397  0.32869  0.35901  1.0000
  H   H148      1.0  0.59747  0.39712  0.32482  1.0000
  H   H149      1.0  0.58114  0.33868  0.20924  1.0000
  H   H150      1.0  0.54902  0.27020  0.24353  1.0000
  H   H151      1.0  0.53037  0.08450  0.14547  1.0000
  C   C181      1.0  0.37223  0.08394  0.15803  1.0000
  C   C182      1.0  0.40919  0.09030  0.14013  1.0000
  C   C183      1.0  0.65828  0.24888  0.15931  1.0000
  H   H152      1.0  0.37199  0.09142  0.18972  1.0000
  C   C184      1.0  0.57418  0.06053  0.36384  1.0000
  C   C185      1.0  0.43422  0.01802  0.41647  1.0000
  C   C186      1.0  0.40877  0.08055  0.09870  1.0000
  C   C187      1.0  0.56113  0.11859  0.44289  1.0000
  C   C188      1.0  0.35653  0.14979  0.05388  1.0000
  C   C189      1.0  0.54834  0.14478  0.45905  1.0000
  C   C190      1.0  0.36878  0.02385  0.25869  1.0000
  H   H153      1.0  0.62442  0.26948  0.23430  1.0000
  C   C191      1.0  0.59298  0.17977  0.12187  1.0000
  C   C192      1.0  0.60357  0.28013  0.41789  1.0000
  C   C193      1.0  0.63892  0.31617  0.40486  1.0000
  C   C194      1.0  0.64765  0.25121  0.11874  1.0000
  C   C195      1.0  0.55922  0.04000  0.40140  1.0000
  P   P6        1.0  0.58828  0.06179  0.44763  1.0000
  C   C196      1.0  0.63692  0.21126  0.18034  1.0000
  H   H154      1.0  0.64085  0.04553  0.39311  1.0000
  C   C197      1.0  0.47471  0.02794  0.16020  1.0000
  C   C198      1.0  0.33548  0.06799  0.13481  1.0000
  C   C199      1.0  0.37201  0.06460  0.07547  1.0000
  H   H155      1.0  0.35733  0.15774  0.18577  1.0000
  H   H156      1.0  0.57562  0.33763  0.11872  1.0000
  C   C200      1.0  0.45537  0.04603  0.44749  1.0000
  H   H157      1.0  0.40883  0.37512  0.15544  1.0000
  H   H158      1.0  0.58745  0.14840  0.17890  1.0000
  C   C201      1.0  0.36329  0.15337  0.25005  1.0000
  H   H159      1.0  0.41319  0.27737  0.09329  1.0000
  H   H160      1.0  0.47235  0.07842  0.44028  1.0000
  C   C202      1.0  0.36060  0.19102  0.11190  1.0000
  C   C203      1.0  0.55506  0.30708  0.13082  1.0000
  H   H161      1.0  0.40321  0.33739  0.09185  1.0000
  C   C204      1.0  0.55089  0.04476  0.32843  1.0000
  H   H162      1.0  0.60343  0.08921  0.36177  1.0000
  H   H163      1.0  0.50130  0.31383  0.12803  1.0000
  H   H164      1.0  0.41222  0.14836  0.03951  1.0000
  H   H165      1.0  0.46944  0.25430  0.24015  1.0000
  C   C205      1.0  0.60424  0.17696  0.16182  1.0000
  C   C206      1.0  0.64208  0.26943  0.29634  1.0000
  H   H166      1.0  0.57506  0.07080  0.19169  1.0000
  C   C207      1.0  0.54229  0.04833  0.18879  1.0000
  H   H167      1.0  0.34560  0.20242  0.13204  1.0000
  H   H168      1.0  0.56118  0.11524  0.41023  1.0000
  H   H169      1.0  0.37230  0.05732  0.04370  1.0000
  C   C208      1.0  0.51726  0.05605  0.16271  1.0000
  C   C209      1.0  0.61492  0.21680  0.10021  1.0000
  H   H170      1.0  0.43709  0.08530  0.08442  1.0000
  H   H171      1.0  0.60631  0.21887  0.06915  1.0000
  H   H172      1.0  0.57482  0.26850  0.40117  1.0000
  H   H173      1.0  0.56714  0.15334  0.10781  1.0000
  H   H174      1.0  0.61123  0.25948  0.30818  1.0000
  H   H175      1.0  0.35156  0.01383  0.32221  1.0000
  C   C210      1.0  0.54453  0.24243  0.15768  1.0000
  C   C211      1.0  0.57090  0.28159  0.14153  1.0000
  C   C212      1.0  0.51282  0.29350  0.13644  1.0000
  C   C213      1.0  0.48618  0.25430  0.15310  1.0000
  C   C214      1.0  0.50232  0.22879  0.16353  1.0000
  P   P7        1.0  0.43132  0.23573  0.15922  1.0000
  C   C215      1.0  0.42306  0.27929  0.15853  1.0000
  C   C216      1.0  0.40224  0.20178  0.11804  1.0000
  H   H176      1.0  0.42439  0.35229  0.22079  1.0000
  C   C217      1.0  0.42076  0.18630  0.09162  1.0000
  C   C218      1.0  0.42658  0.30114  0.19428  1.0000
  C   C219      1.0  0.42139  0.33550  0.19309  1.0000
  C   C220      1.0  0.41277  0.34844  0.15626  1.0000
  C   C221      1.0  0.40961  0.32718  0.12047  1.0000
  C   C222      1.0  0.41498  0.29292  0.12151  1.0000
  C   C223      1.0  0.41462  0.20943  0.20787  1.0000
  C   C224      1.0  0.37666  0.17238  0.21188  1.0000
  H   H177      1.0  0.45564  0.03552  0.14125  1.0000
  C   C225      1.0  0.38760  0.17121  0.28447  1.0000
  C   C226      1.0  0.42575  0.20757  0.28062  1.0000
  C   C227      1.0  0.43953  0.22632  0.24245  1.0000
  H   H178      1.0  0.55670  0.22257  0.16587  1.0000
  H   H179      1.0  0.60363  0.29232  0.13753  1.0000
  H   H180      1.0  0.48222  0.19826  0.17603  1.0000
  C   C228      1.0  0.52003  0.00412  0.40291  1.0000
  H   H181      1.0  0.44494  0.22106  0.30723  1.0000
  H   H182      1.0  0.43372  0.29222  0.22313  1.0000
  H   H183      1.0  0.53811  0.16075  0.43871  1.0000
  H   H184      1.0  0.63681  0.33178  0.37794  1.0000
  C   C229      1.0  0.33501  0.05819  0.09337  1.0000
  H   H185      1.0  0.36750  0.05195  0.25646  1.0000
  C   C230      1.0  0.66000  0.07556  0.40640  1.0000
  H   H186      1.0  0.64526  0.20839  0.21125  1.0000
  C   C231      1.0  0.35958  0.00228  0.29559  1.0000
  C   C232      1.0  0.38102  0.00992  0.22499  1.0000
  C   C233      1.0  0.64981  0.27536  0.25444  1.0000
  C   C234      1.0  0.60501  0.25941  0.45273  1.0000
  C   C235      1.0  0.51209  0.00897  0.33024  1.0000
  Fe  Fe16      1.0  0.65630  0.48397  0.26663  1.0000
  C   C236      1.0  0.52465  0.01239  0.21244  1.0000
  C   C237      1.0  0.33779  0.16486  0.08013  1.0000
  H   H187      1.0  0.65640  0.33873  0.21017  1.0000
  H   H188      1.0  0.57729  0.23197  0.46297  1.0000
  H   H189      1.0  0.65321  0.39681  0.17977  1.0000
  H   H190      1.0  0.33412  0.12471  0.25289  1.0000
  H   H191      1.0  0.33851  0.12868  0.02986  1.0000
  H   H192      1.0  0.49320  0.99783  0.30317  1.0000
  H   H193      1.0  0.54391  0.00703  0.23344  1.0000
  H   H194      1.0  0.58213  0.08522  0.53172  1.0000
  H   H195      1.0  0.63362  0.01893  0.47157  1.0000
  H   H196      1.0  0.34704  0.43554  0.70572  1.0000
  H   H197      1.0  0.34265  0.00660  0.78038  1.0000
  C   C238      1.0  0.54716  0.14898  0.50123  1.0000
  H   H198      1.0  0.64301  0.25834  0.50158  1.0000
  H   H199      1.0  0.65647  0.14272  0.47346  1.0000
  C   C239      1.0  0.55960  0.12760  0.52722  1.0000
  C   C240      1.0  0.64196  0.27446  0.47453  1.0000
  H   H200      1.0  0.46973  0.05439  0.51168  1.0000
  H   H201      1.0  0.55848  0.13064  0.55993  1.0000
  H   H202      1.0  0.53614  0.16840  0.51377  1.0000
  C   C241      1.0  0.57260  0.10152  0.51109  1.0000
  H   H203      1.0  0.34456  0.42781  0.63113  1.0000
  C   C242      1.0  0.34243  0.47360  0.78262  1.0000
  C   C243      1.0  0.45341  0.03221  0.48805  1.0000
  C   C244      1.0  0.57718  0.02067  0.48354  1.0000
  C   C245      1.0  0.60482  0.00579  0.48863  1.0000
  H   H204      1.0  0.51799  0.01333  0.50289  1.0000
  C   C246      1.0  0.54003  0.00267  0.50630  1.0000
  C   C247      1.0  0.35172  0.47152  0.82370  1.0000
  C   C248      1.0  0.57257  0.09615  0.46878  1.0000
  P   P8        1.0  0.40126  0.95790  0.18424  1.0000
  C   C249      1.0  0.37691  0.96667  0.06411  1.0000
  H   H205      1.0  0.42533  0.96517  0.09826  1.0000
  H   H206      1.0  0.37960  0.92679  0.26890  1.0000
  H   H207      1.0  0.39022  0.66859  0.41607  1.0000
  C   C250      1.0  0.41086  0.97588  0.42680  1.0000
  C   C251      1.0  0.38704  0.90451  0.18742  1.0000
  S   S35       1.0  0.64398  0.58664  0.35980  1.0000
  C   C252      1.0  0.41941  0.69396  0.42649  1.0000
  C   C253      1.0  0.33560  0.83347  0.20298  1.0000
  H   H208      1.0  0.43383  0.72558  0.36855  1.0000
  C   C254      1.0  0.34726  0.87508  0.20131  1.0000
  C   C255      1.0  0.33860  0.96016  0.13935  1.0000
  C   C256      1.0  0.36308  0.96704  0.29890  1.0000
  C   C257      1.0  0.49680  0.98857  0.36741  1.0000
  H   H209      1.0  0.39175  0.96945  0.03490  1.0000
  C   C258      1.0  0.38357  0.97402  0.22772  1.0000
  H   H210      1.0  0.52606  0.78336  0.46171  1.0000
  H   H211      1.0  0.46603  0.96171  0.36908  1.0000
  H   H212      1.0  0.39403  0.95380  0.40325  1.0000
  C   C259      1.0  0.40257  0.84989  0.17520  1.0000
  C   C260      1.0  0.41432  0.89154  0.17352  1.0000
  C   C261      1.0  0.48240  0.75851  0.41220  1.0000
  H   H213      1.0  0.60211  0.62303  0.40113  1.0000
  C   C262      1.0  0.39597  0.96459  0.10006  1.0000
  C   C263      1.0  0.37547  0.95313  0.26522  1.0000
  C   C264      1.0  0.37728  0.96202  0.13801  1.0000
  H   H214      1.0  0.64491  0.62041  0.24489  1.0000
  H   H215      1.0  0.46849  0.95747  0.22991  1.0000
  H   H216      1.0  0.44448  0.91342  0.16100  1.0000
  H   H217      1.0  0.50168  0.78325  0.39124  1.0000
  C   C265      1.0  0.48200  0.98429  0.21013  1.0000
  H   H218      1.0  0.37150  0.51798  0.44506  1.0000
  C   C266      1.0  0.44415  0.72606  0.39947  1.0000
  H   H219      1.0  0.42381  0.84005  0.16465  1.0000
  H   H220      1.0  0.50656  0.98854  0.43143  1.0000
  C   C267      1.0  0.63650  0.59192  0.41299  1.0000
  S   S36       1.0  0.65293  0.54187  0.25594  1.0000
  C   C268      1.0  0.61436  0.61171  0.42453  1.0000
  C   C269      1.0  0.49610  0.75870  0.45186  1.0000
  C   C270      1.0  0.45686  0.99149  0.18336  1.0000
  C   C271      1.0  0.36331  0.82089  0.19012  1.0000
  H   H221      1.0  0.35791  0.95168  0.32818  1.0000
  H   H222      1.0  0.44230  0.52999  0.45920  1.0000
  C   C272      1.0  0.60787  0.61709  0.46603  1.0000
  C   C273      1.0  0.39440  0.54639  0.45906  1.0000
  H   H223      1.0  0.35339  0.57074  0.46164  1.0000
  C   C274      1.0  0.65208  0.57752  0.44383  1.0000
  C   C275      1.0  0.33880  0.96554  0.06578  1.0000
  H   H224      1.0  0.35419  0.78862  0.19131  1.0000
  Fe  Fe17      1.0  0.39907  0.91389  0.58730  1.0000
  S   S37       1.0  0.42300  0.91806  0.65179  1.0000
  S   S38       1.0  0.42920  0.97482  0.55046  1.0000
  Fe  Fe18      1.0  0.42453  0.86038  0.63684  1.0000
  S   S39       1.0  0.40505  0.85864  0.57184  1.0000
  C   C276      1.0  0.39189  0.55094  0.63437  1.0000
  Fe  Fe19      1.0  0.33959  0.82120  0.59664  1.0000
  C   C277      1.0  0.39968  0.64968  0.72895  1.0000
  C   C278      1.0  0.35693  0.54686  0.65509  1.0000
  H   H225      1.0  0.37684  0.62851  0.70790  1.0000
  H   H226      1.0  0.34131  0.72101  0.59373  1.0000
  P   P9        1.0  0.63538  0.82652  0.77974  1.0000
  H   H227      1.0  0.41459  0.54152  0.57742  1.0000
  C   C279      1.0  0.38798  0.53890  0.59362  1.0000
  H   H228      1.0  0.35960  0.55617  0.68650  1.0000
  C   C280      1.0  0.42338  0.64635  0.58111  1.0000
  C   C281      1.0  0.43312  0.65965  0.62131  1.0000
  C   C282      1.0  0.43450  0.69579  0.63344  1.0000
  C   C283      1.0  0.41324  0.61272  0.48829  1.0000
  C   C284      1.0  0.39952  0.77174  0.73755  1.0000
  H   H229      1.0  0.42245  0.76781  0.72082  1.0000
  Fe  Fe20      1.0  0.35618  0.87713  0.67095  1.0000
  C   C285      1.0  0.42615  0.71868  0.60536  1.0000
  C   C286      1.0  0.41510  0.66931  0.55274  1.0000
  H   H230      1.0  0.42705  0.74664  0.61476  1.0000
  C   C287      1.0  0.41628  0.70548  0.56520  1.0000
  H   H231      1.0  0.40962  0.72355  0.54394  1.0000
  P   P10       1.0  0.40142  0.65245  0.50101  1.0000
  C   C288      1.0  0.34923  0.52239  0.57408  1.0000
  C   C289      1.0  0.40830  0.81152  0.74712  1.0000
  S   S40       1.0  0.43856  0.56730  0.66167  1.0000
  C   C290      1.0  0.43509  0.64658  0.73595  1.0000
  H   H232      1.0  0.44267  0.70649  0.66437  1.0000
  S   S41       1.0  0.35963  0.81961  0.66032  1.0000
  H   H233      1.0  0.55928  0.68041  0.87701  1.0000
  H   H234      1.0  0.61103  0.77624  0.63838  1.0000
  C   C291      1.0  0.53015  0.77783  0.59825  1.0000
  H   H235      1.0  0.42253  0.61835  0.57235  1.0000
  P   P11       1.0  0.35004  0.68590  0.73747  1.0000
  C   C292      1.0  0.37873  0.81769  0.76705  1.0000
  H   H236      1.0  0.38506  0.84866  0.77306  1.0000
  C   C293      1.0  0.36116  0.73757  0.74881  1.0000
  C   C294      1.0  0.64573  0.58303  0.48533  1.0000
  H   H237      1.0  0.50720  0.83193  0.80826  1.0000
  C   C295      1.0  0.46593  0.67389  0.76216  1.0000
  H   H238      1.0  0.49367  0.67181  0.76669  1.0000
  H   H239      1.0  0.43992  0.64207  0.64293  1.0000
  C   C296      1.0  0.62361  0.60285  0.49686  1.0000
  C   C297      1.0  0.40908  0.96195  0.46735  1.0000
  C   C298      1.0  0.55819  0.95567  0.53836  1.0000
  C   C299      1.0  0.61185  0.78240  0.85298  1.0000
  C   C300      1.0  0.53061  0.97037  0.53352  1.0000
  H   H240      1.0  0.49507  0.59551  0.48998  1.0000
  H   H241      1.0  0.43892  0.62329  0.72047  1.0000
  H   H242      1.0  0.51464  0.87374  0.74656  1.0000
  C   C301      1.0  0.46097  0.70380  0.78226  1.0000
  C   C302      1.0  0.42281  0.52591  0.81223  1.0000
  C   C303      1.0  0.42536  0.70676  0.77566  1.0000
  H   H243      1.0  0.62714  0.81196  0.86788  1.0000
  C   C304      1.0  0.33430  0.69648  0.61545  1.0000
  C   C305      1.0  0.53386  0.84188  0.78833  1.0000
  H   H244      1.0  0.61661  0.96190  0.51975  1.0000
  H   H245      1.0  0.36686  0.50667  0.72556  1.0000
  H   H246      1.0  0.58934  0.78485  0.70683  1.0000
  H   H247      1.0  0.50169  0.95666  0.55074  1.0000
  H   H248      1.0  0.53473  0.75834  0.65871  1.0000
  H   H249      1.0  0.34631  0.51251  0.54279  1.0000
  C   C306      1.0  0.45358  0.61981  0.49480  1.0000
  S   S42       1.0  0.61723  0.60929  0.55003  1.0000
  C   C307      1.0  0.62204  0.79712  0.70042  1.0000
  C   C308      1.0  0.39480  0.68032  0.74814  1.0000
  H   H250      1.0  0.55972  0.81201  0.82359  1.0000
  C   C309      1.0  0.37339  0.50322  0.75695  1.0000
  S   S43       1.0  0.55835  0.60549  0.64916  1.0000
  H   H251      1.0  0.50580  0.79756  0.69240  1.0000
  C   C310      1.0  0.49959  0.82228  0.59391  1.0000
  H   H252      1.0  0.43733  0.55112  0.75121  1.0000
  C   C311      1.0  0.52567  0.77660  0.64064  1.0000
  H   H253      1.0  0.36067  0.73759  0.66525  1.0000
  C   C312      1.0  0.53806  0.86559  0.75375  1.0000
  H   H254      1.0  0.55706  0.67557  0.80169  1.0000
  S   S44       1.0  0.55206  0.75132  0.57337  1.0000
  S   S45       1.0  0.47527  0.84901  0.66171  1.0000
  C   C313      1.0  0.60228  0.86744  0.73636  1.0000
  C   C314      1.0  0.49549  0.82129  0.63635  1.0000
  H   H255      1.0  0.47705  0.64848  0.50796  1.0000
  H   H256      1.0  0.55067  0.93048  0.55944  1.0000
  C   C315      1.0  0.57223  0.87835  0.72782  1.0000
  H   H257      1.0  0.48489  0.72485  0.80275  1.0000
  S   S46       1.0  0.61346  0.67310  0.74030  1.0000
  H   H258      1.0  0.63944  0.67521  0.82283  1.0000
  C   C316      1.0  0.50896  0.79866  0.65961  1.0000
  Fe  Fe21      1.0  0.55757  0.69974  0.60433  1.0000
  S   S47       1.0  0.53213  0.67495  0.66659  1.0000
  C   C317      1.0  0.59805  0.84312  0.77075  1.0000
  H   H259      1.0  0.58965  0.73793  0.75926  1.0000
  H   H260      1.0  0.65804  0.57180  0.50874  1.0000
  H   H261      1.0  0.43758  0.83782  0.73795  1.0000
  S   S48       1.0  0.61754  0.69915  0.61476  1.0000
  Fe  Fe22      1.0  0.58325  0.63543  0.58766  1.0000
  H   H262      1.0  0.48958  0.83978  0.57569  1.0000
  C   C318      1.0  0.51738  0.80109  0.57503  1.0000
  H   H263      1.0  0.59450  0.74883  0.90987  1.0000
  H   H264      1.0  0.45396  0.54585  0.82341  1.0000
  H   H265      1.0  0.48317  0.72701  0.50922  1.0000
  C   C319      1.0  0.57159  0.70542  0.81610  1.0000
  Fe  Fe23      1.0  0.58902  0.66915  0.67531  1.0000
  H   H266      1.0  0.57477  0.89592  0.70052  1.0000
  C   C320      1.0  0.34520  0.70574  0.65626  1.0000
  C   C321      1.0  0.59305  0.74665  0.87695  1.0000
  C   C322      1.0  0.39186  0.49739  0.83835  1.0000
  H   H267      1.0  0.61955  0.58396  0.82824  1.0000
  S   S49       1.0  0.52507  0.63789  0.57372  1.0000
  C   C323      1.0  0.56374  0.83066  0.79688  1.0000
  C   C324      1.0  0.61137  0.77991  0.81024  1.0000
  Fe  Fe24      1.0  0.50308  0.61300  0.63696  1.0000
  H   H268      1.0  0.52083  0.80235  0.54227  1.0000
  C   C325      1.0  0.59047  0.74110  0.79199  1.0000
  C   C326      1.0  0.57309  0.70815  0.85850  1.0000
  H   H269      1.0  0.62833  0.87734  0.71561  1.0000
  C   C327      1.0  0.63421  0.79227  0.66155  1.0000
  C   C328      1.0  0.34045  0.78402  0.77806  1.0000
  H   H270      1.0  0.42202  0.72994  0.79181  1.0000
  C   C329      1.0  0.41349  0.52891  0.77160  1.0000
  C   C330      1.0  0.59530  0.97341  0.51597  1.0000
  C   C331      1.0  0.33411  0.94882  0.75831  1.0000
  S   S50       1.0  0.33174  0.87621  0.60767  1.0000
  C   C332      1.0  0.33607  0.67414  0.68456  1.0000
  H   H271      1.0  0.39109  0.92950  0.47461  1.0000
  H   H272      1.0  0.35320  0.96235  0.73145  1.0000
  C   C333      1.0  0.46395  0.59001  0.48443  1.0000
  C   C334      1.0  0.33154  0.74411  0.76890  1.0000
  C   C335      1.0  0.34673  0.63579  0.49803  1.0000
  H   H273      1.0  0.34462  0.65502  0.82075  1.0000
  C   C336      1.0  0.33346  0.66247  0.48326  1.0000
  H   H274      1.0  0.35570  0.69329  0.47306  1.0000
  C   C337      1.0  0.43025  0.99009  0.49842  1.0000
  H   H275      1.0  0.64145  0.61432  0.89702  1.0000
  C   C338      1.0  0.65844  0.71000  0.76668  1.0000
  C   C339      1.0  0.47143  0.72672  0.47893  1.0000
  C   C340      1.0  0.65182  0.81808  0.73060  1.0000
  C   C341      1.0  0.65219  0.60409  0.83473  1.0000
  H   H276      1.0  0.59088  0.63243  0.47412  1.0000
  C   C342      1.0  0.38405  0.57629  0.46910  1.0000
  C   C343      1.0  0.43252  0.69454  0.46665  1.0000
  C   C344      1.0  0.32796  0.97388  0.78618  1.0000
  H   H277      1.0  0.39895  0.49543  0.86999  1.0000
  C   C345      1.0  0.43424  0.55313  0.46695  1.0000
  Fe  Fe25      1.0  0.84447  0.29550  0.32408  1.0000
  S   S51       1.0  0.84122  0.31006  0.25879  1.0000
  S   S52       1.0  0.78643  0.24834  0.35846  1.0000
  Fe  Fe26      1.0  0.93650  0.36084  0.33065  1.0000
  S   S53       1.0  0.93941  0.37967  0.26406  1.0000
  P   P12       1.0  0.72088  0.38020  0.41254  1.0000
  Fe  Fe27      1.0  0.87815  0.37627  0.27698  1.0000
  S   S54       1.0  0.85817  0.41836  0.24673  1.0000
  Fe  Fe28      1.0  0.90231  0.31200  0.24984  1.0000
  S   S55       1.0  0.90127  0.27419  0.19388  1.0000
  S   S56       1.0  0.87743  0.36188  0.34354  1.0000
  S   S57       1.0  0.90341  0.29310  0.31540  1.0000
  C   C346      1.0  0.68969  0.28790  0.23877  1.0000
  C   C347      1.0  0.71945  0.39133  0.11199  1.0000
  C   C348      1.0  0.67420  0.35284  0.18278  1.0000
  C   C349      1.0  0.93386  0.27477  0.15323  1.0000
  C   C350      1.0  0.91947  0.23988  0.12831  1.0000
  C   C351      1.0  0.94406  0.23859  0.09599  1.0000
  C   C352      1.0  0.91618  0.99520  0.00655  1.0000
  C   C353      1.0  0.85527  0.47849  0.07150  1.0000
  C   C354      1.0  0.69479  0.40632  0.34495  1.0000
  H   H278      1.0  0.88911  0.21350  0.13415  1.0000
  H   H279      1.0  0.93243  0.21151  0.07729  1.0000
  C   C355      1.0  0.92909  0.03461  0.99023  1.0000
  H   H280      1.0  0.76923  0.22360  0.27341  1.0000
  C   C356      1.0  0.72143  0.29381  0.26577  1.0000
  H   H281      1.0  0.97558  0.17222  0.11269  1.0000
  H   H282      1.0  0.74201  0.31516  0.40559  1.0000
  H   H283      1.0  0.76562  0.46864  0.40089  1.0000
  H   H284      1.0  0.84971  0.46897  0.03998  1.0000
  H   H285      1.0  0.81470  0.45829  0.21892  1.0000
  C   C357      1.0  0.72127  0.35805  0.12894  1.0000
  H   H286      1.0  0.80451  0.44283  0.44084  1.0000
  C   C358      1.0  0.84596  0.45465  0.31518  1.0000
  C   C359      1.0  0.84059  0.44778  0.27319  1.0000
  H   H287      1.0  0.91501  0.13169  0.31778  1.0000
  C   C360      1.0  0.67610  0.33178  0.42681  1.0000
  H   H288      1.0  0.86158  0.44192  0.33262  1.0000
  C   C361      1.0  0.66364  0.17976  0.33071  1.0000
  C   C362      1.0  0.71512  0.40410  0.27543  1.0000
  C   C363      1.0  0.70132  0.20302  0.35166  1.0000
  C   C364      1.0  0.73965  0.21908  0.33117  1.0000
  C   C365      1.0  0.73998  0.21144  0.28957  1.0000
  H   H289      1.0  0.70074  0.20921  0.38368  1.0000
  C   C366      1.0  0.87593  0.19370  0.25896  1.0000
  H   H290      1.0  0.75664  0.38048  0.26718  1.0000
  C   C367      1.0  0.69327  0.41379  0.30347  1.0000
  H   H291      1.0  0.99063  0.31940  0.99331  1.0000
  H   H292      1.0  0.90434  0.14208  0.22355  1.0000
  C   C368      1.0  0.67736  0.31068  0.46179  1.0000
  C   C369      1.0  0.72622  0.13891  0.40949  1.0000
  H   H293      1.0  0.70299  0.18086  0.23690  1.0000
  C   C370      1.0  0.71000  0.15386  0.43878  1.0000
  H   H294      1.0  0.88480  0.19808  0.22712  1.0000
  H   H295      1.0  0.81532  0.18512  0.24625  1.0000
  H   H296      1.0  0.84433  0.18544  0.37276  1.0000
  C   C371      1.0  0.74156  0.38072  0.33046  1.0000
  H   H297      1.0  0.73704  0.40632  0.08463  1.0000
  C   C372      1.0  0.76902  0.34249  0.41684  1.0000
  P   P13       1.0  0.95706  0.21184  0.27592  1.0000
  C   C373      1.0  0.97229  0.17928  0.14399  1.0000
  P   P14       1.0  0.69898  0.29357  0.18433  1.0000
  C   C374      1.0  0.70237  0.18725  0.26889  1.0000
  C   C375      1.0  0.83638  0.18640  0.26972  1.0000
  H   H298      1.0  0.97770  0.28365  0.22489  1.0000
  C   C376      1.0  0.74870  0.29800  0.17329  1.0000
  C   C377      1.0  0.78539  0.33622  0.17661  1.0000
  C   C378      1.0  0.82384  0.33995  0.16733  1.0000
  C   C379      1.0  0.82610  0.30546  0.15560  1.0000
  C   C380      1.0  0.78988  0.26712  0.15336  1.0000
  C   C381      1.0  0.75125  0.26332  0.16215  1.0000
  C   C382      1.0  0.93198  0.16294  0.20643  1.0000
  C   C383      1.0  0.71355  0.28796  0.30762  1.0000
  C   C384      1.0  0.73888  0.38714  0.28887  1.0000
  H   H299      1.0  0.79463  0.17851  0.31902  1.0000
  C   C385      1.0  0.96256  0.19980  0.22382  1.0000
  C   C386      1.0  0.98201  0.38119  0.45288  1.0000
  C   C387      1.0  0.85282  0.18661  0.34100  1.0000
  H   H300      1.0  0.78449  0.36306  0.18712  1.0000
  H   H301      1.0  0.85213  0.36927  0.17097  1.0000
  H   H302      1.0  0.85609  0.30815  0.14971  1.0000
  H   H303      1.0  0.79203  0.24027  0.14560  1.0000
  H   H304      1.0  0.72365  0.23324  0.16082  1.0000
  H   H305      1.0  0.73988  0.34725  0.11385  1.0000
  H   H306      1.0  0.80632  0.31336  0.41840  1.0000
  C   C388      1.0  0.80546  0.34133  0.42400  1.0000
  H   H307      1.0  0.67551  0.42759  0.29306  1.0000
  C   C389      1.0  0.71929  0.39000  0.35885  1.0000
  H   H308      1.0  0.71478  0.41115  0.24353  1.0000
  H   H309      1.0  0.75235  0.30279  0.25495  1.0000
  H   H310      1.0  0.72931  0.18459  0.45059  1.0000
  H   H311      1.0  0.98485  0.33574  0.16365  1.0000
  H   H312      1.0  0.76160  0.36917  0.34009  1.0000
  C   C390      1.0  0.82479  0.18281  0.31071  1.0000
  H   H313      1.0  0.73831  0.29268  0.32816  1.0000
  C   C391      1.0  0.71963  0.42121  0.43978  1.0000
  C   C392      1.0  0.99120  0.29445  0.25446  1.0000
  C   C393      1.0  0.69895  0.33870  0.16474  1.0000
  C   C394      1.0  0.66859  0.13002  0.45151  1.0000
  C   C395      1.0  0.76790  0.37888  0.42323  1.0000
  C   C396      1.0  0.69472  0.40509  0.13015  1.0000
  H   H314      1.0  0.94828  0.06170  0.00801  1.0000
  H   H315      1.0  0.69285  0.43049  0.11672  1.0000
  C   C397      1.0  0.93663  0.15300  0.16648  1.0000
  C   C398      1.0  0.74435  0.46185  0.42608  1.0000
  C   C399      1.0  0.94802  0.14606  0.32356  1.0000
  C   C400      1.0  0.96287  0.12520  0.34737  1.0000
  H   H316      1.0  0.91449  0.19888  0.35417  1.0000
  C   C401      1.0  0.89251  0.19416  0.33031  1.0000
  C   C402      1.0  0.90427  0.19744  0.28914  1.0000
  H   H317      1.0  0.86849  0.44034  0.45276  1.0000
  H   H318      1.0  0.91243  0.12516  0.15275  1.0000
  C   C403      1.0  0.84119  0.37650  0.43720  1.0000
  C   C404      1.0  0.70134  0.09965  0.39353  1.0000
  H   H319      1.0  0.87722  0.45045  0.16279  1.0000
  C   C405      1.0  0.97574  0.18504  0.30722  1.0000
  C   C406      1.0  0.80511  0.48763  0.27049  1.0000
  H   H320      1.0  0.71385  0.08830  0.37048  1.0000
  C   C407      1.0  0.82021  0.46450  0.25105  1.0000
  C   C408      1.0  0.67221  0.38594  0.16553  1.0000
  H   H321      1.0  0.94949  0.36194  0.44565  1.0000
  C   C409      1.0  0.84050  0.41290  0.44327  1.0000
  C   C410      1.0  0.98365  0.27224  0.08814  1.0000
  C   C411      1.0  0.97329  0.30855  0.14513  1.0000
  C   C412      1.0  0.80402  0.41415  0.43638  1.0000
  C   C413      1.0  0.83113  0.47824  0.33462  1.0000
  H   H322      1.0  0.94134  0.09524  0.36015  1.0000
  C   C414      1.0  0.67393  0.27570  0.32292  1.0000
  H   H323      1.0  0.86512  0.42894  0.09053  1.0000
  H   H324      1.0  0.70339  0.49144  0.15606  1.0000
  H   H325      1.0  0.66418  0.27957  0.10149  1.0000
  H   H326      1.0  0.67725  0.41383  0.36609  1.0000
  H   H327      1.0  0.75786  0.15821  0.39863  1.0000
  C   C415      1.0  0.86391  0.45592  0.09988  1.0000
  C   C416      1.0  0.87086  0.46807  0.14055  1.0000
  C   C417      1.0  0.98646  0.26641  0.28529  1.0000
  H   H328      1.0  0.83557  0.48358  0.36700  1.0000
  H   H329      1.0  0.86967  0.37575  0.44193  1.0000
  H   H330      1.0  0.66778  0.27045  0.35529  1.0000
  C   C418      1.0  0.66407  0.17147  0.28929  1.0000
  C   C419      1.0  0.97701  0.23087  0.78231  1.0000
  C   C420      1.0  0.94567  0.30651  0.94592  1.0000
  S   S58       1.0  0.92743  0.08750  0.93177  1.0000
  H   H331      1.0  0.87943  0.00614  0.89940  1.0000
  H   H332      1.0  0.70552  0.32258  0.47956  1.0000
  H   H333      1.0  0.96911  0.13788  0.80014  1.0000
  H   H334      1.0  0.93478  0.14285  0.86293  1.0000
  C   C421      1.0  0.84766  0.28643  0.80230  1.0000
  C   C422      1.0  0.81588  0.24539  0.80083  1.0000
  C   C423      1.0  0.91555  0.03879  0.95172  1.0000
  C   C424      1.0  0.68859  0.44488  0.49030  1.0000
  H   H335      1.0  0.80029  0.18207  0.80605  1.0000
  H   H336      1.0  0.84069  0.31086  0.79732  1.0000
  H   H337      1.0  0.92704  0.20344  0.87418  1.0000
  C   C425      1.0  0.93578  0.29653  0.90489  1.0000
  C   C426      1.0  0.69180  0.41290  0.47230  1.0000
  H   H338      1.0  0.97457  0.09479  0.85863  1.0000
  C   C427      1.0  0.71294  0.48523  0.47588  1.0000
  C   C428      1.0  0.96351  0.29224  0.87902  1.0000
  C   C429      1.0  0.98339  0.31991  0.79215  1.0000
  H   H339      1.0  0.97245  0.37145  0.51796  1.0000
  H   H340      1.0  0.90627  0.29157  0.89388  1.0000
  H   H341      1.0  0.91281  0.32800  0.81122  1.0000
  Fe  Fe29      1.0  0.98246  0.14758  0.95340  1.0000
  H   H342      1.0  0.87186  0.19840  0.81955  1.0000
  H   H343      1.0  0.78424  0.23797  0.79476  1.0000
  C   C430      1.0  0.96557  0.16442  0.80483  1.0000
  P   P15       1.0  0.95097  0.27782  0.82628  1.0000
  C   C431      1.0  0.95714  0.23372  0.81753  1.0000
  C   C432      1.0  0.89790  0.26456  0.81639  1.0000
  C   C433      1.0  0.86575  0.22337  0.81489  1.0000
  C   C434      1.0  0.82493  0.21391  0.80717  1.0000
  C   C435      1.0  0.88850  0.29601  0.81009  1.0000
  C   C436      1.0  0.94197  0.20170  0.84650  1.0000
  C   C437      1.0  0.94612  0.16718  0.84012  1.0000
  C   C438      1.0  0.97322  0.31712  0.75062  1.0000
  C   C439      1.0  0.89021  0.00322  0.92913  1.0000
  H   H344      1.0  0.94660  0.28974  0.73891  1.0000
  H   H345      1.0  0.66656  0.43830  0.51485  1.0000
  S   S59       1.0  0.98552  0.20826  0.94143  1.0000
  H   H346      1.0  0.67187  0.38182  0.48327  1.0000
  C   C440      1.0  0.98111  0.19629  0.77602  1.0000
  C   C441      1.0  0.99380  0.04990  0.86539  1.0000
  H   H347      1.0  0.96601  0.02839  0.88209  1.0000
  H   H348      1.0  0.99034  0.25554  0.76009  1.0000
  H   H349      1.0  0.99046  0.34689  0.69157  1.0000
  H   H350      1.0  0.92398  0.30904  0.96605  1.0000
  C   C442      1.0  0.98329  0.31249  0.96132  1.0000
  Fe  Fe30      1.0  0.80595  0.75791  0.97937  1.0000
  H   H351      1.0  0.87619  0.81687  0.26245  1.0000
  C   C443      1.0  0.76992  0.52429  0.14763  1.0000
  Fe  Fe31      1.0  0.72088  0.57330  0.23854  1.0000
  S   S60       1.0  0.76302  0.62128  0.19015  1.0000
  S   S61       1.0  0.74176  0.59137  0.30344  1.0000
  S   S62       1.0  0.87092  0.80828  0.99431  1.0000
  C   C444      1.0  0.80376  0.55633  0.12674  1.0000
  C   C445      1.0  0.68406  0.66521  0.19966  1.0000
  S   S63       1.0  0.87164  0.91062  0.00741  1.0000
  H   H352      1.0  0.97075  0.71862  0.05945  1.0000
  S   S64       1.0  0.75995  0.70130  0.01744  1.0000
  H   H353      1.0  0.92575  0.99234  0.03690  1.0000
  H   H354      1.0  0.80083  0.84983  0.06839  1.0000
  C   C446      1.0  0.85116  0.82004  0.27530  1.0000
  C   C447      1.0  0.76167  0.67921  0.06530  1.0000
  C   C448      1.0  0.72416  0.64936  0.08369  1.0000
  C   C449      1.0  0.72379  0.63122  0.12171  1.0000
  C   C450      1.0  0.76105  0.64278  0.14203  1.0000
  C   C451      1.0  0.79855  0.67243  0.12346  1.0000
  C   C452      1.0  0.79899  0.69015  0.08521  1.0000
  C   C453      1.0  0.86096  0.52587  0.12459  1.0000
  C   C454      1.0  0.79976  0.79665  0.09475  1.0000
  H   H355      1.0  0.82750  0.68210  0.13895  1.0000
  H   H356      1.0  0.82812  0.71283  0.07151  1.0000
  C   C455      1.0  0.89045  0.95961  0.98416  1.0000
  C   C456      1.0  0.85360  0.51321  0.08381  1.0000
  H   H357      1.0  0.75010  0.58386  0.06186  1.0000
  H   H358      1.0  0.80043  0.87989  0.13529  1.0000
  C   C457      1.0  0.86593  0.70591  0.22058  1.0000
  C   C458      1.0  0.90267  0.73262  0.19983  1.0000
  C   C459      1.0  0.90833  0.76966  0.18379  1.0000
  C   C460      1.0  0.87709  0.77978  0.18821  1.0000
  C   C461      1.0  0.83981  0.75278  0.20855  1.0000
  C   C462      1.0  0.83479  0.71608  0.22527  1.0000
  P   P16       1.0  0.79999  0.76654  0.21479  1.0000
  C   C463      1.0  0.79891  0.79289  0.16880  1.0000
  C   C464      1.0  0.75039  0.72039  0.22374  1.0000
  C   C465      1.0  0.92410  0.61791  0.08869  1.0000
  C   C466      1.0  0.72219  0.53611  0.10754  1.0000
  H   H359      1.0  0.69086  0.52951  0.10126  1.0000
  C   C467      1.0  0.79949  0.77649  0.13077  1.0000
  H   H360      1.0  0.84631  0.53012  0.06163  1.0000
  H   H361      1.0  0.83331  0.86818  0.35372  1.0000
  Fe  Fe32      1.0  0.73934  0.53047  0.30916  1.0000
  C   C468      1.0  0.79924  0.83042  0.17030  1.0000
  C   C469      1.0  0.81119  0.79939  0.25841  1.0000
  C   C470      1.0  0.77941  0.80412  0.27605  1.0000
  H   H362      1.0  0.66260  0.65008  0.17495  1.0000
  H   H363      1.0  0.72904  0.71290  0.16118  1.0000
  H   H364      1.0  0.86111  0.67691  0.23270  1.0000
  H   H365      1.0  0.92669  0.72456  0.19630  1.0000
  H   H366      1.0  0.93699  0.79060  0.16809  1.0000
  H   H367      1.0  0.88204  0.80872  0.17592  1.0000
  H   H368      1.0  0.80657  0.69463  0.24125  1.0000
  S   S65       1.0  0.79121  0.52346  0.33769  1.0000
  H   H369      1.0  0.88989  0.86049  0.32261  1.0000
  H   H370      1.0  0.76163  0.71689  0.28809  1.0000
  H   H371      1.0  0.87403  0.51077  0.18475  1.0000
  C   C471      1.0  0.92228  0.84409  0.08927  1.0000
  H   H372      1.0  0.69508  0.64033  0.06850  1.0000
  S   S66       1.0  0.72236  0.51432  0.24409  1.0000
  H   H373      1.0  0.79923  0.84419  0.19909  1.0000
  H   H374      1.0  0.74833  0.78839  0.26349  1.0000
  H   H375      1.0  0.79941  0.74784  0.12917  1.0000
  H   H376      1.0  0.97074  0.92039  0.98083  1.0000
  P   P17       1.0  0.85610  0.56938  0.13997  1.0000
  C   C472      1.0  0.86585  0.58030  0.19364  1.0000
  C   C473      1.0  0.83770  0.58505  0.21829  1.0000
  C   C474      1.0  0.84556  0.59336  0.25974  1.0000
  C   C475      1.0  0.88159  0.59714  0.27694  1.0000
  C   C476      1.0  0.91061  0.59408  0.25235  1.0000
  C   C477      1.0  0.90315  0.58646  0.21069  1.0000
  C   C478      1.0  0.89332  0.61636  0.11467  1.0000
  C   C479      1.0  0.94940  0.69021  0.07514  1.0000
  C   C480      1.0  0.75560  0.56680  0.08541  1.0000
  C   C481      1.0  0.95228  0.91456  0.06568  1.0000
  H   H377      1.0  0.75945  0.52477  0.43197  1.0000
  C   C482      1.0  0.89168  0.65231  0.12164  1.0000
  H   H378      1.0  0.88765  0.87533  0.08036  1.0000
  H   H379      1.0  0.80946  0.58209  0.20593  1.0000
  H   H380      1.0  0.82302  0.59559  0.27888  1.0000
  H   H381      1.0  0.88654  0.60174  0.30947  1.0000
  H   H382      1.0  0.93851  0.59692  0.26576  1.0000
  H   H383      1.0  0.92602  0.58436  0.19198  1.0000
  H   H384      1.0  0.82148  0.60124  0.07764  1.0000
  C   C483      1.0  0.91795  0.87788  0.07926  1.0000
  H   H385      1.0  0.89520  0.81524  0.09810  1.0000
  H   H386      1.0  0.91706  0.71632  0.10631  1.0000
  H   H387      1.0  0.86850  0.65160  0.14223  1.0000
  C   C484      1.0  0.78742  0.82889  0.31027  1.0000
  C   C485      1.0  0.72202  0.70104  0.19199  1.0000
  C   C486      1.0  0.79625  0.57694  0.09492  1.0000
  C   C487      1.0  0.96119  0.84717  0.08622  1.0000
  H   H388      1.0  0.92680  0.59092  0.08369  1.0000
  C   C488      1.0  0.82723  0.84922  0.32702  1.0000
  C   C489      1.0  0.79994  0.85085  0.13417  1.0000
  H   H389      1.0  0.96960  0.81793  0.98603  1.0000
  H   H390      1.0  0.79956  0.78326  0.06549  1.0000
  H   H391      1.0  0.76263  0.83203  0.32399  1.0000
  C   C490      1.0  0.91929  0.68898  0.10158  1.0000
  C   C491      1.0  0.80011  0.83393  0.09641  1.0000
  H   H392      1.0  0.69470  0.60837  0.13534  1.0000
  C   C492      1.0  0.85908  0.84486  0.30950  1.0000
  C   C493      1.0  0.74011  0.70312  0.26315  1.0000
  H   H393      1.0  0.96450  0.82072  0.09289  1.0000
  H   H394      1.0  0.69456  0.65385  0.30102  1.0000
  C   C494      1.0  0.70216  0.66731  0.27065  1.0000
  Fe  Fe33      1.0  0.67405  0.55683  0.32170  1.0000
  C   C495      1.0  0.72932  0.51471  0.13845  1.0000
  H   H395      1.0  0.94759  0.93954  0.05604  1.0000
  C   C496      1.0  0.95200  0.65478  0.06894  1.0000
  C   C497      1.0  0.86930  0.50279  0.15292  1.0000
  H   H396      1.0  0.77501  0.50764  0.17191  1.0000
  H   H397      1.0  0.66911  0.56222  0.43571  1.0000
  S   S67       1.0  0.67328  0.49699  0.33284  1.0000
  C   C498      1.0  0.99171  0.91827  0.06306  1.0000
  H   H398      1.0  0.78944  0.50003  0.25296  1.0000
  H   H399      1.0  0.97561  0.65590  0.04871  1.0000
  C   C499      1.0  0.67413  0.64839  0.23895  1.0000
  Fe  Fe34      1.0  0.85035  0.85203  0.97133  1.0000
  C   C500      1.0  0.81014  0.49441  0.31243  1.0000
  C   C501      1.0  0.74094  0.49369  0.44385  1.0000
  H   H400      1.0  0.76787  0.61999  0.69155  1.0000
  S   S68       1.0  0.94603  0.81380  0.90023  1.0000
  Fe  Fe35      1.0  0.80450  0.79819  0.89741  1.0000
  S   S69       1.0  0.77586  0.80210  0.83678  1.0000
  S   S70       1.0  0.86926  0.85162  0.90685  1.0000
  S   S71       1.0  0.82273  0.75129  0.91451  1.0000
  H   H401      1.0  0.89386  0.75041  0.84046  1.0000
  H   H402      1.0  0.85818  0.93670  0.92757  1.0000
  C   C502      1.0  0.72562  0.77293  0.76946  1.0000
  C   C503      1.0  0.73076  0.76530  0.81049  1.0000
  H   H403      1.0  0.72521  0.56857  0.80585  1.0000
  H   H404      1.0  0.74965  0.80027  0.75441  1.0000
  C   C504      1.0  0.80621  0.70347  0.78238  1.0000
  H   H405      1.0  0.74875  0.51794  0.80680  1.0000
  H   H406      1.0  0.83818  0.68134  0.82121  1.0000
  H   H407      1.0  0.71797  0.85090  0.74341  1.0000
  C   C505      1.0  0.86991  0.74709  0.81945  1.0000
  H   H408      1.0  0.89293  0.81218  0.81571  1.0000
  H   H409      1.0  0.83710  0.65420  0.74107  1.0000
  H   H410      1.0  0.78114  0.73641  0.74961  1.0000
  C   C506      1.0  0.68979  0.74538  0.74761  1.0000
  H   H411      1.0  0.76848  0.67853  0.85779  1.0000
  H   H412      1.0  0.71609  0.66153  0.91136  1.0000
  C   C507      1.0  0.83834  0.70797  0.80823  1.0000
  H   H413      1.0  0.72952  0.96578  0.83396  1.0000
  C   C508      1.0  0.80623  0.73878  0.76813  1.0000
  C   C509      1.0  0.73624  0.65752  0.85083  1.0000
  H   H414      1.0  0.70270  0.72375  0.86114  1.0000
  H   H415      1.0  0.76288  0.87390  0.86069  1.0000
  C   C510      1.0  0.86948  0.78201  0.80540  1.0000
  C   C511      1.0  0.69945  0.72984  0.82952  1.0000
  H   H416      1.0  0.68658  0.75115  0.71591  1.0000
  H   H417      1.0  0.86023  0.60298  0.74241  1.0000
  C   C512      1.0  0.83782  0.77785  0.77956  1.0000
  H   H418      1.0  0.70166  0.82253  0.82335  1.0000
  Fe  Fe36      1.0  0.88616  0.80524  0.92852  1.0000
  C   C513      1.0  0.68188  0.61355  0.80407  1.0000
  H   H419      1.0  0.77702  0.94562  0.86645  1.0000
  H   H420      1.0  0.68590  0.64343  0.61916  1.0000
  C   C514      1.0  0.75001  0.92314  0.84986  1.0000
  H   H421      1.0  0.73876  0.84148  0.67510  1.0000
  C   C515      1.0  0.67622  0.80817  0.65240  1.0000
  C   C516      1.0  0.81775  0.62466  0.75579  1.0000
  C   C517      1.0  0.87819  0.96383  0.94500  1.0000
  H   H422      1.0  0.73370  0.61575  0.62604  1.0000
  H   H423      1.0  0.81621  0.53481  0.77522  1.0000
  H   H424      1.0  0.83653  0.80485  0.77003  1.0000
  C   C518      1.0  0.72836  0.63032  0.65188  1.0000
  C   C519      1.0  0.74769  0.63284  0.68922  1.0000
  C   C520      1.0  0.74004  0.65099  0.72298  1.0000
  C   C521      1.0  0.71360  0.66722  0.71836  1.0000
  P   P18       1.0  0.76276  0.65284  0.77227  1.0000
  C   C522      1.0  0.72419  0.64058  0.81180  1.0000
  C   C523      1.0  0.77970  0.61543  0.77381  1.0000
  C   C524      1.0  0.75485  0.57668  0.79209  1.0000
  C   C525      1.0  0.76808  0.54778  0.79264  1.0000
  C   C526      1.0  0.80607  0.55728  0.77484  1.0000
  C   C527      1.0  0.83087  0.59570  0.75638  1.0000
  C   C528      1.0  0.74204  0.88278  0.84676  1.0000
  C   C529      1.0  0.70150  0.64602  0.64788  1.0000
  C   C530      1.0  0.69433  0.66467  0.68110  1.0000
  H   H425      1.0  0.70726  0.68109  0.74398  1.0000
  S   S72       1.0  0.78410  0.80224  0.96115  1.0000
  C   C531      1.0  0.70650  0.64785  0.88147  1.0000
  H   H426      1.0  0.67167  0.60002  0.77429  1.0000
  C   C532      1.0  0.72322  0.93443  0.83153  1.0000
  C   C533      1.0  0.66448  0.62125  0.87340  1.0000
  C   C534      1.0  0.70724  0.85367  0.82553  1.0000
  H   H427      1.0  0.97402  0.91250  0.90695  1.0000
  C   C535      1.0  0.69412  0.83444  0.72104  1.0000
  C   C536      1.0  0.70618  0.82933  0.68211  1.0000
  H   H428      1.0  0.67325  0.67658  0.67817  1.0000
  C   C537      1.0  0.68839  0.90537  0.81011  1.0000
  H   H429      1.0  0.68539  0.80397  0.62227  1.0000
  H   H430      1.0  0.70974  0.50985  0.48912  1.0000
  C   C538      1.0  0.68014  0.86472  0.80705  1.0000
  H   H431      1.0  0.98976  0.83759  0.70860  1.0000
  C   C539      1.0  0.66350  0.70247  0.80775  1.0000
  H   H432      1.0  0.66809  0.91471  0.79605  1.0000
  C   C540      1.0  0.99454  0.83773  0.92562  1.0000
