data_image0
_chemical_formula_structural       FeSFe2S2FeSFeS3HS2CSFeSCSHCHCFeSC3H2C2H2C4H4C6H3C2HCHCHFeH2CHCH2FeCHSCH2C9H4C6H5C3HC2HCH2PC3HCFeSCH2CH3SCH2CH4CPCHCH4CHCH4C3HCH3CHCHC5HPH2CH3CH2C3PC14HS3H9CH2C6PC18H4CSC3H5SC2HC2H5C2HCHCHFeCHC2HC3FeSHFeS2FeSFeHS2FeSCFeSFeHFeS4C7H4C6H4FeHCH2C2HCHCHC2HCHC2PC20HCH3CH12SH2CHC2H2CH2CHCFeC2PHC7HCHCSCH2C2H7C2H2C3HC2PC11HC6HCHC2H4CH2CH3CH3C6PC7HC3HC3H9CH5C2S3CH2CHCHC3S2C2HFeH4SH2CPCHCHCH2CHC3H2CFeC4HSC4FeHC2HC3HCHC4H3CPCHCHCHCHCSHC2HC2HC2HSHC2H3CHCHC4H3CHC2HCH3C7H2C2HC2H3C2H2C2HSCH2C2HCHCHSH2CH3CH4CHC2H3CHC3HC2FeS2Fe2S2H4C3SHC3SCSC6H3CH4P2HC5HCH3CHC2HC2H2C3HFeHCHC2HC2HCH2C4HC2SH3SC2HSCHC4HC2HC2H3CHPH4CH2C2HC2HC9SC2H3CHC2SCH5C3HCSC3HCHSH2C3HPCSC3H2CHCHFeH3CHSHC2H2C6HC2HCHCHCHCHC7H2CH2C2HC4SC2H3PC2H2CH4FeHCH2CH2C3HC4HC2HCHCSFeS2FeSCHSCH5CH3C6H2C2H2SC3H2C2FeCH2C2H5CH3CH4CHCHC4H4CH2CHCH4C4HC3SH2C4HPCHCHC2FeC4S2C3HC2HC3PC15HC2H4CH3C2HCHSHC2HFeSCSFeS2HCHC2HC2FeS2FeS2Fe2S3C7H4C6H3CH5C8H4CHCFeHSHCHC2HPHCSH4CH2C2H2C6PC14H17CSC2SHC3H2CHSC6PC5FeC8H2CH15C3SCFeCH3CH2C3HCSCHSC2H2SC3HCHC4HC3FeH3FeH2CHCH2Fe2C3PC15HC3H9CSH3CH2C2SHSC2HC4HCHC2HC2H2C2SHFeC3HC6HCHPHC2H2CHC2HCH3C2H4C4H4C6H2SPHCH4CHCH2C3HCHCH2C2H2CH2C2HC2HCSH2C2HCHCHCFeC2HCHCSH2C2PH2CHCH3CHC2H2CSCH6C7H2SC2H2C2PCH2CHCHC2HC2HPC3H4C3H3CH3C2HC3H3FeSCHPHC4H2C4HCHCHC2H3C2HC2HC6H3FeH2C2HC3HCHCH2C4FeH2C2H4C4HFeH3C2HC2HSCSCHCHCSC3H2CSH3C2FeH2C2FeH2C2HC2SCHCH2CHCHC3PHC6PC9H9C2HSH5CHC7HC2PH2CH3C2H2CHC3HSC3SC5H5CSC2PC2SHC3HCHCSHC2H2C3HC11PH2C5HC2H2CH3CHCHCHCH2C2H2CH4FeHSC2SCHCHCH2CH2C4HCHCHC2HC4HCHC4FeSC4HCS2FeSFePFeSCFeSFeSFeS3FeSH2CFeHFeS2HC6H4C7H3C2H4SC3H2CHC7H3C6H4SCH3SCPC6H2C2PCH4C2H2SHCHPCFeC7H3SHCH2C3HC2SHC2H3CH2CHC2PHSH2CH2C2H2C2H3C4H5FeHCHCHC2HCHC5HC2SH3FeH9C2HCHC2HCHCHC5HC3HC4HC2HSC2HCHSHSHSC2HCHC2H3CHCSH2CSH2CHCHC3H4C2FeCHCH2C4HC3HCHC2H3SHFeS2FeHFeSFeCS2C2HS2FeS2C6HCH2C7SPH3SH3CH2C3H2C2HCHC4H2CH3CH2CH6C4FeC2HC2HC2PC2HC2PC2HC2H3CH4C4FeCHC4HC2HC3H3CHSHCH3C7H4C2HC4HCHCH5CH3C2H2C2H2CHC4HC4H2CH2C3H2C3FeS2FeSFeSFeS3HFeS2FeS2FeSFeS3C3H2C3H2C2H2C6H4CHCHC4H2C3HC7H4SC2HCHC2H2C2HC2H3C2H5CHC3PC10HC8HCHPH7SHCH6CHCH7C6HSC3H3CH4CPCH2C2H4CHC8PC18H18C3H2CHC2HC3HCHC2H4C3H3C4HFeS2FeS2FeSFeS3FeS2CFeH2FeS2CHCHSCH2CSCFeS2FeS2FeCFeS3C6H4C2HC4H2C6H4C4HC2HCHC2HC7H4C6H4C6H3C3HC4PC3H2C5HC5FeHSH3CH6C2H2C2FeH2C2HC2HC2HCPC10H12CHCHC4SH3C2HPH2CH5CHSCSCHC2HCHCHCH2CH2SH3CH2C3PC2HC6HCH5CHC4HCH2PCHC4SCH2SCH5SHC7PC16H18C2HFeC3FeC2H2CH2C3SHC2HCHC2H5C4HCPC2H2C2SH2CHSH3C2HCH2FeCHCH5S2C2FeH2CH2CFeC2HC3HCHC2H3C3HC6H2C2HCSH2C2SHCSC2HCPC2HPC8HC7H2C2HCFeHFeHCHSC3H4SFeHC3H2CHCHCHCHCSC2H2C3HC2HC3H4CHS2CH3SCHC6H2CHC2HCHFeHSC2HC3HPC3HC2H3CH3C3HCHC3HFeC3H3CH2FeC3PCHCHC4HC2HSH6CH2C3HC8H3C2SHFeSC3FeC5FeC4PSCH3CHC2HC3FeHCHSFeSCH2CSC5HCHC4H2CH3CFeC2H3C4SH2C8PC5HC12H6FeHSH3CH8C2FeHPHC5HSHC3H2C3H2CPC2S2HSCHFeHC2H3SCH6C4FeCHSC2HC2H2CPC16HCHCH14C2HSCH2C2HC2HC2HCHCSHCSHCSH4CHCH2SCHFeSC4FeC2HCHCH2C7HCHC4H2C2PH2CH2C2H3C4H2CHC2HCH6PHC2HC3HC2HC2H5C2SH2CH5CH2C2H2CH4CH3C2HSH4C2H3CH5CFeH4SCFeSCH2C2HCSCS3CH2CH3C2H2SC7H5CSCHC2HCHC6HCHC2H2C2HC3SH3CH2CH2SHCHCHCH2CSC6PC12Fe2H11FeH4C2HC2H3CHC2HC6HCH4C3H3C2HCHCH3CHCHC2HFeSCFeS2H2FeSCSC2HCHC7H5CHC2HCHCPH2C2HC4HC2H2SCPHFeS2FeSFeSFeS3FeS2FeS2FeSFeS3HCHC2H2SCPH4C2H3C6H4C6H2C6H5SHCHCH2CH2C4PH3C7PC8H2SC7H13SH3C2HC8HCHSC2H3CHCSHC5Fe3HC3HC2SCFeC2H3CH2CHCHCHC3H2C7PCH3C2H3CFeCHCH5CHCHCHC3HCFeHC5H6SH3CHC2H3CH3C3HC2H2CHC6HCFeCHC2HC4PC18H5CH7CSCHCHCPC3SHSHC3HC2HSH4C2H2CSCH2CHCHC2SHCH2C2SH2C6H4C3HCH2C2HC2
_chemical_formula_sum              "Fe144 S288 H1728 C2160 P72"
_cell_length_a       63.0882
_cell_length_b       69.6634
_cell_length_c       46.8146
_cell_angle_alpha    79.3562
_cell_angle_beta     79.5753
_cell_angle_gamma    107.685

_space_group_name_H-M_alt    "P 1"
_space_group_IT_number       1

loop_
  _space_group_symop_operation_xyz
  'x, y, z'

loop_
  _atom_site_type_symbol
  _atom_site_label
  _atom_site_symmetry_multiplicity
  _atom_site_fract_x
  _atom_site_fract_y
  _atom_site_fract_z
  _atom_site_occupancy
  Fe  Fe1       1.0  0.37126  0.03768  0.25821  1.0000
  S   S1        1.0  0.40681  0.04930  0.22798  1.0000
  Fe  Fe2       1.0  0.35378  0.15081  0.00937  1.0000
  Fe  Fe3       1.0  0.37721  0.07892  0.27390  1.0000
  S   S2        1.0  0.41312  0.09429  0.24480  1.0000
  S   S3        1.0  0.35888  0.09267  0.30563  1.0000
  Fe  Fe4       1.0  0.39946  0.07819  0.21130  1.0000
  S   S4        1.0  0.41316  0.09471  0.16236  1.0000
  Fe  Fe5       1.0  0.41787  0.06439  0.26355  1.0000
  S   S5        1.0  0.44996  0.06233  0.27621  1.0000
  S   S6        1.0  0.36287  0.06557  0.23865  1.0000
  S   S7        1.0  0.38300  0.05009  0.29564  1.0000
  H   H1        1.0  0.36273  0.14102  0.34310  1.0000
  S   S8        1.0  0.35244  0.17962  0.16970  1.0000
  S   S9        1.0  0.32971  0.16897  0.25699  1.0000
  C   C1        1.0  0.44430  0.05855  0.15223  1.0000
  S   S10       1.0  0.32998  0.21665  0.11792  1.0000
  Fe  Fe6       1.0  0.39703  0.13951  0.99945  1.0000
  S   S11       1.0  0.37478  0.14264  0.04020  1.0000
  C   C2        1.0  0.44118  0.19055  0.14198  1.0000
  S   S12       1.0  0.38989  0.20419  0.20407  1.0000
  H   H2        1.0  0.28233  0.04370  0.03319  1.0000
  C   C3        1.0  0.42030  0.04795  0.07538  1.0000
  H   H3        1.0  0.47460  0.00353  0.28999  1.0000
  C   C4        1.0  0.45780  0.15349  0.00160  1.0000
  Fe  Fe7       1.0  0.35353  0.10954  0.04382  1.0000
  S   S13       1.0  0.33849  0.08537  0.08789  1.0000
  C   C5        1.0  0.46775  0.99572  0.36538  1.0000
  C   C6        1.0  0.41050  0.18174  0.27633  1.0000
  C   C7        1.0  0.46694  0.20323  0.17229  1.0000
  H   H4        1.0  0.32475  0.01803  0.18202  1.0000
  H   H5        1.0  0.41039  0.00561  0.32025  1.0000
  C   C8        1.0  0.39007  0.18517  0.28659  1.0000
  C   C9        1.0  0.38832  0.03584  0.13569  1.0000
  H   H6        1.0  0.43677  0.02598  0.06531  1.0000
  H   H7        1.0  0.46161  0.03452  0.10957  1.0000
  C   C10       1.0  0.39493  0.20489  0.06952  1.0000
  C   C11       1.0  0.44858  0.08224  0.10490  1.0000
  C   C12       1.0  0.47027  0.00371  0.21235  1.0000
  C   C13       1.0  0.41450  0.06910  0.03201  1.0000
  H   H8        1.0  0.46864  0.23030  0.08495  1.0000
  H   H9        1.0  0.43830  0.19097  0.01463  1.0000
  H   H10       1.0  0.35634  0.02460  0.20752  1.0000
  H   H11       1.0  0.39838  0.13473  0.32542  1.0000
  C   C14       1.0  0.33292  0.20511  0.08773  1.0000
  C   C15       1.0  0.33857  0.18700  0.09022  1.0000
  C   C16       1.0  0.34100  0.17831  0.06546  1.0000
  C   C17       1.0  0.33768  0.18770  0.03830  1.0000
  C   C18       1.0  0.33170  0.20558  0.03607  1.0000
  C   C19       1.0  0.32927  0.21422  0.06070  1.0000
  H   H12       1.0  0.34110  0.17968  0.11114  1.0000
  H   H13       1.0  0.34531  0.16434  0.06745  1.0000
  H   H14       1.0  0.38292  0.20861  0.08517  1.0000
  C   C20       1.0  0.47435  0.15241  0.04509  1.0000
  C   C21       1.0  0.41247  0.18038  0.05598  1.0000
  H   H15       1.0  0.26815  0.14770  0.26098  1.0000
  C   C22       1.0  0.40772  0.99912  0.14294  1.0000
  H   H16       1.0  0.25044  0.04993  0.01331  1.0000
  C   C23       1.0  0.37025  0.03171  0.12137  1.0000
  H   H17       1.0  0.47187  0.00394  0.12883  1.0000
  Fe  Fe8       1.0  0.35104  0.21090  0.15026  1.0000
  H   H18       1.0  0.47691  0.03435  0.18458  1.0000
  H   H19       1.0  0.39286  0.21425  0.99236  1.0000
  C   C24       1.0  0.45496  0.15009  0.03286  1.0000
  H   H20       1.0  0.43808  0.14619  0.04744  1.0000
  C   C25       1.0  0.36019  0.02655  0.18348  1.0000
  H   H21       1.0  0.30904  0.07974  0.14786  1.0000
  H   H22       1.0  0.29737  0.16194  0.21227  1.0000
  Fe  Fe9       1.0  0.39033  0.19674  0.15949  1.0000
  C   C26       1.0  0.42642  0.19526  0.02965  1.0000
  H   H23       1.0  0.31123  0.13866  0.18683  1.0000
  S   S14       1.0  0.33031  0.11794  0.01680  1.0000
  C   C27       1.0  0.44966  0.09953  0.32222  1.0000
  H   H24       1.0  0.26578  0.08577  0.25888  1.0000
  H   H25       1.0  0.45417  0.17701  0.10811  1.0000
  C   C28       1.0  0.37290  0.17053  0.31070  1.0000
  C   C29       1.0  0.24739  0.12635  0.99670  1.0000
  C   C30       1.0  0.43049  0.03802  0.05638  1.0000
  C   C31       1.0  0.39286  0.09070  0.14105  1.0000
  C   C32       1.0  0.39910  0.10175  0.11085  1.0000
  C   C33       1.0  0.38252  0.09982  0.09420  1.0000
  C   C34       1.0  0.35974  0.08674  0.10773  1.0000
  C   C35       1.0  0.35376  0.07513  0.13756  1.0000
  C   C36       1.0  0.37025  0.07728  0.15425  1.0000
  H   H26       1.0  0.41663  0.11216  0.10055  1.0000
  H   H27       1.0  0.38740  0.10857  0.07101  1.0000
  H   H28       1.0  0.33638  0.06460  0.14798  1.0000
  H   H29       1.0  0.36537  0.06874  0.17745  1.0000
  C   C37       1.0  0.34991  0.11282  0.28997  1.0000
  C   C38       1.0  0.33296  0.11733  0.30835  1.0000
  C   C39       1.0  0.32636  0.13415  0.29754  1.0000
  C   C40       1.0  0.33693  0.14681  0.26840  1.0000
  C   C41       1.0  0.35347  0.14201  0.24952  1.0000
  C   C42       1.0  0.35983  0.12484  0.26027  1.0000
  H   H30       1.0  0.32519  0.10799  0.33124  1.0000
  H   H31       1.0  0.31352  0.13774  0.31210  1.0000
  H   H32       1.0  0.36158  0.15165  0.22686  1.0000
  H   H33       1.0  0.37283  0.12127  0.24594  1.0000
  H   H34       1.0  0.25215  0.10955  0.28406  1.0000
  C   C43       1.0  0.39568  0.99230  0.32102  1.0000
  C   C44       1.0  0.42894  0.09812  0.31465  1.0000
  C   C45       1.0  0.17578  0.09334  0.09052  1.0000
  H   H35       1.0  0.40962  0.11463  0.29414  1.0000
  C   C46       1.0  0.47522  0.09599  0.22810  1.0000
  C   C47       1.0  0.43356  0.14269  0.18280  1.0000
  H   H36       1.0  0.40426  0.07128  0.07721  1.0000
  C   C48       1.0  0.38301  0.03303  0.16688  1.0000
  H   H37       1.0  0.44420  0.08602  0.08388  1.0000
  H   H38       1.0  0.47710  0.00067  0.38154  1.0000
  P   P1        1.0  0.41766  0.04128  0.11541  1.0000
  C   C49       1.0  0.20939  0.08317  0.08154  1.0000
  C   C50       1.0  0.45129  0.02725  0.22589  1.0000
  C   C51       1.0  0.41220  0.06344  0.06293  1.0000
  H   H39       1.0  0.35669  0.17280  0.31784  1.0000
  C   C52       1.0  0.18570  0.07788  0.09289  1.0000
  Fe  Fe10      1.0  0.35173  0.18982  0.21239  1.0000
  S   S15       1.0  0.41433  0.18446  0.13427  1.0000
  C   C53       1.0  0.37602  0.99058  0.24109  1.0000
  H   H40       1.0  0.38970  0.99736  0.14753  1.0000
  H   H41       1.0  0.31009  0.03047  0.29258  1.0000
  C   C54       1.0  0.42492  0.01830  0.12693  1.0000
  H   H42       1.0  0.46112  0.10164  0.23238  1.0000
  H   H43       1.0  0.22960  0.11617  0.00530  1.0000
  H   H44       1.0  0.43226  0.13905  0.16149  1.0000
  S   S16       1.0  0.37723  0.10563  0.00524  1.0000
  C   C55       1.0  0.46701  0.02281  0.20546  1.0000
  H   H45       1.0  0.42661  0.01664  0.26828  1.0000
  H   H46       1.0  0.30332  0.02326  0.24465  1.0000
  C   C56       1.0  0.39636  0.18504  0.07545  1.0000
  H   H47       1.0  0.15742  0.08921  0.09931  1.0000
  H   H48       1.0  0.44936  0.04232  0.22120  1.0000
  H   H49       1.0  0.40627  0.16017  0.23567  1.0000
  H   H50       1.0  0.31042  0.09263  0.26287  1.0000
  C   C57       1.0  0.41750  0.14991  0.19767  1.0000
  P   P2        1.0  0.43910  0.15833  0.27332  1.0000
  C   C58       1.0  0.43715  0.15270  0.23753  1.0000
  H   H51       1.0  0.29939  0.05029  0.20576  1.0000
  C   C59       1.0  0.41921  0.15486  0.22485  1.0000
  H   H52       1.0  0.38716  0.19881  0.27520  1.0000
  H   H53       1.0  0.41585  0.08299  0.31837  1.0000
  H   H54       1.0  0.46578  0.07150  0.18006  1.0000
  H   H55       1.0  0.17503  0.06177  0.10354  1.0000
  C   C60       1.0  0.39658  0.14899  0.31445  1.0000
  H   H56       1.0  0.40705  0.23493  0.03898  1.0000
  C   C61       1.0  0.18956  0.11414  0.07692  1.0000
  H   H57       1.0  0.22469  0.05867  0.18675  1.0000
  H   H58       1.0  0.31370  0.06524  0.30152  1.0000
  H   H59       1.0  0.39647  0.03544  0.17846  1.0000
  H   H60       1.0  0.31665  0.11928  0.14117  1.0000
  C   C62       1.0  0.45310  0.14513  0.22267  1.0000
  C   C63       1.0  0.43796  0.06233  0.12499  1.0000
  C   C64       1.0  0.34741  0.02545  0.13799  1.0000
  H   H61       1.0  0.42332  0.19291  0.25693  1.0000
  C   C65       1.0  0.34238  0.02283  0.16907  1.0000
  H   H62       1.0  0.41399  0.16514  0.06129  1.0000
  H   H63       1.0  0.40392  0.15216  0.18782  1.0000
  H   H64       1.0  0.25049  0.07765  0.21393  1.0000
  C   C66       1.0  0.47430  0.07736  0.24665  1.0000
  H   H65       1.0  0.38537  0.17346  0.09567  1.0000
  C   C67       1.0  0.41374  0.16341  0.28977  1.0000
  H   H66       1.0  0.40844  0.08126  0.02262  1.0000
  C   C68       1.0  0.37628  0.15260  0.32483  1.0000
  C   C69       1.0  0.46363  0.18121  0.26940  1.0000
  C   C70       1.0  0.42495  0.21525  0.02344  1.0000
  C   C71       1.0  0.45136  0.14030  0.19528  1.0000
  C   C72       1.0  0.43266  0.04367  0.02540  1.0000
  H   H67       1.0  0.21676  0.07100  0.08397  1.0000
  P   P3        1.0  0.44220  0.23465  0.98933  1.0000
  H   H68       1.0  0.43286  0.20436  0.17798  1.0000
  H   H69       1.0  0.34750  0.10109  0.21201  1.0000
  C   C73       1.0  0.44250  0.13576  0.29526  1.0000
  H   H70       1.0  0.24091  0.04989  0.14047  1.0000
  H   H71       1.0  0.28331  0.06067  0.12130  1.0000
  H   H72       1.0  0.45099  0.18497  0.31341  1.0000
  C   C74       1.0  0.42473  0.05923  0.01322  1.0000
  H   H73       1.0  0.37352  0.03297  0.09752  1.0000
  H   H74       1.0  0.43649  0.04343  0.16816  1.0000
  C   C75       1.0  0.45790  0.18483  0.12551  1.0000
  C   C76       1.0  0.26283  0.12762  0.01506  1.0000
  C   C77       1.0  0.43848  0.01257  0.25294  1.0000
  P   P4        1.0  0.25387  0.11126  0.05290  1.0000
  C   C78       1.0  0.26160  0.08870  0.04964  1.0000
  C   C79       1.0  0.26629  0.12496  0.07850  1.0000
  C   C80       1.0  0.26543  0.11379  0.10716  1.0000
  C   C81       1.0  0.27396  0.12430  0.12771  1.0000
  C   C82       1.0  0.28300  0.14606  0.12001  1.0000
  C   C83       1.0  0.28313  0.15729  0.09196  1.0000
  C   C84       1.0  0.27483  0.14685  0.07127  1.0000
  C   C85       1.0  0.27964  0.08508  0.06079  1.0000
  C   C86       1.0  0.28679  0.06866  0.05524  1.0000
  C   C87       1.0  0.27615  0.05588  0.03842  1.0000
  C   C88       1.0  0.25815  0.05933  0.02736  1.0000
  C   C89       1.0  0.25089  0.07565  0.03293  1.0000
  C   C90       1.0  0.22326  0.10399  0.06734  1.0000
  C   C91       1.0  0.21324  0.11948  0.06549  1.0000
  H   H75       1.0  0.47333  0.11319  0.09626  1.0000
  S   S17       1.0  0.34437  0.00564  0.26902  1.0000
  S   S18       1.0  0.34691  0.21987  0.19405  1.0000
  S   S19       1.0  0.43580  0.15439  0.98319  1.0000
  H   H76       1.0  0.29845  0.14054  0.01598  1.0000
  H   H77       1.0  0.25812  0.09696  0.11359  1.0000
  H   H78       1.0  0.27351  0.11563  0.14964  1.0000
  H   H79       1.0  0.28986  0.15429  0.13572  1.0000
  H   H80       1.0  0.28990  0.17417  0.08611  1.0000
  H   H81       1.0  0.27507  0.15602  0.04980  1.0000
  H   H82       1.0  0.28906  0.09541  0.07244  1.0000
  H   H83       1.0  0.30129  0.06640  0.06290  1.0000
  H   H84       1.0  0.20087  0.01413  0.47213  1.0000
  C   C92       1.0  0.44579  0.20010  0.16505  1.0000
  H   H85       1.0  0.23752  0.07856  0.02311  1.0000
  H   H86       1.0  0.22379  0.13567  0.05517  1.0000
  C   C93       1.0  0.35338  0.13139  0.13103  1.0000
  C   C94       1.0  0.37291  0.13212  0.14150  1.0000
  C   C95       1.0  0.37052  0.12109  0.17069  1.0000
  C   C96       1.0  0.34874  0.10942  0.18952  1.0000
  C   C97       1.0  0.32906  0.10823  0.17900  1.0000
  C   C98       1.0  0.33152  0.11964  0.14975  1.0000
  P   P5        1.0  0.30087  0.09322  0.20348  1.0000
  C   C99       1.0  0.30337  0.07319  0.23198  1.0000
  C   C100      1.0  0.28944  0.11034  0.22079  1.0000
  C   C101      1.0  0.29796  0.13190  0.20763  1.0000
  C   C102      1.0  0.28999  0.14523  0.22191  1.0000
  C   C103      1.0  0.27353  0.13718  0.24945  1.0000
  C   C104      1.0  0.26466  0.11572  0.26248  1.0000
  C   C105      1.0  0.27249  0.10231  0.24817  1.0000
  C   C106      1.0  0.30784  0.07731  0.25900  1.0000
  C   C107      1.0  0.30976  0.06180  0.28101  1.0000
  C   C108      1.0  0.30771  0.04223  0.27601  1.0000
  C   C109      1.0  0.30390  0.03818  0.24887  1.0000
  C   C110      1.0  0.30178  0.05359  0.22688  1.0000
  C   C111      1.0  0.28180  0.08038  0.18279  1.0000
  C   C112      1.0  0.29071  0.07539  0.15658  1.0000
  C   C113      1.0  0.27604  0.06448  0.14140  1.0000
  C   C114      1.0  0.25224  0.05843  0.15224  1.0000
  C   C115      1.0  0.24315  0.06341  0.17825  1.0000
  C   C116      1.0  0.25785  0.07426  0.19358  1.0000
  H   H87       1.0  0.35519  0.13954  0.10819  1.0000
  H   H88       1.0  0.38995  0.14082  0.12689  1.0000
  H   H89       1.0  0.38561  0.12082  0.17836  1.0000
  H   H90       1.0  0.45889  0.20223  0.06014  1.0000
  C   C117      1.0  0.42543  0.11612  0.30104  1.0000
  S   S20       1.0  0.34043  0.17749  0.00673  1.0000
  C   C118      1.0  0.47673  0.21166  0.05654  1.0000
  C   C119      1.0  0.46534  0.09785  0.11176  1.0000
  C   C120      1.0  0.28609  0.13983  0.00253  1.0000
  H   H91       1.0  0.45261  0.08543  0.33166  1.0000
  H   H92       1.0  0.32897  0.21281  0.01519  1.0000
  H   H93       1.0  0.38820  0.00624  0.23499  1.0000
  H   H94       1.0  0.23418  0.00327  0.45610  1.0000
  H   H95       1.0  0.18192  0.12616  0.07528  1.0000
  S   S21       1.0  0.38917  0.22719  0.13617  1.0000
  C   C121      1.0  0.40896  0.21987  0.04350  1.0000
  C   C122      1.0  0.46619  0.99716  0.31370  1.0000
  H   H96       1.0  0.42652  0.06372  0.98923  1.0000
  C   C123      1.0  0.46678  0.11901  0.31667  1.0000
  C   C124      1.0  0.44809  0.01984  0.12170  1.0000
  H   H97       1.0  0.47009  0.20957  0.19111  1.0000
  H   H98       1.0  0.47707  0.15190  0.29819  1.0000
  H   H99       1.0  0.37131  0.00561  0.33943  1.0000
  H   H100      1.0  0.46679  0.14282  0.23227  1.0000
  H   H101      1.0  0.44059  0.03603  0.01079  1.0000
  C   C125      1.0  0.47160  0.09382  0.13874  1.0000
  C   C126      1.0  0.46478  0.19103  0.29300  1.0000
  H   H102      1.0  0.46356  0.13445  0.18378  1.0000
  C   C127      1.0  0.46326  0.13709  0.30321  1.0000
  H   H103      1.0  0.47232  0.15046  0.06902  1.0000
  C   C128      1.0  0.45794  0.98916  0.23976  1.0000
  H   H104      1.0  0.33365  0.02275  0.12669  1.0000
  Fe  Fe11      1.0  0.38544  0.23361  0.18166  1.0000
  C   C129      1.0  0.45397  0.00258  0.13268  1.0000
  H   H105      1.0  0.32475  0.22811  0.05871  1.0000
  C   C130      1.0  0.46103  0.07426  0.15901  1.0000
  C   C131      1.0  0.44169  0.99336  0.26019  1.0000
  H   H106      1.0  0.98462  0.17560  0.02481  1.0000
  C   C132      1.0  0.37358  0.99224  0.33238  1.0000
  C   C133      1.0  0.08525  0.99578  0.74357  1.0000
  C   C134      1.0  0.06143  0.07340  0.78190  1.0000
  Fe  Fe12      1.0  0.15577  0.07286  0.68049  1.0000
  S   S22       1.0  0.15768  0.07547  0.63169  1.0000
  H   H107      1.0  0.25776  0.01572  0.53625  1.0000
  Fe  Fe13      1.0  0.20446  0.10364  0.66901  1.0000
  S   S23       1.0  0.21006  0.10980  0.61892  1.0000
  S   S24       1.0  0.22969  0.12143  0.69140  1.0000
  Fe  Fe14      1.0  0.17378  0.10969  0.62686  1.0000
  S   S25       1.0  0.15954  0.13271  0.60465  1.0000
  Fe  Fe15      1.0  0.19350  0.07496  0.62887  1.0000
  H   H108      1.0  0.32353  0.15692  0.74975  1.0000
  S   S26       1.0  0.17012  0.10695  0.67584  1.0000
  S   S27       1.0  0.18995  0.06892  0.67879  1.0000
  Fe  Fe16      1.0  0.05113  0.19395  0.68742  1.0000
  S   S28       1.0  0.03901  0.16391  0.72337  1.0000
  C   C135      1.0  0.99432  0.22440  0.82350  1.0000
  Fe  Fe17      1.0  0.03669  0.17250  0.64042  1.0000
  S   S29       1.0  0.02368  0.14085  0.67194  1.0000
  Fe  Fe18      1.0  0.00819  0.15553  0.70453  1.0000
  H   H109      1.0  0.04934  0.03668  0.84721  1.0000
  Fe  Fe19      1.0  0.05546  0.15167  0.68780  1.0000
  S   S30       1.0  0.07255  0.12849  0.70107  1.0000
  S   S31       1.0  0.01860  0.18659  0.67173  1.0000
  S   S32       1.0  0.07025  0.18237  0.65315  1.0000
  S   S33       1.0  0.19933  0.03936  0.84077  1.0000
  C   C136      1.0  0.99060  0.09134  0.69620  1.0000
  C   C137      1.0  0.13523  0.13176  0.63101  1.0000
  C   C138      1.0  0.12404  0.11436  0.65549  1.0000
  C   C139      1.0  0.10521  0.11379  0.67716  1.0000
  C   C140      1.0  0.09663  0.13012  0.67374  1.0000
  C   C141      1.0  0.10751  0.14743  0.64899  1.0000
  C   C142      1.0  0.12700  0.14838  0.62789  1.0000
  H   H110      1.0  0.12956  0.10107  0.65752  1.0000
  H   H111      1.0  0.09677  0.10025  0.69595  1.0000
  H   H112      1.0  0.10111  0.16016  0.64615  1.0000
  H   H113      1.0  0.13557  0.16189  0.60904  1.0000
  C   C143      1.0  0.21913  0.11388  0.73063  1.0000
  C   C144      1.0  0.20573  0.09317  0.74577  1.0000
  C   C145      1.0  0.19842  0.08730  0.77732  1.0000
  C   C146      1.0  0.20386  0.10229  0.79361  1.0000
  C   C147      1.0  0.21685  0.12305  0.77839  1.0000
  C   C148      1.0  0.22487  0.12873  0.74702  1.0000
  H   H114      1.0  0.20147  0.08158  0.73325  1.0000
  H   H115      1.0  0.18819  0.07128  0.78900  1.0000
  H   H116      1.0  0.22098  0.13466  0.79091  1.0000
  H   H117      1.0  0.23548  0.14466  0.73538  1.0000
  Fe  Fe20      1.0  0.22680  0.05778  0.90460  1.0000
  H   H118      1.0  0.32967  0.20440  0.81897  1.0000
  C   C149      1.0  0.27823  0.14995  0.95436  1.0000
  H   H119      1.0  0.25738  0.11510  0.91678  1.0000
  H   H120      1.0  0.98058  0.03581  0.58920  1.0000
  C   C150      1.0  0.11233  0.00156  0.69637  1.0000
  C   C151      1.0  0.25505  0.13764  0.96653  1.0000
  H   H121      1.0  0.06313  0.99468  0.56935  1.0000
  C   C152      1.0  0.14366  0.19169  0.74037  1.0000
  H   H122      1.0  0.00962  0.20695  0.85075  1.0000
  C   C153      1.0  0.21074  0.17981  0.74022  1.0000
  H   H123      1.0  0.10174  0.00839  0.57883  1.0000
  C   C154      1.0  0.40230  0.22149  0.96912  1.0000
  C   C155      1.0  0.46849  0.23014  0.97585  1.0000
  H   H124      1.0  0.30358  0.99989  0.77619  1.0000
  C   C156      1.0  0.20681  0.00551  0.48875  1.0000
  H   H125      1.0  0.18945  0.21490  0.70649  1.0000
  C   C157      1.0  0.01143  0.12631  0.81437  1.0000
  C   C158      1.0  0.01288  0.11743  0.78980  1.0000
  P   P6        1.0  0.03698  0.14037  0.82448  1.0000
  C   C159      1.0  0.06001  0.13086  0.81303  1.0000
  C   C160      1.0  0.04664  0.16770  0.80567  1.0000
  C   C161      1.0  0.06874  0.18088  0.80469  1.0000
  C   C162      1.0  0.07645  0.20199  0.78957  1.0000
  C   C163      1.0  0.06251  0.20986  0.77444  1.0000
  C   C164      1.0  0.04046  0.19689  0.77554  1.0000
  C   C165      1.0  0.03244  0.17594  0.79141  1.0000
  C   C166      1.0  0.06643  0.11804  0.83414  1.0000
  C   C167      1.0  0.08431  0.11087  0.82487  1.0000
  C   C168      1.0  0.09581  0.11634  0.79453  1.0000
  C   C169      1.0  0.08953  0.12900  0.77340  1.0000
  C   C170      1.0  0.07191  0.13648  0.78259  1.0000
  C   C171      1.0  0.02965  0.13635  0.86483  1.0000
  C   C172      1.0  0.01671  0.11628  0.88332  1.0000
  C   C173      1.0  0.12035  0.02296  0.69421  1.0000
  C   C174      1.0  0.04944  0.06025  0.81041  1.0000
  C   C175      1.0  0.23045  0.19373  0.74447  1.0000
  C   C176      1.0  0.03608  0.15306  0.87806  1.0000
  C   C177      1.0  0.00934  0.08616  0.70226  1.0000
  C   C178      1.0  0.28744  0.00253  0.78137  1.0000
  H   H126      1.0  0.99055  0.22111  0.69758  1.0000
  C   C179      1.0  0.98743  0.09391  0.66714  1.0000
  H   H127      1.0  0.02926  0.11863  0.77627  1.0000
  H   H128      1.0  0.07999  0.17479  0.81548  1.0000
  H   H129      1.0  0.99485  0.05465  0.53520  1.0000
  C   C180      1.0  0.19505  0.18719  0.72803  1.0000
  H   H130      1.0  0.02977  0.20301  0.76346  1.0000
  H   H131      1.0  0.01545  0.16611  0.79171  1.0000
  H   H132      1.0  0.05779  0.11352  0.85774  1.0000
  H   H133      1.0  0.08912  0.10090  0.84117  1.0000
  H   H134      1.0  0.10930  0.11045  0.78727  1.0000
  H   H135      1.0  0.09803  0.13274  0.74975  1.0000
  H   H136      1.0  0.06733  0.14633  0.76577  1.0000
  H   H137      1.0  0.01133  0.10321  0.87353  1.0000
  H   H138      1.0  0.33767  0.12578  0.69033  1.0000
  H   H139      1.0  0.27746  0.06154  0.91081  1.0000
  H   H140      1.0  0.12113  0.13174  0.56492  1.0000
  H   H141      1.0  0.04567  0.16874  0.86444  1.0000
  S   S34       1.0  0.23867  0.07053  0.94244  1.0000
  H   H142      1.0  0.98822  0.13313  0.84804  1.0000
  H   H143      1.0  0.34222  0.11060  0.74026  1.0000
  C   C181      1.0  0.14162  0.01054  0.76342  1.0000
  H   H144      1.0  0.09338  0.21221  0.78901  1.0000
  C   C182      1.0  0.12189  0.99509  0.78283  1.0000
  C   C183      1.0  0.30845  0.14409  0.75043  1.0000
  H   H145      1.0  0.09242  0.08343  0.74633  1.0000
  H   H146      1.0  0.22363  0.12076  0.90184  1.0000
  C   C184      1.0  0.11198  0.02115  0.80512  1.0000
  H   H147      1.0  0.16919  0.03430  0.65158  1.0000
  H   H148      1.0  0.31988  0.07341  0.76631  1.0000
  C   C185      1.0  0.20109  0.03166  0.63120  1.0000
  H   H149      1.0  0.08525  0.02336  0.75817  1.0000
  C   C186      1.0  0.01283  0.22010  0.83206  1.0000
  Fe  Fe21      1.0  0.23524  0.04452  0.84620  1.0000
  C   C187      1.0  0.29337  0.00724  0.68766  1.0000
  C   C188      1.0  0.05625  0.06614  0.63366  1.0000
  P   P7        1.0  0.04254  0.08400  0.61972  1.0000
  H   H150      1.0  0.04969  0.22903  0.82259  1.0000
  C   C189      1.0  0.06531  0.99079  0.59188  1.0000
  C   C190      1.0  0.05135  0.04637  0.62789  1.0000
  C   C191      1.0  0.06285  0.03323  0.63798  1.0000
  C   C192      1.0  0.07928  0.03963  0.65393  1.0000
  C   C193      1.0  0.08437  0.05931  0.65955  1.0000
  C   C194      1.0  0.07301  0.07252  0.64932  1.0000
  C   C195      1.0  0.27522  0.02544  0.56916  1.0000
  H   H151      1.0  0.05079  0.09929  0.55411  1.0000
  C   C196      1.0  0.05888  0.04674  0.82513  1.0000
  H   H152      1.0  0.16254  0.04308  0.75078  1.0000
  C   C197      1.0  0.32776  0.10966  0.70190  1.0000
  S   S35       1.0  0.06976  0.22370  0.69847  1.0000
  C   C198      1.0  0.26918  0.11173  0.75067  1.0000
  H   H153      1.0  0.05422  0.08387  0.77032  1.0000
  H   H154      1.0  0.25953  0.13707  0.80906  1.0000
  C   C199      1.0  0.28639  0.01945  0.79291  1.0000
  C   C200      1.0  0.22006  0.22271  0.72235  1.0000
  H   H155      1.0  0.03910  0.04110  0.61515  1.0000
  H   H156      1.0  0.05923  0.01818  0.63310  1.0000
  H   H157      1.0  0.08829  0.02950  0.66163  1.0000
  H   H158      1.0  0.09738  0.06447  0.67147  1.0000
  H   H159      1.0  0.07750  0.08791  0.65321  1.0000
  H   H160      1.0  0.35323  0.14823  0.78708  1.0000
  H   H161      1.0  0.31731  0.06476  0.64097  1.0000
  C   C201      1.0  0.30128  0.14316  0.72395  1.0000
  C   C202      1.0  0.28157  0.12706  0.72414  1.0000
  H   H162      1.0  0.31078  0.15509  0.70334  1.0000
  H   H163      1.0  0.27562  0.12661  0.70387  1.0000
  C   C203      1.0  0.32465  0.15649  0.80725  1.0000
  C   C204      1.0  0.03559  0.08535  0.56212  1.0000
  C   C205      1.0  0.12522  0.19893  0.74118  1.0000
  H   H164      1.0  0.04225  0.12696  0.61345  1.0000
  C   C206      1.0  0.46796  0.21400  0.96160  1.0000
  C   C207      1.0  0.03535  0.23242  0.81603  1.0000
  P   P8        1.0  0.17076  0.16935  0.71993  1.0000
  C   C208      1.0  0.18201  0.16845  0.68212  1.0000
  C   C209      1.0  0.16125  0.14358  0.74486  1.0000
  C   C210      1.0  0.15221  0.12605  0.73427  1.0000
  C   C211      1.0  0.14771  0.10604  0.75194  1.0000
  C   C212      1.0  0.15141  0.10340  0.78073  1.0000
  C   C213      1.0  0.15882  0.12071  0.79224  1.0000
  C   C214      1.0  0.16348  0.14075  0.77452  1.0000
  C   C215      1.0  0.17658  0.17903  0.65746  1.0000
  C   C216      1.0  0.18598  0.17843  0.62834  1.0000
  C   C217      1.0  0.20134  0.16785  0.62354  1.0000
  C   C218      1.0  0.00291  0.09125  0.64417  1.0000
  H   H165      1.0  0.04369  0.00890  0.73273  1.0000
  C   C219      1.0  0.14609  0.17757  0.72326  1.0000
  C   C220      1.0  0.99600  0.04959  0.58164  1.0000
  C   C221      1.0  0.98088  0.00325  0.71096  1.0000
  C   C222      1.0  0.10863  0.19156  0.72587  1.0000
  C   C223      1.0  0.11042  0.17682  0.70994  1.0000
  C   C224      1.0  0.12895  0.16970  0.70880  1.0000
  H   H166      1.0  0.24314  0.13636  0.95238  1.0000
  C   C225      1.0  0.13538  0.04094  0.88540  1.0000
  H   H167      1.0  0.19754  0.01333  0.72483  1.0000
  C   C226      1.0  0.98220  0.23278  0.73618  1.0000
  C   C227      1.0  0.33475  0.19212  0.81196  1.0000
  H   H168      1.0  0.14927  0.12790  0.71199  1.0000
  H   H169      1.0  0.14194  0.09264  0.74292  1.0000
  H   H170      1.0  0.14888  0.08803  0.79399  1.0000
  H   H171      1.0  0.21928  0.14964  0.64416  1.0000
  C   C228      1.0  0.01700  0.12963  0.92753  1.0000
  H   H172      1.0  0.16508  0.18768  0.66044  1.0000
  H   H173      1.0  0.18098  0.18578  0.60947  1.0000
  C   C229      1.0  0.20745  0.15795  0.64783  1.0000
  H   H174      1.0  0.45190  0.20411  0.95873  1.0000
  H   H175      1.0  0.07248  0.16118  0.59012  1.0000
  H   H176      1.0  0.20805  0.16332  0.74590  1.0000
  C   C230      1.0  0.03476  0.99269  0.73391  1.0000
  H   H177      1.0  0.09441  0.19729  0.72617  1.0000
  H   H178      1.0  0.09751  0.17106  0.69818  1.0000
  H   H179      1.0  0.13003  0.15824  0.69630  1.0000
  C   C231      1.0  0.21118  0.02511  0.72950  1.0000
  C   C232      1.0  0.20679  0.03262  0.75479  1.0000
  C   C233      1.0  0.22430  0.04822  0.76029  1.0000
  C   C234      1.0  0.24625  0.05603  0.74096  1.0000
  C   C235      1.0  0.25094  0.04837  0.71575  1.0000
  C   C236      1.0  0.23314  0.03304  0.70987  1.0000
  P   P9        1.0  0.27835  0.06040  0.68854  1.0000
  C   C237      1.0  0.29089  0.04182  0.67830  1.0000
  C   C238      1.0  0.27245  0.07483  0.65672  1.0000
  C   C239      1.0  0.27076  0.06709  0.63126  1.0000
  C   C240      1.0  0.26511  0.07785  0.60721  1.0000
  C   C241      1.0  0.26070  0.09617  0.60863  1.0000
  C   C242      1.0  0.26164  0.10360  0.63430  1.0000
  C   C243      1.0  0.26712  0.09278  0.65848  1.0000
  H   H180      1.0  0.05533  0.99901  0.81541  1.0000
  C   C244      1.0  0.14728  0.03105  0.76589  1.0000
  C   C245      1.0  0.29904  0.07663  0.70405  1.0000
  C   C246      1.0  0.30248  0.06799  0.73159  1.0000
  H   H181      1.0  0.22495  0.13190  0.84790  1.0000
  C   C247      1.0  0.02495  0.08360  0.67929  1.0000
  C   C248      1.0  0.31219  0.09745  0.68888  1.0000
  C   C249      1.0  0.99293  0.10733  0.78171  1.0000
  H   H182      1.0  0.18986  0.02645  0.77011  1.0000
  H   H183      1.0  0.22102  0.05442  0.77947  1.0000
  H   H184      1.0  0.25936  0.06811  0.74588  1.0000
  H   H185      1.0  0.23609  0.02742  0.68996  1.0000
  H   H186      1.0  0.27283  0.05237  0.63039  1.0000
  H   H187      1.0  0.26297  0.07147  0.58806  1.0000
  H   H188      1.0  0.25557  0.10406  0.59035  1.0000
  H   H189      1.0  0.25731  0.11734  0.63592  1.0000
  H   H190      1.0  0.26660  0.09812  0.67881  1.0000
  C   C250      1.0  0.21532  0.01964  0.63236  1.0000
  H   H191      1.0  0.26819  0.01553  0.71505  1.0000
  H   H192      1.0  0.29281  0.05183  0.74329  1.0000
  H   H193      1.0  0.01201  0.12704  0.95171  1.0000
  H   H194      1.0  0.31051  0.10429  0.66709  1.0000
  H   H195      1.0  0.01239  0.08508  0.72442  1.0000
  C   C251      1.0  0.31789  0.08023  0.74465  1.0000
  C   C252      1.0  0.08039  0.04623  0.81136  1.0000
  S   S36       1.0  0.19372  0.09559  0.83286  1.0000
  S   S37       1.0  0.24038  0.07561  0.85639  1.0000
  S   S38       1.0  0.03345  0.17290  0.59360  1.0000
  C   C253      1.0  0.10981  0.04166  0.85255  1.0000
  H   H196      1.0  0.07623  0.00850  0.89617  1.0000
  H   H197      1.0  0.03980  0.08052  0.68438  1.0000
  C   C254      1.0  0.31510  0.09270  0.94175  1.0000
  H   H198      1.0  0.99657  0.17295  0.75075  1.0000
  C   C255      1.0  0.12891  0.07296  0.86697  1.0000
  H   H199      1.0  0.30178  0.02988  0.79641  1.0000
  C   C256      1.0  0.28262  0.02106  0.69542  1.0000
  C   C257      1.0  0.09246  0.05990  0.78318  1.0000
  C   C258      1.0  0.31033  0.04863  0.65390  1.0000
  S   S39       1.0  0.20957  0.05568  0.60476  1.0000
  S   S40       1.0  0.26578  0.04549  0.81176  1.0000
  C   C259      1.0  0.10706  0.00032  0.80359  1.0000
  C   C260      1.0  0.00558  0.14074  0.57695  1.0000
  H   H200      1.0  0.31851  0.07281  0.91239  1.0000
  Fe  Fe22      1.0  0.35547  0.11661  0.97753  1.0000
  H   H201      1.0  0.09181  0.98802  0.81807  1.0000
  H   H202      1.0  0.00087  0.04892  0.62601  1.0000
  H   H203      1.0  0.10627  0.07167  0.83782  1.0000
  H   H204      1.0  0.14369  0.03238  0.89845  1.0000
  S   S41       1.0  0.12244  0.05714  0.71551  1.0000
  H   H205      1.0  0.25364  0.09947  0.75098  1.0000
  H   H206      1.0  0.20249  0.15012  0.69561  1.0000
  C   C261      1.0  0.33042  0.10111  0.72994  1.0000
  P   P10       1.0  0.09244  0.02863  0.83048  1.0000
  C   C262      1.0  0.25807  0.12017  0.89323  1.0000
  H   H207      1.0  0.98568  0.18675  0.79436  1.0000
  C   C263      1.0  0.40184  0.22759  0.91664  1.0000
  H   H208      1.0  0.13783  0.05212  0.78899  1.0000
  C   C264      1.0  0.05929  0.12761  0.60286  1.0000
  H   H209      1.0  0.16964  0.15401  0.78358  1.0000
  H   H210      1.0  0.28429  0.15833  0.93085  1.0000
  C   C265      1.0  0.08708  0.99843  0.59715  1.0000
  H   H211      1.0  0.03470  0.16262  0.91939  1.0000
  C   C266      1.0  0.30689  0.07881  0.92469  1.0000
  C   C267      1.0  0.19590  0.00077  0.51924  1.0000
  C   C268      1.0  0.23985  0.12973  0.85443  1.0000
  H   H212      1.0  0.23157  0.02469  0.61578  1.0000
  H   H213      1.0  0.13400  0.03343  0.67530  1.0000
  C   C269      1.0  0.18021  0.02517  0.65269  1.0000
  Fe  Fe23      1.0  0.20380  0.06922  0.85464  1.0000
  C   C270      1.0  0.25945  0.13234  0.83244  1.0000
  C   C271      1.0  0.13286  0.03621  0.78716  1.0000
  C   C272      1.0  0.11092  0.03076  0.71676  1.0000
  C   C273      1.0  0.08296  0.07323  0.76838  1.0000
  H   H214      1.0  0.10914  0.06027  0.77236  1.0000
  S   S42       1.0  0.34460  0.10122  0.94122  1.0000
  C   C274      1.0  0.27625  0.11260  0.77714  1.0000
  C   C275      1.0  0.29579  0.12893  0.77740  1.0000
  C   C276      1.0  0.00403  0.06018  0.55121  1.0000
  C   C277      1.0  0.10373  0.13056  0.57493  1.0000
  Fe  Fe24      1.0  0.18877  0.02438  0.89030  1.0000
  H   H215      1.0  0.27423  0.99361  0.63435  1.0000
  C   C278      1.0  0.26560  0.02295  0.79991  1.0000
  C   C279      1.0  0.02377  0.07808  0.54149  1.0000
  H   H216      1.0  0.03280  0.06047  0.82103  1.0000
  C   C280      1.0  0.11398  0.06282  0.85134  1.0000
  C   C281      1.0  0.23909  0.12349  0.88481  1.0000
  C   C282      1.0  0.27997  0.01932  0.59674  1.0000
  H   H217      1.0  0.13269  0.08940  0.86541  1.0000
  C   C283      1.0  0.27830  0.12827  0.84075  1.0000
  H   H218      1.0  0.26600  0.10081  0.79756  1.0000
  C   C284      1.0  0.06440  0.10937  0.60255  1.0000
  C   C285      1.0  0.26827  0.07917  0.94109  1.0000
  C   C286      1.0  0.09276  0.01730  0.74088  1.0000
  C   C287      1.0  0.12082  0.03089  0.86940  1.0000
  H   H219      1.0  0.10696  0.99859  0.63013  1.0000
  H   H220      1.0  0.33602  0.04006  0.62746  1.0000
  H   H221      1.0  0.29603  0.08819  0.80605  1.0000
  C   C288      1.0  0.27755  0.12238  0.87138  1.0000
  P   P11       1.0  0.30346  0.13107  0.81247  1.0000
  C   C289      1.0  0.17371  0.00713  0.67585  1.0000
  H   H222      1.0  0.16188  0.11860  0.81447  1.0000
  C   C290      1.0  0.19778  0.15818  0.67702  1.0000
  H   H223      1.0  0.37200  0.21007  0.95343  1.0000
  C   C291      1.0  0.30844  0.09198  0.81914  1.0000
  H   H224      1.0  0.15774  0.00250  0.69281  1.0000
  C   C292      1.0  0.98979  0.12544  0.83007  1.0000
  H   H225      1.0  0.22990  0.01246  0.79996  1.0000
  C   C293      1.0  0.24582  0.00951  0.79502  1.0000
  S   S43       1.0  0.22443  0.02689  0.89494  1.0000
  H   H226      1.0  0.29071  0.03076  0.60570  1.0000
  C   C294      1.0  0.32101  0.03474  0.64625  1.0000
  C   C295      1.0  0.13957  0.06201  0.88402  1.0000
  H   H227      1.0  0.31124  0.06149  0.82583  1.0000
  C   C296      1.0  0.20884  0.00149  0.65587  1.0000
  C   C297      1.0  0.06839  0.00604  0.85340  1.0000
  H   H228      1.0  0.11819  0.01471  0.87004  1.0000
  C   C298      1.0  0.31717  0.07673  0.83024  1.0000
  C   C299      1.0  0.31522  0.11145  0.82576  1.0000
  H   H229      1.0  0.29169  0.11902  0.87862  1.0000
  S   S44       1.0  0.19037  0.05396  0.90383  1.0000
  H   H230      1.0  0.15147  0.06996  0.89567  1.0000
  C   C300      1.0  0.26129  0.01062  0.55759  1.0000
  C   C301      1.0  0.34790  0.16038  0.79411  1.0000
  H   H231      1.0  0.20806  0.16687  0.60105  1.0000
  H   H232      1.0  0.02029  0.14355  0.55873  1.0000
  H   H233      1.0  0.37074  0.21093  0.79627  1.0000
  C   C302      1.0  0.28362  0.07228  0.92398  1.0000
  H   H234      1.0  0.00058  0.09420  0.62159  1.0000
  C   C303      1.0  0.02980  0.14966  0.90930  1.0000
  H   H235      1.0  0.15235  0.00664  0.74624  1.0000
  C   C304      1.0  0.42613  0.23255  0.96106  1.0000
  C   C305      1.0  0.33287  0.08085  0.84781  1.0000
  C   C306      1.0  0.33069  0.11529  0.84398  1.0000
  C   C307      1.0  0.01045  0.11295  0.91453  1.0000
  H   H236      1.0  0.04606  0.99672  0.68663  1.0000
  H   H237      1.0  0.33549  0.12977  0.85064  1.0000
  H   H238      1.0  0.33925  0.06887  0.85692  1.0000
  C   C308      1.0  0.36444  0.17995  0.79019  1.0000
  H   H239      1.0  0.38239  0.18277  0.78038  1.0000
  C   C309      1.0  0.33966  0.10014  0.85464  1.0000
  C   C310      1.0  0.35788  0.19581  0.79916  1.0000
  H   H240      1.0  0.09118  0.09723  0.58769  1.0000
  C   C311      1.0  0.31815  0.17255  0.81596  1.0000
  H   H241      1.0  0.35113  0.10303  0.86932  1.0000
  H   H242      1.0  0.30034  0.17001  0.82595  1.0000
  H   H243      1.0  0.28218  0.04169  0.55681  1.0000
  C   C312      1.0  0.06451  0.00014  0.88479  1.0000
  C   C313      1.0  0.00724  0.15327  0.59718  1.0000
  C   C314      1.0  0.39028  0.21904  0.94696  1.0000
  C   C315      1.0  0.27073  0.99840  0.61285  1.0000
  C   C316      1.0  0.25191  0.98957  0.57371  1.0000
  C   C317      1.0  0.09853  0.14863  0.57542  1.0000
  C   C318      1.0  0.97965  0.16556  0.76597  1.0000
  H   H244      1.0  0.00033  0.09744  0.92862  1.0000
  H   H245      1.0  0.11179  0.16379  0.56551  1.0000
  C   C319      1.0  0.08672  0.11100  0.58828  1.0000
  C   C320      1.0  0.98826  0.14940  0.62104  1.0000
  H   H246      1.0  0.24236  0.18784  0.75402  1.0000
  C   C321      1.0  0.02760  0.07480  0.59272  1.0000
  C   C322      1.0  0.07638  0.14714  0.58942  1.0000
  H   H247      1.0  0.12399  0.21050  0.75327  1.0000
  H   H248      1.0  0.02986  0.08645  0.51796  1.0000
  H   H249      1.0  0.19099  0.99524  0.80728  1.0000
  C   C323      1.0  0.23502  0.21518  0.73577  1.0000
  C   C324      1.0  0.20035  0.20879  0.71806  1.0000
  H   H250      1.0  0.32074  0.00317  0.65744  1.0000
  H   H251      1.0  0.21998  0.99245  0.65726  1.0000
  C   C325      1.0  0.00752  0.05703  0.60240  1.0000
  C   C326      1.0  0.31247  0.01400  0.66310  1.0000
  H   H252      1.0  0.99511  0.99802  0.71341  1.0000
  S   S45       1.0  0.37748  0.15026  0.96790  1.0000
  C   C327      1.0  0.29373  0.15106  0.97239  1.0000
  H   H253      1.0  0.25040  0.22597  0.73883  1.0000
  H   H254      1.0  0.15608  0.19733  0.75280  1.0000
  C   C328      1.0  0.27647  0.09301  0.95814  1.0000
  C   C329      1.0  0.29977  0.09985  0.95838  1.0000
  H   H255      1.0  0.06880  0.22597  0.76150  1.0000
  C   C330      1.0  0.02170  0.08584  0.65011  1.0000
  H   H256      1.0  0.12004  0.99549  0.67921  1.0000
  C   C331      1.0  0.98454  0.02452  0.70212  1.0000
  H   H257      1.0  0.99412  0.10128  0.76202  1.0000
  S   S46       1.0  0.15776  0.99631  0.91653  1.0000
  H   H258      1.0  0.98947  0.15902  0.63680  1.0000
  H   H259      1.0  0.00165  0.03588  0.69781  1.0000
  C   C332      1.0  0.18804  0.99540  0.67774  1.0000
  H   H260      1.0  0.97926  0.09449  0.71360  1.0000
  H   H261      1.0  0.39247  0.22534  0.89957  1.0000
  H   H262      1.0  0.03907  0.23523  0.53746  1.0000
  C   C333      1.0  0.09004  0.99297  0.62604  1.0000
  H   H263      1.0  0.18160  0.00581  0.52632  1.0000
  H   H264      1.0  0.15175  0.98997  0.85730  1.0000
  H   H265      1.0  0.00844  0.98831  0.65132  1.0000
  H   H266      1.0  0.31181  0.16032  0.96305  1.0000
  C   C334      1.0  0.05258  0.99474  0.83961  1.0000
  H   H267      1.0  0.98392  0.11439  0.56535  1.0000
  C   C335      1.0  0.98506  0.12424  0.58078  1.0000
  C   C336      1.0  0.24695  0.99273  0.78272  1.0000
  H   H268      1.0  0.03603  0.22987  0.66596  1.0000
  H   H269      1.0  0.30586  0.11073  0.97129  1.0000
  H   H270      1.0  0.28707  0.99125  0.70100  1.0000
  C   C337      1.0  0.22556  0.99939  0.47973  1.0000
  H   H271      1.0  0.26474  0.09854  0.97114  1.0000
  C   C338      1.0  0.09535  0.98792  0.72157  1.0000
  C   C339      1.0  0.20363  0.98978  0.54074  1.0000
  C   C340      1.0  0.26783  0.98919  0.77604  1.0000
  H   H272      1.0  0.19516  0.98663  0.56422  1.0000
  C   C341      1.0  0.23341  0.98848  0.50117  1.0000
  C   C342      1.0  0.97839  0.21838  0.71874  1.0000
  Fe  Fe25      1.0  0.02541  0.41946  0.37635  1.0000
  S   S47       1.0  0.05421  0.41468  0.34595  1.0000
  S   S48       1.0  0.01410  0.40436  0.42582  1.0000
  Fe  Fe26      1.0  0.06786  0.44962  0.33105  1.0000
  Fe  Fe27      1.0  0.03312  0.41637  0.31219  1.0000
  S   S49       1.0  0.02572  0.39623  0.28022  1.0000
  S   S50       1.0  0.00303  0.41781  0.34414  1.0000
  H   H273      1.0  0.98623  0.33395  0.26127  1.0000
  H   H274      1.0  0.09896  0.41689  0.47564  1.0000
  H   H275      1.0  0.46549  0.26066  0.09583  1.0000
  H   H276      1.0  0.40179  0.26727  0.02095  1.0000
  C   C343      1.0  0.99067  0.47225  0.42295  1.0000
  C   C344      1.0  0.04431  0.35382  0.29138  1.0000
  C   C345      1.0  0.38044  0.36940  0.09037  1.0000
  S   S51       1.0  0.40570  0.26418  0.18957  1.0000
  H   H277      1.0  0.42796  0.37364  0.15909  1.0000
  C   C346      1.0  0.07703  0.34152  0.46451  1.0000
  C   C347      1.0  0.40836  0.46053  0.28610  1.0000
  C   C348      1.0  0.03241  0.31880  0.33929  1.0000
  S   S52       1.0  0.18462  0.45701  0.37928  1.0000
  C   C349      1.0  0.41886  0.47862  0.32377  1.0000
  S   S53       1.0  0.23007  0.47111  0.42503  1.0000
  C   C350      1.0  0.44496  0.31376  0.10168  1.0000
  C   C351      1.0  0.42638  0.29640  0.10217  1.0000
  C   C352      1.0  0.41362  0.28176  0.12936  1.0000
  C   C353      1.0  0.42003  0.28379  0.15602  1.0000
  C   C354      1.0  0.43877  0.30108  0.15555  1.0000
  C   C355      1.0  0.45118  0.31610  0.12840  1.0000
  H   H278      1.0  0.42147  0.29456  0.08161  1.0000
  H   H279      1.0  0.39864  0.26903  0.12972  1.0000
  H   H280      1.0  0.44385  0.30271  0.17608  1.0000
  C   C356      1.0  0.40431  0.37523  0.08519  1.0000
  H   H281      1.0  0.99594  0.38464  0.24158  1.0000
  H   H282      1.0  0.10830  0.48212  0.25274  1.0000
  H   H283      1.0  0.41204  0.44351  0.17243  1.0000
  H   H284      1.0  0.37246  0.38110  0.09119  1.0000
  P   P12       1.0  0.00654  0.48528  0.44643  1.0000
  P   P13       1.0  0.36002  0.30616  0.09985  1.0000
  H   H285      1.0  0.47361  0.42068  0.31066  1.0000
  C   C357      1.0  0.03388  0.46863  0.22450  1.0000
  C   C358      1.0  0.45742  0.28226  0.03083  1.0000
  C   C359      1.0  0.03601  0.41806  0.44051  1.0000
  C   C360      1.0  0.05739  0.43060  0.42109  1.0000
  C   C361      1.0  0.07468  0.44251  0.43203  1.0000
  H   H286      1.0  0.46009  0.37058  0.18051  1.0000
  C   C362      1.0  0.40926  0.47731  0.29909  1.0000
  H   H287      1.0  0.02883  0.30113  0.30604  1.0000
  H   H288      1.0  0.06085  0.43112  0.39752  1.0000
  H   H289      1.0  0.09104  0.45240  0.41674  1.0000
  C   C363      1.0  0.43009  0.43295  0.13852  1.0000
  H   H290      1.0  0.46571  0.32929  0.12815  1.0000
  C   C364      1.0  0.35042  0.47484  0.29316  1.0000
  C   C365      1.0  0.41909  0.39599  0.21677  1.0000
  H   H291      1.0  0.44032  0.40145  0.24726  1.0000
  C   C366      1.0  0.47274  0.47917  0.38071  1.0000
  C   C367      1.0  0.02141  0.48172  0.21834  1.0000
  H   H292      1.0  0.41681  0.40759  0.42478  1.0000
  H   H293      1.0  0.13173  0.37658  0.44042  1.0000
  C   C368      1.0  0.45695  0.34012  0.23632  1.0000
  C   C369      1.0  0.07061  0.44218  0.46243  1.0000
  C   C370      1.0  0.42758  0.44054  0.16418  1.0000
  H   H294      1.0  0.45323  0.24979  0.04115  1.0000
  Fe  Fe28      1.0  0.47485  0.47112  0.22006  1.0000
  H   H295      1.0  0.05241  0.47507  0.22033  1.0000
  C   C371      1.0  0.37991  0.26289  0.06442  1.0000
  H   H296      1.0  0.40809  0.40377  0.22614  1.0000
  C   C372      1.0  0.99626  0.38126  0.28817  1.0000
  C   C373      1.0  0.15921  0.45873  0.36978  1.0000
  H   H297      1.0  0.09921  0.35885  0.42069  1.0000
  C   C374      1.0  0.39420  0.27470  0.03620  1.0000
  C   C375      1.0  0.12163  0.46358  0.34815  1.0000
  H   H298      1.0  0.99117  0.37450  0.33613  1.0000
  C   C376      1.0  0.41469  0.36021  0.08424  1.0000
  H   H299      1.0  0.40960  0.32800  0.08768  1.0000
  H   H300      1.0  0.31803  0.30841  0.13536  1.0000
  C   C377      1.0  0.98744  0.32398  0.40120  1.0000
  C   C378      1.0  0.38850  0.30572  0.04704  1.0000
  C   C379      1.0  0.36790  0.29000  0.18505  1.0000
  C   C380      1.0  0.41800  0.44588  0.29665  1.0000
  H   H301      1.0  0.40159  0.38979  0.18219  1.0000
  C   C381      1.0  0.35573  0.29288  0.13856  1.0000
  C   C382      1.0  0.33230  0.30379  0.09255  1.0000
  S   S54       1.0  0.45266  0.41993  0.09507  1.0000
  H   H302      1.0  0.41816  0.43355  0.28555  1.0000
  H   H303      1.0  0.41650  0.43014  0.12699  1.0000
  H   H304      1.0  0.35878  0.26289  0.10562  1.0000
  S   S55       1.0  0.45952  0.33259  0.06754  1.0000
  C   C383      1.0  0.03224  0.41692  0.47129  1.0000
  C   C384      1.0  0.29330  0.30343  0.10894  1.0000
  H   H305      1.0  0.43581  0.43638  0.32861  1.0000
  S   S56       1.0  0.10363  0.47123  0.32720  1.0000
  C   C385      1.0  0.33666  0.27454  0.15230  1.0000
  H   H306      1.0  0.08175  0.36773  0.34433  1.0000
  C   C386      1.0  0.41547  0.38819  0.19195  1.0000
  C   C387      1.0  0.03930  0.33404  0.28610  1.0000
  C   C388      1.0  0.43763  0.39481  0.22856  1.0000
  C   C389      1.0  0.31490  0.30552  0.11426  1.0000
  H   H307      1.0  0.12213  0.42511  0.26652  1.0000
  C   C390      1.0  0.98574  0.45200  0.23723  1.0000
  C   C391      1.0  0.42816  0.46374  0.33455  1.0000
  H   H308      1.0  0.15766  0.48373  0.39015  1.0000
  C   C392      1.0  0.04335  0.35617  0.32058  1.0000
  C   C393      1.0  0.30615  0.29793  0.06018  1.0000
  H   H309      1.0  0.38048  0.29549  0.19741  1.0000
  H   H310      1.0  0.34848  0.34441  0.09869  1.0000
  H   H311      1.0  0.46214  0.35139  0.28996  1.0000
  C   C394      1.0  0.11596  0.36538  0.45578  1.0000
  H   H312      1.0  0.34082  0.29854  0.04834  1.0000
  P   P14       1.0  0.47589  0.38268  0.23164  1.0000
  H   H313      1.0  0.27991  0.30465  0.12586  1.0000
  H   H314      1.0  0.40955  0.30526  0.00566  1.0000
  H   H315      1.0  0.41593  0.46692  0.09722  1.0000
  H   H316      1.0  0.01773  0.37586  0.38738  1.0000
  C   C395      1.0  0.03810  0.33873  0.34464  1.0000
  H   H317      1.0  0.04843  0.36737  0.27288  1.0000
  H   H318      1.0  0.09515  0.44413  0.26047  1.0000
  C   C396      1.0  0.05884  0.29550  0.41467  1.0000
  C   C397      1.0  0.28891  0.29961  0.08192  1.0000
  H   H319      1.0  0.04634  0.37157  0.32433  1.0000
  C   C398      1.0  0.38227  0.48603  0.42126  1.0000
  C   C399      1.0  0.42796  0.44751  0.32083  1.0000
  H   H320      1.0  0.46081  0.31431  0.01473  1.0000
  C   C400      1.0  0.05726  0.36419  0.38567  1.0000
  C   C401      1.0  0.07841  0.37353  0.36394  1.0000
  C   C402      1.0  0.09546  0.39072  0.36732  1.0000
  C   C403      1.0  0.09171  0.39837  0.39265  1.0000
  C   C404      1.0  0.07106  0.38867  0.41481  1.0000
  C   C405      1.0  0.05390  0.37172  0.41130  1.0000
  C   C406      1.0  0.11302  0.45264  0.25888  1.0000
  C   C407      1.0  0.46521  0.44039  0.16829  1.0000
  C   C408      1.0  0.42245  0.40940  0.46838  1.0000
  S   S57       1.0  0.09214  0.45819  0.47509  1.0000
  C   C409      1.0  0.15872  0.47451  0.25677  1.0000
  C   C410      1.0  0.09761  0.35545  0.44467  1.0000
  H   H321      1.0  0.43662  0.25400  0.14271  1.0000
  H   H322      1.0  0.27213  0.29787  0.07788  1.0000
  H   H323      1.0  0.06826  0.32021  0.37462  1.0000
  C   C411      1.0  0.40124  0.33939  0.08836  1.0000
  H   H324      1.0  0.47531  0.46627  0.39469  1.0000
  C   C412      1.0  0.45775  0.32082  0.23286  1.0000
  C   C413      1.0  0.39851  0.29610  0.02754  1.0000
  S   S58       1.0  0.04000  0.45423  0.36303  1.0000
  C   C414      1.0  0.43545  0.44415  0.47595  1.0000
  H   H325      1.0  0.32470  0.26796  0.13976  1.0000
  H   H326      1.0  0.11154  0.39831  0.35019  1.0000
  H   H327      1.0  0.10471  0.41193  0.39506  1.0000
  H   H328      1.0  0.45658  0.35452  0.34209  1.0000
  H   H329      1.0  0.03785  0.36468  0.42837  1.0000
  C   C415      1.0  0.43337  0.47680  0.09520  1.0000
  C   C416      1.0  0.14876  0.44550  0.35311  1.0000
  C   C417      1.0  0.44521  0.44451  0.17897  1.0000
  H   H330      1.0  0.40071  0.45894  0.26733  1.0000
  C   C418      1.0  0.33320  0.26417  0.18223  1.0000
  S   S59       1.0  0.99979  0.47168  0.31421  1.0000
  C   C419      1.0  0.37439  0.29403  0.07565  1.0000
  C   C420      1.0  0.14998  0.47362  0.37701  1.0000
  C   C421      1.0  0.43035  0.37913  0.17891  1.0000
  H   H331      1.0  0.03969  0.33232  0.26349  1.0000
  C   C422      1.0  0.99232  0.45314  0.41938  1.0000
  H   H332      1.0  0.98195  0.42804  0.39851  1.0000
  S   S60       1.0  0.47674  0.48070  0.26300  1.0000
  H   H333      1.0  0.43320  0.36468  0.08039  1.0000
  H   H334      1.0  0.17643  0.48270  0.25625  1.0000
  C   C423      1.0  0.44873  0.37768  0.19087  1.0000
  C   C424      1.0  0.36691  0.34853  0.09459  1.0000
  C   C425      1.0  0.32778  0.30003  0.06542  1.0000
  H   H335      1.0  0.01744  0.45042  0.47744  1.0000
  P   P15       1.0  0.03521  0.34158  0.38254  1.0000
  C   C426      1.0  0.32071  0.47188  0.33636  1.0000
  S   S61       1.0  0.05004  0.45101  0.29361  1.0000
  C   C427      1.0  0.42222  0.41781  0.43897  1.0000
  C   C428      1.0  0.37724  0.33333  0.09358  1.0000
  C   C429      1.0  0.05639  0.31265  0.39655  1.0000
  H   H336      1.0  0.41732  0.39267  0.47694  1.0000
  H   H337      1.0  0.44723  0.46786  0.05672  1.0000
  C   C430      1.0  0.45326  0.26282  0.02439  1.0000
  H   H338      1.0  0.30272  0.29485  0.03929  1.0000
  C   C431      1.0  0.12821  0.44192  0.26241  1.0000
  H   H339      1.0  0.34670  0.26334  0.22139  1.0000
  Fe  Fe29      1.0  0.02088  0.45235  0.32738  1.0000
  H   H340      1.0  0.07242  0.28982  0.40669  1.0000
  H   H341      1.0  0.00315  0.44642  0.43024  1.0000
  H   H342      1.0  0.39173  0.32225  0.03968  1.0000
  C   C432      1.0  0.99743  0.47339  0.22417  1.0000
  H   H343      1.0  0.41481  0.39139  0.08195  1.0000
  S   S62       1.0  0.44132  0.45385  0.21134  1.0000
  H   H344      1.0  0.44678  0.24979  0.19142  1.0000
  C   C433      1.0  0.13004  0.44792  0.34233  1.0000
  C   C434      1.0  0.13141  0.47615  0.36591  1.0000
  H   H345      1.0  0.06817  0.39456  0.43450  1.0000
  H   H346      1.0  0.38665  0.31414  0.14507  1.0000
  C   C435      1.0  0.46744  0.43223  0.14301  1.0000
  C   C436      1.0  0.98034  0.44267  0.40126  1.0000
  C   C437      1.0  0.45002  0.42885  0.12782  1.0000
  C   C438      1.0  0.36997  0.27248  0.08404  1.0000
  C   C439      1.0  0.47414  0.47450  0.00077  1.0000
  C   C440      1.0  0.02648  0.29314  0.45360  1.0000
  H   H347      1.0  0.43590  0.46502  0.35317  1.0000
  C   C441      1.0  0.34888  0.27182  0.19856  1.0000
  C   C442      1.0  0.43581  0.45274  0.44618  1.0000
  H   H348      1.0  0.16275  0.44451  0.26462  1.0000
  C   C443      1.0  0.37139  0.30048  0.15516  1.0000
  H   H349      1.0  0.98989  0.42222  0.25158  1.0000
  C   C444      1.0  0.99845  0.43888  0.24246  1.0000
  H   H350      1.0  0.15580  0.43395  0.34746  1.0000
  C   C445      1.0  0.46129  0.36828  0.32377  1.0000
  H   H351      1.0  0.12301  0.43853  0.32802  1.0000
  C   C446      1.0  0.03857  0.31983  0.40656  1.0000
  H   H352      1.0  0.01494  0.37154  0.47556  1.0000
  C   C447      1.0  0.45255  0.38551  0.21580  1.0000
  C   C448      1.0  0.02406  0.31037  0.43560  1.0000
  C   C449      1.0  0.45390  0.25486  0.14344  1.0000
  C   C450      1.0  0.98588  0.37785  0.26461  1.0000
  C   C451      1.0  0.47022  0.25812  0.11692  1.0000
  C   C452      1.0  0.00667  0.34236  0.39395  1.0000
  C   C453      1.0  0.46445  0.36657  0.29409  1.0000
  H   H353      1.0  0.97877  0.37655  0.40328  1.0000
  H   H354      1.0  0.46248  0.38916  0.35269  1.0000
  C   C454      1.0  0.42870  0.43939  0.42797  1.0000
  H   H355      1.0  0.31872  0.24980  0.19250  1.0000
  H   H356      1.0  0.02702  0.30498  0.35764  1.0000
  C   C455      1.0  0.32718  0.46768  0.30865  1.0000
  C   C456      1.0  0.00331  0.36134  0.39408  1.0000
  H   H357      1.0  0.30269  0.46673  0.34817  1.0000
  C   C457      1.0  0.15106  0.45285  0.26132  1.0000
  C   C458      1.0  0.98113  0.36180  0.40284  1.0000
  C   C459      1.0  0.47084  0.38438  0.27020  1.0000
  C   C460      1.0  0.03322  0.31651  0.31008  1.0000
  S   S63       1.0  0.47390  0.37341  0.11591  1.0000
  C   C461      1.0  0.04369  0.28558  0.44301  1.0000
  C   C462      1.0  0.45964  0.25230  0.17096  1.0000
  H   H358      1.0  0.06282  0.33427  0.45560  1.0000
  H   H359      1.0  0.42794  0.44562  0.40538  1.0000
  H   H360      1.0  0.31412  0.45893  0.29918  1.0000
  P   P16       1.0  0.44338  0.48050  0.43230  1.0000
  C   C463      1.0  0.47732  0.35748  0.22920  1.0000
  C   C464      1.0  0.45366  0.29690  0.98177  1.0000
  H   H361      1.0  0.01502  0.28562  0.47582  1.0000
  H   H362      1.0  0.98961  0.30928  0.40019  1.0000
  C   C465      1.0  0.02241  0.44719  0.23614  1.0000
  H   H363      1.0  0.04534  0.27209  0.45688  1.0000
  H   H364      1.0  0.03201  0.43695  0.24066  1.0000
  H   H365      1.0  0.35514  0.47125  0.27189  1.0000
  H   H366      1.0  0.37624  0.24622  0.07117  1.0000
  Fe  Fe30      1.0  0.20602  0.48066  0.39994  1.0000
  H   H367      1.0  0.98950  0.32863  0.31384  1.0000
  C   C466      1.0  0.45124  0.47753  0.07198  1.0000
  H   H368      1.0  0.44194  0.30762  0.23761  1.0000
  H   H369      1.0  0.98805  0.48365  0.21872  1.0000
  C   C467      1.0  0.12061  0.47430  0.25437  1.0000
  H   H370      1.0  0.01094  0.31628  0.44445  1.0000
  H   H371      1.0  0.44040  0.34165  0.24387  1.0000
  C   C468      1.0  0.45765  0.29929  0.00954  1.0000
  C   C469      1.0  0.47074  0.40550  0.30615  1.0000
  C   C470      1.0  0.46885  0.46180  0.98127  1.0000
  H   H372      1.0  0.46034  0.28421  0.05241  1.0000
  C   C471      1.0  0.47386  0.40384  0.27652  1.0000
  C   C472      1.0  0.46452  0.38775  0.32978  1.0000
  C   C473      1.0  0.44873  0.26015  0.99675  1.0000
  C   C474      1.0  0.98318  0.37227  0.31788  1.0000
  H   H373      1.0  0.41037  0.48052  0.39520  1.0000
  C   C475      1.0  0.40363  0.48340  0.41629  1.0000
  C   C476      1.0  0.14350  0.48541  0.25354  1.0000
  H   H374      1.0  0.33235  0.48580  0.37063  1.0000
  C   C477      1.0  0.41602  0.48444  0.43844  1.0000
  H   H375      1.0  0.37289  0.48558  0.40401  1.0000
  C   C478      1.0  0.33750  0.48270  0.34903  1.0000
  S   S64       1.0  0.04316  0.46190  0.53895  1.0000
  Fe  Fe31      1.0  0.09512  0.46954  0.57474  1.0000
  S   S65       1.0  0.06124  0.46959  0.59906  1.0000
  S   S66       1.0  0.12527  0.47570  0.59524  1.0000
  Fe  Fe32      1.0  0.04548  0.44236  0.58127  1.0000
  S   S67       1.0  0.01501  0.41611  0.61294  1.0000
  C   C479      1.0  0.02323  0.25690  0.54956  1.0000
  H   H376      1.0  0.07562  0.38232  0.51049  1.0000
  S   S68       1.0  0.07953  0.44014  0.56135  1.0000
  C   C480      1.0  0.05781  0.24342  0.69282  1.0000
  H   H377      1.0  0.07283  0.26269  0.50035  1.0000
  H   H378      1.0  0.13462  0.47491  0.53255  1.0000
  H   H379      1.0  0.07803  0.26124  0.71770  1.0000
  H   H380      1.0  0.12809  0.36893  0.49528  1.0000
  H   H381      1.0  0.99874  0.29712  0.52266  1.0000
  C   C481      1.0  0.16948  0.47675  0.58032  1.0000
  H   H382      1.0  0.00764  0.28614  0.78879  1.0000
  H   H383      1.0  0.02407  0.26472  0.76172  1.0000
  H   H384      1.0  0.01817  0.25709  0.66108  1.0000
  C   C482      1.0  0.00540  0.39315  0.60123  1.0000
  C   C483      1.0  0.01365  0.39228  0.57184  1.0000
  C   C484      1.0  0.00568  0.37352  0.56340  1.0000
  C   C485      1.0  0.44911  0.27740  0.97540  1.0000
  C   C486      1.0  0.98910  0.37535  0.62198  1.0000
  C   C487      1.0  0.99820  0.24124  0.79912  1.0000
  H   H385      1.0  0.02616  0.40604  0.55571  1.0000
  H   H386      1.0  0.01206  0.37290  0.54067  1.0000
  C   C488      1.0  0.04395  0.29352  0.52393  1.0000
  C   C489      1.0  0.43763  0.24111  0.93052  1.0000
  H   H387      1.0  0.45389  0.31017  0.96529  1.0000
  H   H388      1.0  0.04656  0.42864  0.50585  1.0000
  S   S69       1.0  0.99685  0.28452  0.61704  1.0000
  C   C490      1.0  0.02510  0.27780  0.54502  1.0000
  C   C491      1.0  0.00299  0.31329  0.51166  1.0000
  C   C492      1.0  0.05935  0.26695  0.51245  1.0000
  H   H389      1.0  0.13525  0.43291  0.54162  1.0000
  H   H390      1.0  0.00870  0.24494  0.56632  1.0000
  C   C493      1.0  0.04954  0.42913  0.48223  1.0000
  C   C494      1.0  0.16953  0.47556  0.52088  1.0000
  Fe  Fe33      1.0  0.07861  0.46195  0.52040  1.0000
  C   C495      1.0  0.08931  0.39290  0.51690  1.0000
  H   H391      1.0  0.08304  0.37236  0.56019  1.0000
  H   H392      1.0  0.03422  0.35039  0.55084  1.0000
  C   C496      1.0  0.06499  0.26030  0.70535  1.0000
  C   C497      1.0  0.04122  0.24250  0.67640  1.0000
  H   H393      1.0  0.11752  0.43200  0.61373  1.0000
  H   H394      1.0  0.09210  0.34408  0.53053  1.0000
  H   H395      1.0  0.06551  0.37439  0.61647  1.0000
  H   H396      1.0  0.12683  0.36564  0.55936  1.0000
  H   H397      1.0  0.16928  0.47464  0.49818  1.0000
  C   C498      1.0  0.05502  0.27577  0.70245  1.0000
  H   H398      1.0  0.03595  0.38518  0.64447  1.0000
  H   H399      1.0  0.05669  0.25755  0.77745  1.0000
  H   H400      1.0  0.04705  0.41906  0.65750  1.0000
  C   C499      1.0  0.06020  0.41402  0.64625  1.0000
  H   H401      1.0  0.00079  0.42615  0.52786  1.0000
  H   H402      1.0  0.44577  0.27585  0.95394  1.0000
  H   H403      1.0  0.12097  0.32814  0.57584  1.0000
  H   H404      1.0  0.20645  0.43758  0.59515  1.0000
  C   C500      1.0  0.09339  0.34700  0.50664  1.0000
  H   H405      1.0  0.17441  0.42591  0.64121  1.0000
  C   C501      1.0  0.03957  0.34052  0.56640  1.0000
  H   H406      1.0  0.08797  0.44226  0.64248  1.0000
  C   C502      1.0  0.14985  0.47561  0.54044  1.0000
  C   C503      1.0  0.04442  0.33027  0.61636  1.0000
  C   C504      1.0  0.06118  0.28792  0.50773  1.0000
  C   C505      1.0  0.11390  0.36105  0.48672  1.0000
  H   H407      1.0  0.09344  0.36374  0.64939  1.0000
  H   H408      1.0  0.10123  0.30840  0.62878  1.0000
  H   H409      1.0  0.43991  0.45406  0.49085  1.0000
  H   H410      1.0  0.15954  0.41043  0.54597  1.0000
  C   C506      1.0  0.05392  0.31236  0.57894  1.0000
  H   H411      1.0  0.05978  0.30015  0.57324  1.0000
  H   H412      1.0  0.13478  0.40694  0.63971  1.0000
  C   C507      1.0  0.00339  0.45214  0.49258  1.0000
  H   H413      1.0  0.06025  0.28853  0.71276  1.0000
  C   C508      1.0  0.98042  0.27296  0.76814  1.0000
  H   H414      1.0  0.45603  0.24937  0.92380  1.0000
  H   H415      1.0  0.16947  0.47711  0.60332  1.0000
  H   H416      1.0  0.08720  0.32621  0.66519  1.0000
  H   H417      1.0  0.98243  0.37605  0.64459  1.0000
  C   C509      1.0  0.10237  0.41239  0.49731  1.0000
  C   C510      1.0  0.02494  0.32800  0.50767  1.0000
  C   C511      1.0  0.03785  0.27444  0.68696  1.0000
  C   C512      1.0  0.18908  0.47585  0.53119  1.0000
  H   H418      1.0  0.19877  0.42982  0.54774  1.0000
  C   C513      1.0  0.07465  0.33742  0.49567  1.0000
  C   C514      1.0  0.04701  0.32487  0.55805  1.0000
  C   C515      1.0  0.05239  0.31497  0.60805  1.0000
  S   S70       1.0  0.02418  0.29293  0.68606  1.0000
  H   H419      1.0  0.01383  0.32261  0.76435  1.0000
  H   H420      1.0  0.04260  0.33185  0.63920  1.0000
  C   C516      1.0  0.99497  0.46820  0.48387  1.0000
  C   C517      1.0  0.04037  0.25145  0.53334  1.0000
  C   C518      1.0  0.02912  0.34905  0.49426  1.0000
  C   C519      1.0  0.98572  0.31952  0.50227  1.0000
  H   H421      1.0  0.03133  0.35462  0.60211  1.0000
  P   P17       1.0  0.04737  0.32064  0.52107  1.0000
  C   C520      1.0  0.03808  0.34308  0.59551  1.0000
  H   H422      1.0  0.05650  0.30456  0.62461  1.0000
  C   C521      1.0  0.11919  0.42658  0.50618  1.0000
  H   H423      1.0  0.01207  0.28168  0.55870  1.0000
  C   C522      1.0  0.99011  0.34047  0.48901  1.0000
  C   C523      1.0  0.99010  0.35545  0.58466  1.0000
  Fe  Fe34      1.0  0.99427  0.28585  0.66481  1.0000
  C   C524      1.0  0.99721  0.28931  0.77388  1.0000
  C   C525      1.0  0.14982  0.47617  0.57019  1.0000
  C   C526      1.0  0.05395  0.39490  0.63887  1.0000
  C   C527      1.0  0.07071  0.38888  0.62290  1.0000
  S   S71       1.0  0.21367  0.47499  0.50775  1.0000
  S   S72       1.0  0.98250  0.33131  0.57537  1.0000
  C   C528      1.0  0.98628  0.31459  0.74264  1.0000
  C   C529      1.0  0.03931  0.24855  0.79075  1.0000
  C   C530      1.0  0.03127  0.25805  0.67339  1.0000
  H   H424      1.0  0.01580  0.40716  0.48649  1.0000
  C   C531      1.0  0.99386  0.43825  0.52105  1.0000
  C   C532      1.0  0.02078  0.25274  0.78204  1.0000
  H   H425      1.0  0.43451  0.24505  0.88489  1.0000
  C   C533      1.0  0.12307  0.42126  0.53454  1.0000
  C   C534      1.0  0.11089  0.40131  0.55374  1.0000
  C   C535      1.0  0.09357  0.38733  0.54501  1.0000
  P   P18       1.0  0.11486  0.39480  0.59105  1.0000
  C   C536      1.0  0.11007  0.36733  0.60296  1.0000
  C   C537      1.0  0.14400  0.40797  0.59245  1.0000
  C   C538      1.0  0.16240  0.41376  0.56691  1.0000
  C   C539      1.0  0.18481  0.42445  0.56795  1.0000
  C   C540      1.0  0.18913  0.42888  0.59467  1.0000
  C   C541      1.0  0.17106  0.42241  0.62052  1.0000
  C   C542      1.0  0.14860  0.41182  0.61951  1.0000
  C   C543      1.0  0.09933  0.35615  0.63300  1.0000
  C   C544      1.0  0.09606  0.33494  0.64217  1.0000
  C   C545      1.0  0.10393  0.32488  0.62160  1.0000
  C   C546      1.0  0.11491  0.33598  0.59175  1.0000
  C   C547      1.0  0.11807  0.35716  0.58246  1.0000
  C   C548      1.0  0.09390  0.40184  0.61440  1.0000
  C   C549      1.0  0.10001  0.42113  0.62159  1.0000
  C   C550      1.0  0.08323  0.42709  0.63774  1.0000
  H   H426      1.0  0.99749  0.24660  0.72840  1.0000
  C   C551      1.0  0.00045  0.31005  0.76060  1.0000
  C   C552      1.0  0.42550  0.23867  0.90841  1.0000
  H   H427      1.0  0.07626  0.29965  0.49194  1.0000
  H   H428      1.0  0.42877  0.41601  0.50986  1.0000
  H   H429      1.0  0.20413  0.47676  0.56888  1.0000
  H   H430      1.0  0.12856  0.44207  0.49147  1.0000
  C   C553      1.0  0.18903  0.47650  0.56089  1.0000
  H   H431      1.0  0.98870  0.33062  0.73232  1.0000
  H   H432      1.0  0.45790  0.46441  0.96677  1.0000
  H   H433      1.0  0.22395  0.23935  0.71477  1.0000
  C   C554      1.0  0.98154  0.35656  0.61375  1.0000
  C   C555      1.0  0.01175  0.35522  0.48517  1.0000
  H   H434      1.0  0.04560  0.36090  0.49154  1.0000
  C   C556      1.0  0.42896  0.42256  0.48690  1.0000
  H   H435      1.0  0.47454  0.43651  0.96441  1.0000
  S   S73       1.0  0.35474  0.53015  0.47343  1.0000
  H   H436      1.0  0.46612  0.52666  0.32998  1.0000
  C   C557      1.0  0.43427  0.56122  0.29763  1.0000
  C   C558      1.0  0.47602  0.52298  0.47454  1.0000
  H   H437      1.0  0.38932  0.62080  0.29094  1.0000
  Fe  Fe35      1.0  0.39021  0.55384  0.45228  1.0000
  S   S74       1.0  0.39940  0.57320  0.40501  1.0000
  C   C559      1.0  0.09697  0.53076  0.24714  1.0000
  S   S75       1.0  0.40824  0.62922  0.41257  1.0000
  Fe  Fe36      1.0  0.22100  0.52404  0.40999  1.0000
  S   S76       1.0  0.23340  0.51104  0.37243  1.0000
  S   S77       1.0  0.21728  0.55555  0.40271  1.0000
  H   H438      1.0  0.44582  0.51982  0.27930  1.0000
  C   C560      1.0  0.12134  0.61129  0.45880  1.0000
  H   H439      1.0  0.02628  0.59848  0.47390  1.0000
  C   C561      1.0  0.37477  0.69200  0.44223  1.0000
  C   C562      1.0  0.31402  0.51490  0.45832  1.0000
  H   H440      1.0  0.01307  0.52012  0.39604  1.0000
  C   C563      1.0  0.45814  0.73004  0.26694  1.0000
  C   C564      1.0  0.16282  0.67832  0.37239  1.0000
  Fe  Fe37      1.0  0.06775  0.57304  0.34358  1.0000
  S   S78       1.0  0.07578  0.60245  0.35900  1.0000
  S   S79       1.0  0.03647  0.56420  0.32566  1.0000
  Fe  Fe38      1.0  0.10873  0.56408  0.35923  1.0000
  S   S80       1.0  0.11980  0.59222  0.37695  1.0000
  S   S81       1.0  0.12767  0.54185  0.35581  1.0000
  Fe  Fe39      1.0  0.08237  0.58338  0.39819  1.0000
  Fe  Fe40      1.0  0.11239  0.60846  0.33610  1.0000
  S   S82       1.0  0.13861  0.63925  0.30867  1.0000
  S   S83       1.0  0.07166  0.55342  0.38456  1.0000
  S   S84       1.0  0.10377  0.58083  0.31668  1.0000
  C   C565      1.0  0.22698  0.67190  0.29804  1.0000
  C   C566      1.0  0.19293  0.55277  0.38868  1.0000
  C   C567      1.0  0.18253  0.56793  0.38741  1.0000
  C   C568      1.0  0.16259  0.56498  0.37693  1.0000
  C   C569      1.0  0.15312  0.54692  0.36775  1.0000
  C   C570      1.0  0.16403  0.53226  0.36814  1.0000
  C   C571      1.0  0.18377  0.53507  0.37875  1.0000
  H   H441      1.0  0.18959  0.58177  0.39484  1.0000
  H   H442      1.0  0.15459  0.57658  0.37613  1.0000
  H   H443      1.0  0.15699  0.51855  0.36056  1.0000
  H   H444      1.0  0.19175  0.52337  0.37936  1.0000
  C   C572      1.0  0.33798  0.52403  0.44786  1.0000
  C   C573      1.0  0.34829  0.52759  0.41734  1.0000
  C   C574      1.0  0.33467  0.52263  0.39727  1.0000
  C   C575      1.0  0.31065  0.51399  0.40761  1.0000
  C   C576      1.0  0.30038  0.50989  0.43825  1.0000
  C   C577      1.0  0.01535  0.54652  0.41416  1.0000
  H   H445      1.0  0.36678  0.53383  0.40928  1.0000
  H   H446      1.0  0.34273  0.52568  0.37366  1.0000
  H   H447      1.0  0.44351  0.62935  0.44318  1.0000
  C   C578      1.0  0.21925  0.61464  0.45648  1.0000
  H   H448      1.0  0.99689  0.54132  0.30916  1.0000
  H   H449      1.0  0.18011  0.67375  0.30142  1.0000
  H   H450      1.0  0.11757  0.63776  0.36891  1.0000
  H   H451      1.0  0.12512  0.48843  0.37010  1.0000
  H   H452      1.0  0.42362  0.67389  0.38812  1.0000
  C   C579      1.0  0.02626  0.53813  0.32411  1.0000
  C   C580      1.0  0.01328  0.60899  0.37711  1.0000
  C   C581      1.0  0.43817  0.48775  0.11681  1.0000
  C   C582      1.0  0.03642  0.48900  0.43335  1.0000
  C   C583      1.0  0.01157  0.52540  0.41644  1.0000
  C   C584      1.0  0.03815  0.52466  0.33131  1.0000
  C   C585      1.0  0.21215  0.59685  0.44585  1.0000
  C   C586      1.0  0.37291  0.48933  0.44853  1.0000
  H   H453      1.0  0.01939  0.55715  0.39227  1.0000
  H   H454      1.0  0.05373  0.53013  0.33860  1.0000
  H   H455      1.0  0.43920  0.50076  0.18280  1.0000
  H   H456      1.0  0.24292  0.67868  0.21190  1.0000
  C   C587      1.0  0.23367  0.69164  0.27842  1.0000
  H   H457      1.0  0.23408  0.70502  0.28736  1.0000
  C   C588      1.0  0.07625  0.65866  0.41841  1.0000
  Fe  Fe41      1.0  0.41566  0.59948  0.42429  1.0000
  H   H458      1.0  0.22201  0.67043  0.32189  1.0000
  S   S85       1.0  0.06954  0.58802  0.44320  1.0000
  H   H459      1.0  0.09726  0.52921  0.32001  1.0000
  C   C589      1.0  0.44712  0.64508  0.43047  1.0000
  H   H460      1.0  0.28193  0.50273  0.44660  1.0000
  C   C590      1.0  0.37259  0.67813  0.42403  1.0000
  C   C591      1.0  0.37450  0.65874  0.43403  1.0000
  H   H461      1.0  0.32971  0.73532  0.37821  1.0000
  P   P19       1.0  0.46684  0.67441  0.26679  1.0000
  H   H462      1.0  0.26248  0.60905  0.44318  1.0000
  C   C592      1.0  0.41172  0.52173  0.29027  1.0000
  S   S86       1.0  0.27553  0.72999  0.38019  1.0000
  H   H463      1.0  0.46988  0.70306  0.45529  1.0000
  H   H464      1.0  0.44797  0.51850  0.45378  1.0000
  H   H465      1.0  0.36975  0.68261  0.40203  1.0000
  H   H466      1.0  0.37308  0.64798  0.41992  1.0000
  C   C593      1.0  0.04865  0.62583  0.41813  1.0000
  H   H467      1.0  0.10148  0.49913  0.40468  1.0000
  H   H468      1.0  0.45481  0.63689  0.37201  1.0000
  C   C594      1.0  0.14792  0.65445  0.33295  1.0000
  C   C595      1.0  0.38692  0.50867  0.23054  1.0000
  H   H469      1.0  0.45068  0.59794  0.34174  1.0000
  H   H470      1.0  0.13045  0.65917  0.40365  1.0000
  C   C596      1.0  0.28097  0.62243  0.29007  1.0000
  C   C597      1.0  0.27902  0.60574  0.31338  1.0000
  C   C598      1.0  0.25886  0.59655  0.33649  1.0000
  C   C599      1.0  0.24066  0.60398  0.33631  1.0000
  C   C600      1.0  0.24224  0.62047  0.31273  1.0000
  C   C601      1.0  0.26263  0.62973  0.28964  1.0000
  P   P20       1.0  0.21780  0.62879  0.31193  1.0000
  C   C602      1.0  0.19623  0.61074  0.29968  1.0000
  C   C603      1.0  0.20574  0.63000  0.34926  1.0000
  C   C604      1.0  0.18199  0.62526  0.35960  1.0000
  C   C605      1.0  0.17299  0.62803  0.38744  1.0000
  C   C606      1.0  0.18755  0.63573  0.40503  1.0000
  C   C607      1.0  0.21121  0.64046  0.39486  1.0000
  C   C608      1.0  0.22032  0.63749  0.36719  1.0000
  C   C609      1.0  0.18100  0.61773  0.28584  1.0000
  C   C610      1.0  0.16328  0.60372  0.27801  1.0000
  C   C611      1.0  0.16052  0.58259  0.28407  1.0000
  C   C612      1.0  0.17561  0.57552  0.29772  1.0000
  C   C613      1.0  0.19341  0.58947  0.30554  1.0000
  C   C614      1.0  0.22642  0.65445  0.28680  1.0000
  C   C615      1.0  0.23203  0.65702  0.25556  1.0000
  H   H471      1.0  0.29660  0.62958  0.27217  1.0000
  H   H472      1.0  0.29302  0.59982  0.31354  1.0000
  H   H473      1.0  0.25712  0.58348  0.35456  1.0000
  H   H474      1.0  0.22521  0.59664  0.35444  1.0000
  H   H475      1.0  0.26451  0.64256  0.27131  1.0000
  H   H476      1.0  0.17037  0.61997  0.34597  1.0000
  H   H477      1.0  0.15473  0.62481  0.39489  1.0000
  H   H478      1.0  0.18057  0.63848  0.42619  1.0000
  H   H479      1.0  0.22256  0.64711  0.40803  1.0000
  H   H480      1.0  0.23877  0.64180  0.35936  1.0000
  H   H481      1.0  0.18211  0.63387  0.28221  1.0000
  H   H482      1.0  0.15106  0.60917  0.26852  1.0000
  H   H483      1.0  0.14611  0.57153  0.27941  1.0000
  H   H484      1.0  0.17262  0.55896  0.30381  1.0000
  H   H485      1.0  0.20414  0.58334  0.31727  1.0000
  H   H486      1.0  0.23107  0.64366  0.24643  1.0000
  H   H487      1.0  0.41688  0.65468  0.29078  1.0000
  C   C616      1.0  0.01094  0.59768  0.35541  1.0000
  S   S87       1.0  0.17144  0.69326  0.39729  1.0000
  C   C617      1.0  0.15184  0.73577  0.43998  1.0000
  C   C618      1.0  0.46521  0.71289  0.27246  1.0000
  S   S88       1.0  0.40443  0.58053  0.47211  1.0000
  H   H488      1.0  0.44426  0.60613  0.24202  1.0000
  C   C619      1.0  0.44645  0.65006  0.26557  1.0000
  C   C620      1.0  0.44691  0.54885  0.28950  1.0000
  C   C621      1.0  0.13401  0.65028  0.36181  1.0000
  H   H489      1.0  0.41256  0.51339  0.15775  1.0000
  H   H490      1.0  0.04529  0.61039  0.41453  1.0000
  C   C622      1.0  0.12425  0.53270  0.43845  1.0000
  H   H491      1.0  0.11479  0.53336  0.42140  1.0000
  S   S89       1.0  0.19184  0.49440  0.43548  1.0000
  C   C623      1.0  0.03025  0.50421  0.32809  1.0000
  C   C624      1.0  0.45860  0.65502  0.32769  1.0000
  C   C625      1.0  0.10284  0.52846  0.29709  1.0000
  C   C626      1.0  0.12215  0.52292  0.28858  1.0000
  C   C627      1.0  0.12915  0.52147  0.25908  1.0000
  C   C628      1.0  0.11608  0.52498  0.23861  1.0000
  P   P21       1.0  0.15341  0.51342  0.24800  1.0000
  C   C629      1.0  0.16706  0.52604  0.20868  1.0000
  C   C630      1.0  0.17418  0.52137  0.26956  1.0000
  C   C631      1.0  0.19225  0.54073  0.25914  1.0000
  C   C632      1.0  0.20848  0.54646  0.27569  1.0000
  C   C633      1.0  0.20684  0.53293  0.30271  1.0000
  Fe  Fe42      1.0  0.21792  0.48726  0.45834  1.0000
  C   C634      1.0  0.17258  0.50803  0.29691  1.0000
  C   C635      1.0  0.17574  0.51536  0.18955  1.0000
  C   C636      1.0  0.18602  0.52520  0.15910  1.0000
  C   C637      1.0  0.18776  0.54576  0.14753  1.0000
  C   C638      1.0  0.17927  0.55654  0.16644  1.0000
  C   C639      1.0  0.16899  0.54675  0.19690  1.0000
  C   C640      1.0  0.38479  0.48983  0.47097  1.0000
  C   C641      1.0  0.46829  0.66045  0.42731  1.0000
  H   H492      1.0  0.36643  0.59817  0.41504  1.0000
  H   H493      1.0  0.09396  0.66861  0.41490  1.0000
  C   C642      1.0  0.00748  0.51162  0.44450  1.0000
  H   H494      1.0  0.23595  0.62657  0.44598  1.0000
  H   H495      1.0  0.31456  0.61673  0.45990  1.0000
  H   H496      1.0  0.08524  0.63302  0.40719  1.0000
  H   H497      1.0  0.13117  0.51932  0.30532  1.0000
  H   H498      1.0  0.12048  0.52303  0.21616  1.0000
  H   H499      1.0  0.19380  0.55154  0.23848  1.0000
  H   H500      1.0  0.22215  0.56151  0.26783  1.0000
  H   H501      1.0  0.21915  0.53739  0.31586  1.0000
  H   H502      1.0  0.40075  0.56372  0.30799  1.0000
  H   H503      1.0  0.46475  0.50774  0.13213  1.0000
  H   H504      1.0  0.02686  0.62405  0.37120  1.0000
  H   H505      1.0  0.19257  0.51682  0.14443  1.0000
  H   H506      1.0  0.19564  0.55332  0.12391  1.0000
  H   H507      1.0  0.18056  0.57247  0.15750  1.0000
  H   H508      1.0  0.16250  0.55533  0.21129  1.0000
  C   C643      1.0  0.32785  0.71939  0.38827  1.0000
  C   C644      1.0  0.43137  0.64971  0.41550  1.0000
  C   C645      1.0  0.09047  0.53265  0.27631  1.0000
  S   S90       1.0  0.23390  0.69302  0.36821  1.0000
  C   C646      1.0  0.13266  0.59696  0.46283  1.0000
  Fe  Fe43      1.0  0.25605  0.50268  0.40088  1.0000
  C   C647      1.0  0.23965  0.69413  0.24742  1.0000
  H   H509      1.0  0.04387  0.49058  0.47641  1.0000
  H   H510      1.0  0.08695  0.53349  0.23136  1.0000
  H   H511      1.0  0.32697  0.70980  0.34764  1.0000
  C   C648      1.0  0.01199  0.54064  0.46759  1.0000
  H   H512      1.0  0.18774  0.50318  0.33412  1.0000
  H   H513      1.0  0.02301  0.60367  0.33342  1.0000
  C   C649      1.0  0.18902  0.51366  0.31312  1.0000
  C   C650      1.0  0.16936  0.67056  0.32377  1.0000
  C   C651      1.0  0.17697  0.68233  0.34365  1.0000
  H   H514      1.0  0.24475  0.70948  0.23235  1.0000
  C   C652      1.0  0.28205  0.68459  0.31301  1.0000
  S   S91       1.0  0.22435  0.71097  0.42822  1.0000
  C   C653      1.0  0.06941  0.49477  0.39266  1.0000
  H   H515      1.0  0.99200  0.56944  0.34541  1.0000
  S   S92       1.0  0.45041  0.59603  0.41514  1.0000
  C   C654      1.0  0.41051  0.55417  0.30137  1.0000
  C   C655      1.0  0.37989  0.68696  0.46983  1.0000
  H   H516      1.0  0.28512  0.68992  0.26551  1.0000
  H   H517      1.0  0.37928  0.51860  0.18837  1.0000
  S   S93       1.0  0.29386  0.50906  0.38172  1.0000
  C   C656      1.0  0.32704  0.71352  0.41864  1.0000
  C   C657      1.0  0.43571  0.52916  0.28575  1.0000
  C   C658      1.0  0.99345  0.57831  0.36217  1.0000
  H   H518      1.0  0.44618  0.51496  0.38374  1.0000
  C   C659      1.0  0.39930  0.53468  0.29713  1.0000
  H   H519      1.0  0.47501  0.56704  0.41129  1.0000
  C   C660      1.0  0.46081  0.49977  0.11493  1.0000
  C   C661      1.0  0.33514  0.58789  0.45005  1.0000
  C   C662      1.0  0.99799  0.51043  0.31216  1.0000
  C   C663      1.0  0.14130  0.66238  0.38138  1.0000
  H   H520      1.0  0.37255  0.51135  0.24357  1.0000
  C   C664      1.0  0.43589  0.67022  0.39950  1.0000
  C   C665      1.0  0.43831  0.61688  0.25234  1.0000
  C   C666      1.0  0.23872  0.67680  0.23596  1.0000
  Fe  Fe44      1.0  0.25003  0.69851  0.40623  1.0000
  H   H521      1.0  0.44281  0.57614  0.30154  1.0000
  H   H522      1.0  0.07562  0.53706  0.28295  1.0000
  H   H523      1.0  0.19356  0.69470  0.33662  1.0000
  Fe  Fe45      1.0  0.25696  0.72582  0.34416  1.0000
  H   H524      1.0  0.06204  0.68110  0.43145  1.0000
  H   H525      1.0  0.26753  0.68979  0.31718  1.0000
  C   C667      1.0  0.46089  0.51239  0.45952  1.0000
  H   H526      1.0  0.43147  0.68209  0.23747  1.0000
  C   C668      1.0  0.98078  0.58127  0.41265  1.0000
  H   H527      1.0  0.12345  0.62059  0.43652  1.0000
  H   H528      1.0  0.40288  0.59649  0.26643  1.0000
  Fe  Fe46      1.0  0.43796  0.57488  0.46167  1.0000
  Fe  Fe47      1.0  0.43268  0.56736  0.40128  1.0000
  C   C669      1.0  0.29106  0.67831  0.33674  1.0000
  C   C670      1.0  0.31072  0.67272  0.33124  1.0000
  C   C671      1.0  0.32035  0.67224  0.30201  1.0000
  P   P22       1.0  0.32280  0.66571  0.36193  1.0000
  C   C672      1.0  0.30563  0.63890  0.38121  1.0000
  C   C673      1.0  0.35292  0.66946  0.34887  1.0000
  C   C674      1.0  0.36215  0.65473  0.36091  1.0000
  C   C675      1.0  0.38588  0.65882  0.35270  1.0000
  C   C676      1.0  0.40059  0.67773  0.33286  1.0000
  C   C677      1.0  0.39156  0.69247  0.32090  1.0000
  C   C678      1.0  0.36786  0.68843  0.32896  1.0000
  C   C679      1.0  0.30862  0.62282  0.36853  1.0000
  C   C680      1.0  0.29519  0.60201  0.38283  1.0000
  C   C681      1.0  0.27851  0.59708  0.40970  1.0000
  C   C682      1.0  0.27533  0.61296  0.42231  1.0000
  C   C683      1.0  0.28837  0.63383  0.40780  1.0000
  C   C684      1.0  0.32313  0.68405  0.38463  1.0000
  C   C685      1.0  0.29210  0.68475  0.28380  1.0000
  C   C686      1.0  0.45720  0.68566  0.39627  1.0000
  H   H529      1.0  0.26778  0.58095  0.42052  1.0000
  C   C687      1.0  0.32457  0.69306  0.43207  1.0000
  C   C688      1.0  0.32275  0.67839  0.41508  1.0000
  C   C689      1.0  0.42299  0.64441  0.27953  1.0000
  H   H530      1.0  0.28302  0.67837  0.35929  1.0000
  H   H531      1.0  0.33506  0.66734  0.29746  1.0000
  H   H532      1.0  0.35131  0.64043  0.37749  1.0000
  H   H533      1.0  0.39298  0.64760  0.36253  1.0000
  H   H534      1.0  0.41903  0.68110  0.32732  1.0000
  H   H535      1.0  0.40300  0.70729  0.30603  1.0000
  H   H536      1.0  0.36124  0.70035  0.32037  1.0000
  H   H537      1.0  0.32123  0.62639  0.34748  1.0000
  H   H538      1.0  0.29747  0.58964  0.37300  1.0000
  C   C690      1.0  0.32604  0.70479  0.37122  1.0000
  S   S94       1.0  0.25701  0.67185  0.43318  1.0000
  H   H539      1.0  0.28467  0.64588  0.41723  1.0000
  H   H540      1.0  0.37304  0.70693  0.43457  1.0000
  H   H541      1.0  0.18226  0.72855  0.42569  1.0000
  C   C691      1.0  0.45402  0.63607  0.25214  1.0000
  H   H542      1.0  0.32381  0.68864  0.45577  1.0000
  H   H543      1.0  0.32137  0.66276  0.42556  1.0000
  C   C692      1.0  0.40734  0.62517  0.27980  1.0000
  C   C693      1.0  0.37921  0.65344  0.46185  1.0000
  S   S95       1.0  0.45086  0.55731  0.36418  1.0000
  H   H544      1.0  0.28437  0.55286  0.44831  1.0000
  S   S96       1.0  0.42226  0.54594  0.44713  1.0000
  C   C694      1.0  0.12759  0.54797  0.45441  1.0000
  C   C695      1.0  0.41499  0.61143  0.26613  1.0000
  H   H545      1.0  0.41936  0.49121  0.33449  1.0000
  C   C696      1.0  0.34835  0.58872  0.42214  1.0000
  C   C697      1.0  0.30206  0.56322  0.44131  1.0000
  C   C698      1.0  0.31534  0.56410  0.41343  1.0000
  C   C699      1.0  0.33851  0.57674  0.40391  1.0000
  H   H546      1.0  0.35473  0.72860  0.26643  1.0000
  C   C700      1.0  0.31112  0.67838  0.27832  1.0000
  H   H547      1.0  0.27711  0.71188  0.44419  1.0000
  C   C701      1.0  0.43125  0.71225  0.24137  1.0000
  C   C702      1.0  0.40955  0.51006  0.18197  1.0000
  H   H548      1.0  0.44170  0.64567  0.32693  1.0000
  C   C703      1.0  0.01555  0.55414  0.43972  1.0000
  C   C704      1.0  0.47379  0.67079  0.30271  1.0000
  H   H549      1.0  0.30776  0.55444  0.39962  1.0000
  H   H550      1.0  0.34897  0.57680  0.38281  1.0000
  C   C705      1.0  0.40610  0.48708  0.46618  1.0000
  C   C706      1.0  0.26796  0.67900  0.46302  1.0000
  S   S97       1.0  0.24570  0.51819  0.43602  1.0000
  H   H551      1.0  0.15861  0.49324  0.30574  1.0000
  Fe  Fe48      1.0  0.20976  0.70751  0.38845  1.0000
  C   C707      1.0  0.06534  0.56777  0.47436  1.0000
  C   C708      1.0  0.45531  0.69520  0.26268  1.0000
  C   C709      1.0  0.43852  0.69511  0.24661  1.0000
  H   H552      1.0  0.22337  0.59470  0.42718  1.0000
  C   C710      1.0  0.46767  0.51317  0.34400  1.0000
  C   C711      1.0  0.31180  0.57516  0.45987  1.0000
  C   C712      1.0  0.45637  0.50648  0.37452  1.0000
  C   C713      1.0  0.05825  0.66566  0.42771  1.0000
  C   C714      1.0  0.19023  0.58189  0.45881  1.0000
  C   C715      1.0  0.07141  0.63872  0.41379  1.0000
  H   H553      1.0  0.31876  0.67836  0.25568  1.0000
  C   C716      1.0  0.00610  0.53094  0.31475  1.0000
  H   H554      1.0  0.46114  0.70127  0.38298  1.0000
  P   P23       1.0  0.00107  0.61543  0.43417  1.0000
  H   H555      1.0  0.03995  0.49412  0.33250  1.0000
  C   C717      1.0  0.03541  0.65271  0.43235  1.0000
  C   C718      1.0  0.27728  0.70003  0.46256  1.0000
  H   H556      1.0  0.43504  0.71693  0.35644  1.0000
  H   H557      1.0  0.01964  0.57066  0.43764  1.0000
  C   C719      1.0  0.46291  0.49447  0.45147  1.0000
  H   H558      1.0  0.07655  0.54785  0.44964  1.0000
  C   C720      1.0  0.01011  0.49707  0.31861  1.0000
  C   C721      1.0  0.47402  0.48978  0.06968  1.0000
  H   H559      1.0  0.02181  0.65843  0.43979  1.0000
  C   C722      1.0  0.99197  0.59749  0.47101  1.0000
  H   H560      1.0  0.13062  0.50486  0.43186  1.0000
  H   H561      1.0  0.14415  0.59577  0.44357  1.0000
  H   H562      1.0  0.35640  0.49146  0.45239  1.0000
  C   C723      1.0  0.03045  0.63271  0.42732  1.0000
  C   C724      1.0  0.13318  0.51672  0.44426  1.0000
  H   H563      1.0  0.38093  0.52976  0.29944  1.0000
  H   H564      1.0  0.41952  0.71842  0.40810  1.0000
  H   H565      1.0  0.07681  0.49608  0.36928  1.0000
  H   H566      1.0  0.41841  0.71220  0.22881  1.0000
  C   C725      1.0  0.42090  0.49898  0.22713  1.0000
  C   C726      1.0  0.44111  0.72974  0.25150  1.0000
  C   C727      1.0  0.39079  0.51296  0.19925  1.0000
  C   C728      1.0  0.40166  0.50118  0.24476  1.0000
  H   H567      1.0  0.12028  0.55996  0.44954  1.0000
  H   H568      1.0  0.43319  0.49412  0.23729  1.0000
  H   H569      1.0  0.32784  0.72481  0.43184  1.0000
  H   H570      1.0  0.42443  0.48627  0.13558  1.0000
  C   C729      1.0  0.41714  0.72835  0.38912  1.0000
  C   C730      1.0  0.46590  0.64999  0.35360  1.0000
  C   C731      1.0  0.42604  0.72763  0.35996  1.0000
  C   C732      1.0  0.36075  0.48974  0.33373  1.0000
  C   C733      1.0  0.47375  0.68050  0.40918  1.0000
  C   C734      1.0  0.98261  0.63077  0.43198  1.0000
  H   H571      1.0  0.98249  0.50498  0.30474  1.0000
  H   H572      1.0  0.47206  0.63977  0.24183  1.0000
  S   S98       1.0  0.35778  0.73238  0.47110  1.0000
  P   P24       1.0  0.39731  0.49647  0.28497  1.0000
  H   H573      1.0  0.17452  0.49942  0.19798  1.0000
  C   C735      1.0  0.42459  0.50307  0.19595  1.0000
  H   H574      1.0  0.38154  0.63867  0.46837  1.0000
  H   H575      1.0  0.34337  0.59672  0.46427  1.0000
  H   H576      1.0  0.15163  0.50316  0.47135  1.0000
  H   H577      1.0  0.45146  0.73050  0.45029  1.0000
  C   C736      1.0  0.36730  0.48664  0.30506  1.0000
  H   H578      1.0  0.03537  0.49017  0.38716  1.0000
  C   C737      1.0  0.06994  0.54964  0.47159  1.0000
  H   H579      1.0  0.46541  0.55437  0.28653  1.0000
  H   H580      1.0  0.18502  0.56841  0.44985  1.0000
  C   C738      1.0  0.14521  0.51583  0.46640  1.0000
  C   C739      1.0  0.99835  0.60077  0.40607  1.0000
  C   C740      1.0  0.08341  0.49657  0.41263  1.0000
  H   H581      1.0  0.37352  0.49797  0.34405  1.0000
  C   C741      1.0  0.45819  0.48902  0.39291  1.0000
  H   H582      1.0  0.46320  0.61539  0.47528  1.0000
  C   C742      1.0  0.45902  0.69039  0.47456  1.0000
  H   H583      1.0  0.32371  0.65040  0.47361  1.0000
  H   H584      1.0  0.14204  0.72008  0.45367  1.0000
  C   C743      1.0  0.97836  0.57012  0.39075  1.0000
  C   C744      1.0  0.07409  0.49516  0.44273  1.0000
  H   H585      1.0  0.08487  0.49656  0.45830  1.0000
  H   H586      1.0  0.98242  0.63172  0.38544  1.0000
  C   C745      1.0  0.00829  0.51952  0.46995  1.0000
  H   H587      1.0  0.03029  0.49832  0.20920  1.0000
  H   H588      1.0  0.46962  0.57971  0.22740  1.0000
  C   C746      1.0  0.46824  0.59831  0.33609  1.0000
  C   C747      1.0  0.14003  0.54740  0.47632  1.0000
  H   H589      1.0  0.42770  0.69337  0.46646  1.0000
  C   C748      1.0  0.04597  0.49119  0.40293  1.0000
  C   C749      1.0  0.05072  0.49149  0.45306  1.0000
  H   H590      1.0  0.46749  0.48711  0.00083  1.0000
  C   C750      1.0  0.47316  0.58008  0.34297  1.0000
  S   S99       1.0  0.27579  0.73557  0.29531  1.0000
  H   H591      1.0  0.97965  0.63359  0.47774  1.0000
  H   H592      1.0  0.00734  0.50972  0.49134  1.0000
  C   C751      1.0  0.24826  0.69113  0.57641  1.0000
  C   C752      1.0  0.28842  0.70583  0.48462  1.0000
  H   H593      1.0  0.34454  0.57447  0.56902  1.0000
  C   C753      1.0  0.25179  0.57684  0.50009  1.0000
  H   H594      1.0  0.46316  0.65444  0.53117  1.0000
  C   C754      1.0  0.26840  0.66369  0.48670  1.0000
  H   H595      1.0  0.26781  0.54585  0.55628  1.0000
  C   C755      1.0  0.18250  0.60262  0.49296  1.0000
  Fe  Fe49      1.0  0.33255  0.72934  0.51321  1.0000
  C   C756      1.0  0.11690  0.53959  0.54954  1.0000
  C   C757      1.0  0.20449  0.61750  0.48007  1.0000
  H   H596      1.0  0.29664  0.72214  0.48323  1.0000
  C   C758      1.0  0.35331  0.59102  0.55891  1.0000
  H   H597      1.0  0.17454  0.56382  0.53895  1.0000
  C   C759      1.0  0.21501  0.73270  0.58327  1.0000
  S   S100      1.0  0.05065  0.51647  0.55886  1.0000
  H   H598      1.0  0.33534  0.55998  0.49872  1.0000
  H   H599      1.0  0.10324  0.53827  0.53807  1.0000
  C   C760      1.0  0.11445  0.58634  0.51618  1.0000
  C   C761      1.0  0.43131  0.65725  0.52377  1.0000
  P   P25       1.0  0.39033  0.66147  0.51455  1.0000
  H   H600      1.0  0.21827  0.57938  0.50356  1.0000
  H   H601      1.0  0.27567  0.52079  0.59367  1.0000
  C   C762      1.0  0.28875  0.52963  0.57308  1.0000
  H   H602      1.0  0.34272  0.53498  0.53618  1.0000
  C   C763      1.0  0.21605  0.69246  0.55572  1.0000
  H   H603      1.0  0.17133  0.71149  0.64722  1.0000
  H   H604      1.0  0.32972  0.60011  0.58802  1.0000
  H   H605      1.0  0.12582  0.51697  0.61492  1.0000
  C   C764      1.0  0.27863  0.66950  0.50951  1.0000
  H   H606      1.0  0.26099  0.64740  0.48730  1.0000
  C   C765      1.0  0.12904  0.58413  0.49148  1.0000
  C   C766      1.0  0.28434  0.54382  0.55171  1.0000
  H   H607      1.0  0.27879  0.65768  0.52789  1.0000
  H   H608      1.0  0.04557  0.55582  0.55028  1.0000
  C   C767      1.0  0.38447  0.61926  0.52217  1.0000
  S   S101      1.0  0.46254  0.57292  0.49094  1.0000
  C   C768      1.0  0.05670  0.56994  0.50273  1.0000
  H   H609      1.0  0.41478  0.48712  0.48412  1.0000
  H   H610      1.0  0.05361  0.58410  0.50487  1.0000
  H   H611      1.0  0.11158  0.57703  0.53864  1.0000
  H   H612      1.0  0.29803  0.61844  0.56693  1.0000
  H   H613      1.0  0.31311  0.51526  0.58387  1.0000
  H   H614      1.0  0.25469  0.66226  0.58115  1.0000
  C   C769      1.0  0.30204  0.61794  0.54364  1.0000
  C   C770      1.0  0.39867  0.68646  0.55468  1.0000
  C   C771      1.0  0.39302  0.69859  0.57344  1.0000
  C   C772      1.0  0.37164  0.70111  0.57720  1.0000
  C   C773      1.0  0.35592  0.69156  0.56214  1.0000
  C   C774      1.0  0.36160  0.67963  0.54311  1.0000
  C   C775      1.0  0.30102  0.55502  0.52462  1.0000
  H   H615      1.0  0.36739  0.71078  0.59135  1.0000
  H   H616      1.0  0.33949  0.69382  0.56470  1.0000
  S   S102      1.0  0.30494  0.69781  0.53410  1.0000
  C   C776      1.0  0.06585  0.53371  0.49749  1.0000
  C   C777      1.0  0.10669  0.61323  0.48341  1.0000
  H   H617      1.0  0.47429  0.53682  0.48070  1.0000
  H   H618      1.0  0.40537  0.70629  0.58471  1.0000
  C   C778      1.0  0.25333  0.54240  0.50089  1.0000
  C   C779      1.0  0.42109  0.66796  0.50533  1.0000
  P   P26       1.0  0.14574  0.56734  0.49646  1.0000
  C   C780      1.0  0.30244  0.59802  0.50609  1.0000
  H   H619      1.0  0.26274  0.53172  0.50037  1.0000
  H   H620      1.0  0.01306  0.57365  0.52380  1.0000
  C   C781      1.0  0.30982  0.52652  0.56760  1.0000
  H   H621      1.0  0.24985  0.71959  0.50702  1.0000
  C   C782      1.0  0.29764  0.59878  0.53628  1.0000
  H   H622      1.0  0.20556  0.70096  0.54771  1.0000
  C   C783      1.0  0.18146  0.72174  0.62549  1.0000
  C   C784      1.0  0.05231  0.55403  0.52836  1.0000
  H   H623      1.0  0.09175  0.60216  0.53113  1.0000
  C   C785      1.0  0.20174  0.71942  0.61142  1.0000
  C   C786      1.0  0.22812  0.56913  0.50258  1.0000
  H   H624      1.0  0.06950  0.51974  0.49553  1.0000
  P   P27       1.0  0.24133  0.72953  0.56612  1.0000
  C   C787      1.0  0.05682  0.53590  0.52585  1.0000
  C   C788      1.0  0.15695  0.55395  0.54996  1.0000
  C   C789      1.0  0.37603  0.63392  0.53247  1.0000
  H   H625      1.0  0.34948  0.67287  0.53098  1.0000
  H   H626      1.0  0.38291  0.69856  0.48264  1.0000
  H   H627      1.0  0.42089  0.64459  0.54319  1.0000
  H   H628      1.0  0.22118  0.51863  0.50387  1.0000
  C   C790      1.0  0.21713  0.54820  0.50377  1.0000
  C   C791      1.0  0.11198  0.52691  0.57847  1.0000
  C   C792      1.0  0.13937  0.55331  0.53517  1.0000
  H   H629      1.0  0.22209  0.64511  0.56105  1.0000
  H   H630      1.0  0.17092  0.60531  0.51063  1.0000
  H   H631      1.0  0.09751  0.62397  0.48005  1.0000
  C   C793      1.0  0.22973  0.53486  0.50298  1.0000
  H   H632      1.0  0.19748  0.66455  0.54456  1.0000
  H   H633      1.0  0.31472  0.65133  0.52664  1.0000
  H   H634      1.0  0.01341  0.54672  0.48710  1.0000
  C   C794      1.0  0.00068  0.57791  0.51317  1.0000
  C   C795      1.0  0.15201  0.54105  0.57882  1.0000
  H   H635      1.0  0.29017  0.58461  0.55420  1.0000
  C   C796      1.0  0.45521  0.66293  0.51731  1.0000
  C   C797      1.0  0.23461  0.70231  0.56678  1.0000
  C   C798      1.0  0.12955  0.52751  0.59303  1.0000
  H   H636      1.0  0.15800  0.53009  0.49950  1.0000
  H   H637      1.0  0.30594  0.51180  0.48195  1.0000
  H   H638      1.0  0.19886  0.54223  0.50527  1.0000
  Fe  Fe50      1.0  0.06153  0.48906  0.55516  1.0000
  S   S103      1.0  0.09679  0.49130  0.53216  1.0000
  C   C799      1.0  0.21147  0.67185  0.55383  1.0000
  H   H639      1.0  0.37971  0.58671  0.52733  1.0000
  P   P28       1.0  0.29511  0.57310  0.49683  1.0000
  H   H640      1.0  0.39982  0.62428  0.50385  1.0000
  C   C800      1.0  0.32220  0.55189  0.51944  1.0000
  C   C801      1.0  0.38298  0.67687  0.53931  1.0000
  C   C802      1.0  0.34496  0.60547  0.56955  1.0000
  C   C803      1.0  0.35622  0.62683  0.55638  1.0000
  H   H641      1.0  0.34934  0.63767  0.56494  1.0000
  H   H642      1.0  0.16566  0.54103  0.58990  1.0000
  C   C804      1.0  0.31152  0.63648  0.52097  1.0000
  C   C805      1.0  0.22530  0.66090  0.56314  1.0000
  C   C806      1.0  0.37310  0.59792  0.53534  1.0000
  C   C807      1.0  0.10337  0.60087  0.51210  1.0000
  H   H643      1.0  0.26283  0.69827  0.58471  1.0000
  C   C808      1.0  0.17518  0.58475  0.48233  1.0000
  H   H644      1.0  0.20993  0.63159  0.48768  1.0000
  C   C809      1.0  0.26459  0.56349  0.49931  1.0000
  H   H645      1.0  0.09464  0.51609  0.58913  1.0000
  C   C810      1.0  0.28929  0.69060  0.50798  1.0000
  C   C811      1.0  0.32653  0.53768  0.54084  1.0000
  H   H646      1.0  0.25989  0.59314  0.49899  1.0000
  H   H647      1.0  0.20721  0.70737  0.62253  1.0000
  H   H648      1.0  0.41542  0.68493  0.55195  1.0000
  C   C812      1.0  0.24359  0.67051  0.57458  1.0000
  C   C813      1.0  0.14870  0.53112  0.48233  1.0000
  H   H649      1.0  0.28949  0.73313  0.55508  1.0000
  C   C814      1.0  0.46900  0.67938  0.49260  1.0000
  C   C815      1.0  0.31636  0.63592  0.49093  1.0000
  H   H650      1.0  0.37747  0.49257  0.49199  1.0000
  C   C816      1.0  0.38181  0.66746  0.48012  1.0000
  C   C817      1.0  0.43511  0.68468  0.48079  1.0000
  C   C818      1.0  0.00806  0.59207  0.48488  1.0000
  C   C819      1.0  0.31148  0.61679  0.48339  1.0000
  C   C820      1.0  0.47639  0.61508  0.48698  1.0000
  C   C821      1.0  0.40537  0.81232  0.30152  1.0000
  H   H651      1.0  0.41396  0.78400  0.24388  1.0000
  H   H652      1.0  0.23747  0.81464  0.16418  1.0000
  H   H653      1.0  0.28632  0.80914  0.33927  1.0000
  Fe  Fe51      1.0  0.35570  0.90287  0.26373  1.0000
  H   H654      1.0  0.34221  0.94503  0.32502  1.0000
  H   H655      1.0  0.40175  0.84252  0.29515  1.0000
  C   C822      1.0  0.41539  0.79905  0.31566  1.0000
  C   C823      1.0  0.20708  0.75585  0.29723  1.0000
  H   H656      1.0  0.47435  0.74520  0.39752  1.0000
  C   C824      1.0  0.32537  0.81477  0.42846  1.0000
  C   C825      1.0  0.42571  0.91483  0.31610  1.0000
  C   C826      1.0  0.42830  0.93521  0.31790  1.0000
  H   H657      1.0  0.43917  0.79673  0.34301  1.0000
  C   C827      1.0  0.19506  0.84957  0.43939  1.0000
  H   H658      1.0  0.31245  0.80724  0.30349  1.0000
  C   C828      1.0  0.35749  0.73900  0.28104  1.0000
  H   H659      1.0  0.35181  0.82233  0.45143  1.0000
  H   H660      1.0  0.39504  0.76676  0.37344  1.0000
  C   C829      1.0  0.26895  0.80883  0.34555  1.0000
  C   C830      1.0  0.36420  0.76555  0.31922  1.0000
  C   C831      1.0  0.29731  0.77138  0.25055  1.0000
  C   C832      1.0  0.33785  0.96562  0.26540  1.0000
  Fe  Fe52      1.0  0.31352  0.87817  0.31481  1.0000
  H   H661      1.0  0.31292  0.79957  0.21495  1.0000
  H   H662      1.0  0.23653  0.81656  0.46931  1.0000
  C   C833      1.0  0.43548  0.77266  0.43304  1.0000
  C   C834      1.0  0.44898  0.78140  0.40341  1.0000
  H   H663      1.0  0.44125  0.97035  0.15790  1.0000
  H   H664      1.0  0.44836  0.79572  0.39059  1.0000
  H   H665      1.0  0.21602  0.74589  0.45177  1.0000
  H   H666      1.0  0.37135  0.88335  0.38877  1.0000
  C   C835      1.0  0.36739  0.95408  0.24109  1.0000
  C   C836      1.0  0.25160  0.79570  0.33613  1.0000
  C   C837      1.0  0.19008  0.81441  0.43526  1.0000
  C   C838      1.0  0.19770  0.85605  0.40848  1.0000
  H   H667      1.0  0.28693  0.77982  0.44808  1.0000
  Fe  Fe53      1.0  0.35847  0.87106  0.31521  1.0000
  H   H668      1.0  0.24719  0.86215  0.45120  1.0000
  H   H669      1.0  0.43984  0.87271  0.40611  1.0000
  H   H670      1.0  0.41249  0.91701  0.24856  1.0000
  C   C839      1.0  0.22395  0.81971  0.17401  1.0000
  C   C840      1.0  0.18741  0.76069  0.40651  1.0000
  H   H671      1.0  0.29114  0.76906  0.32492  1.0000
  C   C841      1.0  0.40373  0.75591  0.36934  1.0000
  C   C842      1.0  0.37952  0.74813  0.28484  1.0000
  H   H672      1.0  0.44635  0.83195  0.35082  1.0000
  S   S104      1.0  0.32266  0.84926  0.32097  1.0000
  C   C843      1.0  0.42538  0.94923  0.29449  1.0000
  S   S105      1.0  0.38218  0.86480  0.34329  1.0000
  C   C844      1.0  0.38337  0.83166  0.38369  1.0000
  H   H673      1.0  0.16176  0.82327  0.27767  1.0000
  C   C845      1.0  0.45648  0.78128  0.27845  1.0000
  H   H674      1.0  0.45995  0.77901  0.30044  1.0000
  C   C846      1.0  0.41733  0.92217  0.26769  1.0000
  S   S106      1.0  0.25864  0.77309  0.40818  1.0000
  C   C847      1.0  0.43297  0.97546  0.35440  1.0000
  C   C848      1.0  0.37288  0.91511  0.38131  1.0000
  C   C849      1.0  0.26150  0.86952  0.40342  1.0000
  H   H675      1.0  0.20012  0.84500  0.28154  1.0000
  H   H676      1.0  0.35205  0.82811  0.33180  1.0000
  C   C850      1.0  0.22329  0.80538  0.36694  1.0000
  S   S107      1.0  0.28005  0.87709  0.34326  1.0000
  H   H677      1.0  0.17518  0.83868  0.20656  1.0000
  H   H678      1.0  0.21059  0.82061  0.13473  1.0000
  H   H679      1.0  0.26104  0.80970  0.42819  1.0000
  C   C851      1.0  0.38310  0.76196  0.30332  1.0000
  C   C852      1.0  0.37665  0.81043  0.39791  1.0000
  Fe  Fe54      1.0  0.35413  0.76318  0.45511  1.0000
  H   H680      1.0  0.20131  0.87232  0.39801  1.0000
  H   H681      1.0  0.20200  0.83265  0.23660  1.0000
  C   C853      1.0  0.19657  0.84174  0.39090  1.0000
  C   C854      1.0  0.42034  0.90835  0.29094  1.0000
  Fe  Fe55      1.0  0.33205  0.85633  0.27071  1.0000
  H   H682      1.0  0.19649  0.86073  0.45294  1.0000
  H   H683      1.0  0.17544  0.76182  0.29888  1.0000
  C   C855      1.0  0.22039  0.76129  0.45550  1.0000
  C   C856      1.0  0.44887  0.78954  0.22119  1.0000
  H   H684      1.0  0.19915  0.74114  0.31428  1.0000
  C   C857      1.0  0.31026  0.82154  0.41440  1.0000
  C   C858      1.0  0.47084  0.79077  0.22434  1.0000
  S   S108      1.0  0.34860  0.89951  0.31345  1.0000
  C   C859      1.0  0.41970  0.94246  0.26952  1.0000
  H   H685      1.0  0.21413  0.83541  0.32574  1.0000
  C   C860      1.0  0.18340  0.80864  0.34854  1.0000
  H   H686      1.0  0.31616  0.90623  0.41779  1.0000
  H   H687      1.0  0.25584  0.78632  0.32155  1.0000
  C   C861      1.0  0.26370  0.82080  0.36464  1.0000
  H   H688      1.0  0.15114  0.78255  0.36371  1.0000
  C   C862      1.0  0.36389  0.90829  0.44381  1.0000
  H   H689      1.0  0.13765  0.79192  0.31881  1.0000
  C   C863      1.0  0.20400  0.78646  0.26651  1.0000
  C   C864      1.0  0.22773  0.79387  0.25294  1.0000
  C   C865      1.0  0.24110  0.78236  0.26260  1.0000
  P   P29       1.0  0.24131  0.81874  0.22532  1.0000
  H   H690      1.0  0.42727  0.90378  0.33449  1.0000
  C   C866      1.0  0.24862  0.83894  0.24482  1.0000
  C   C867      1.0  0.24884  0.85904  0.23263  1.0000
  C   C868      1.0  0.25449  0.87456  0.24798  1.0000
  C   C869      1.0  0.26023  0.87021  0.27532  1.0000
  C   C870      1.0  0.26071  0.85045  0.28705  1.0000
  C   C871      1.0  0.25510  0.83492  0.27179  1.0000
  P   P30       1.0  0.41135  0.77383  0.30848  1.0000
  C   C872      1.0  0.43056  0.80643  0.33292  1.0000
  C   C873      1.0  0.40557  0.87057  0.42711  1.0000
  C   C874      1.0  0.26716  0.81885  0.20106  1.0000
  C   C875      1.0  0.26693  0.80163  0.18935  1.0000
  C   C876      1.0  0.28664  0.80199  0.16962  1.0000
  C   C877      1.0  0.30679  0.81942  0.16175  1.0000
  C   C878      1.0  0.30729  0.83640  0.17383  1.0000
  C   C879      1.0  0.28758  0.83618  0.19335  1.0000
  C   C880      1.0  0.30744  0.79730  0.28897  1.0000
  H   H691      1.0  0.29706  0.84645  0.40421  1.0000
  H   H692      1.0  0.19333  0.79521  0.26032  1.0000
  H   H693      1.0  0.25959  0.78814  0.25367  1.0000
  H   H694      1.0  0.24508  0.86286  0.21108  1.0000
  H   H695      1.0  0.25493  0.89013  0.23846  1.0000
  H   H696      1.0  0.26503  0.88230  0.28704  1.0000
  H   H697      1.0  0.26597  0.84734  0.30772  1.0000
  H   H698      1.0  0.25637  0.81998  0.28073  1.0000
  H   H699      1.0  0.41661  0.95276  0.25167  1.0000
  C   C881      1.0  0.22882  0.79427  0.34630  1.0000
  C   C882      1.0  0.28097  0.88030  0.37946  1.0000
  H   H700      1.0  0.41789  0.89244  0.28983  1.0000
  S   S109      1.0  0.28277  0.88627  0.47464  1.0000
  H   H701      1.0  0.32224  0.81956  0.14702  1.0000
  H   H702      1.0  0.32317  0.84955  0.16886  1.0000
  H   H703      1.0  0.28862  0.84940  0.20278  1.0000
  H   H704      1.0  0.32780  0.75965  0.32728  1.0000
  H   H705      1.0  0.33283  0.93373  0.26422  1.0000
  C   C883      1.0  0.34007  0.82796  0.44124  1.0000
  H   H706      1.0  0.36639  0.77528  0.33481  1.0000
  C   C884      1.0  0.40577  0.74232  0.39379  1.0000
  C   C885      1.0  0.43415  0.77909  0.27552  1.0000
  C   C886      1.0  0.41338  0.75580  0.33995  1.0000
  C   C887      1.0  0.29066  0.76267  0.28159  1.0000
  C   C888      1.0  0.46399  0.75322  0.40747  1.0000
  C   C889      1.0  0.30816  0.79297  0.23890  1.0000
  C   C890      1.0  0.34488  0.94958  0.25759  1.0000
  H   H707      1.0  0.19938  0.84734  0.36698  1.0000
  C   C891      1.0  0.36054  0.79569  0.38878  1.0000
  C   C892      1.0  0.20870  0.82314  0.15707  1.0000
  P   P31       1.0  0.36018  0.86631  0.45358  1.0000
  H   H708      1.0  0.43219  0.93973  0.33773  1.0000
  H   H709      1.0  0.17936  0.83264  0.15559  1.0000
  C   C893      1.0  0.23074  0.76331  0.28430  1.0000
  H   H710      1.0  0.33911  0.79080  0.35790  1.0000
  H   H711      1.0  0.25148  0.78796  0.19543  1.0000
  H   H712      1.0  0.38075  0.94525  0.30375  1.0000
  C   C894      1.0  0.30092  0.89591  0.41382  1.0000
  C   C895      1.0  0.19275  0.82075  0.40416  1.0000
  H   H713      1.0  0.24114  0.75445  0.29143  1.0000
  H   H714      1.0  0.29935  0.81141  0.40380  1.0000
  C   C896      1.0  0.44512  0.98170  0.37526  1.0000
  H   H715      1.0  0.39571  0.84302  0.39084  1.0000
  C   C897      1.0  0.37920  0.95836  0.31210  1.0000
  C   C898      1.0  0.22170  0.82301  0.20298  1.0000
  C   C899      1.0  0.38291  0.97464  0.23263  1.0000
  H   H716      1.0  0.27722  0.83104  0.37174  1.0000
  S   S110      1.0  0.35029  0.76930  0.40785  1.0000
  C   C900      1.0  0.31281  0.80609  0.25804  1.0000
  C   C901      1.0  0.43596  0.75406  0.44987  1.0000
  C   C902      1.0  0.37396  0.83816  0.36046  1.0000
  S   S111      1.0  0.32468  0.83328  0.24222  1.0000
  C   C903      1.0  0.37056  0.93098  0.39459  1.0000
  C   C904      1.0  0.19113  0.82875  0.45275  1.0000
  C   C905      1.0  0.15481  0.77150  0.42071  1.0000
  C   C906      1.0  0.34226  0.75652  0.31524  1.0000
  C   C907      1.0  0.35170  0.80214  0.36490  1.0000
  H   H717      1.0  0.33720  0.97537  0.34202  1.0000
  H   H718      1.0  0.42771  0.85499  0.32676  1.0000
  H   H719      1.0  0.32272  0.86964  0.42683  1.0000
  H   H720      1.0  0.32599  0.79935  0.42901  1.0000
  H   H721      1.0  0.20518  0.76397  0.39549  1.0000
  C   C908      1.0  0.36596  0.89218  0.43063  1.0000
  S   S112      1.0  0.31982  0.88364  0.26464  1.0000
  C   C909      1.0  0.35853  0.82334  0.35062  1.0000
  C   C910      1.0  0.30912  0.84125  0.41434  1.0000
  P   P32       1.0  0.42735  0.97532  0.29674  1.0000
  C   C911      1.0  0.41002  0.83250  0.30534  1.0000
  C   C912      1.0  0.29585  0.77564  0.30088  1.0000
  S   S113      1.0  0.36870  0.87618  0.26533  1.0000
  H   H722      1.0  0.43967  0.84278  0.44448  1.0000
  C   C913      1.0  0.23212  0.80105  0.46589  1.0000
  C   C914      1.0  0.43499  0.82653  0.33695  1.0000
  C   C915      1.0  0.35717  0.95813  0.32426  1.0000
  H   H723      1.0  0.40040  0.97821  0.22009  1.0000
  C   C916      1.0  0.44344  0.98308  0.32346  1.0000
  H   H724      1.0  0.32041  0.96205  0.27817  1.0000
  C   C917      1.0  0.32377  0.85444  0.42715  1.0000
  S   S114      1.0  0.37638  0.93412  0.23128  1.0000
  H   H725      1.0  0.21545  0.78388  0.33910  1.0000
  C   C918      1.0  0.19727  0.82591  0.32465  1.0000
  C   C919      1.0  0.18944  0.83127  0.29933  1.0000
  H   H726      1.0  0.23727  0.82742  0.39177  1.0000
  H   H727      1.0  0.31574  0.90212  0.36628  1.0000
  C   C920      1.0  0.24093  0.81885  0.37571  1.0000
  C   C921      1.0  0.43063  0.78400  0.24669  1.0000
  C   C922      1.0  0.30074  0.89351  0.38470  1.0000
  H   H728      1.0  0.18782  0.79852  0.44603  1.0000
  C   C923      1.0  0.42484  0.84768  0.44646  1.0000
  C   C924      1.0  0.33893  0.74338  0.29599  1.0000
  C   C925      1.0  0.20396  0.82986  0.21451  1.0000
  C   C926      1.0  0.16791  0.81908  0.29724  1.0000
  C   C927      1.0  0.38593  0.85967  0.45095  1.0000
  C   C928      1.0  0.37046  0.89578  0.39925  1.0000
  C   C929      1.0  0.39869  0.97541  0.31054  1.0000
  C   C930      1.0  0.42472  0.83956  0.32316  1.0000
  C   C931      1.0  0.19110  0.82992  0.16881  1.0000
  C   C932      1.0  0.18875  0.83330  0.19753  1.0000
  C   C933      1.0  0.35433  0.97516  0.33401  1.0000
  P   P33       1.0  0.19375  0.80253  0.38137  1.0000
  H   H729      1.0  0.24603  0.85974  0.39942  1.0000
  H   H730      1.0  0.38376  0.80556  0.41604  1.0000
  C   C934      1.0  0.46287  0.77145  0.39030  1.0000
  C   C935      1.0  0.15428  0.80147  0.32047  1.0000
  C   C936      1.0  0.26208  0.87106  0.43274  1.0000
  C   C937      1.0  0.17753  0.77631  0.40425  1.0000
  C   C938      1.0  0.16196  0.79625  0.34607  1.0000
  H   H731      1.0  0.43116  0.74056  0.31305  1.0000
  C   C939      1.0  0.24586  0.79722  0.44228  1.0000
  C   C940      1.0  0.28178  0.88429  0.43799  1.0000
  H   H732      1.0  0.29361  0.76148  0.23548  1.0000
  H   H733      1.0  0.40585  0.88334  0.40980  1.0000
  C   C941      1.0  0.19374  0.76750  0.28850  1.0000
  H   H734      1.0  0.37165  0.94572  0.38076  1.0000
  H   H735      1.0  0.39400  0.80718  0.28755  1.0000
  H   H736      1.0  0.28641  0.78863  0.16080  1.0000
  C   C942      1.0  0.33994  0.84822  0.43972  1.0000
  H   H737      1.0  0.36389  0.93976  0.43616  1.0000
  C   C943      1.0  0.36618  0.92761  0.42581  1.0000
  H   H738      1.0  0.14710  0.78345  0.42000  1.0000
  C   C944      1.0  0.45081  0.74473  0.43733  1.0000
  H   H739      1.0  0.42470  0.78036  0.44272  1.0000
  C   C945      1.0  0.24012  0.77737  0.43706  1.0000
  H   H740      1.0  0.39371  0.74448  0.27338  1.0000
  H   H741      1.0  0.37587  0.91747  0.35716  1.0000
  C   C946      1.0  0.42402  0.74120  0.33543  1.0000
  C   C947      1.0  0.42494  0.86455  0.42489  1.0000
  H   H742      1.0  0.44609  0.79335  0.19899  1.0000
  H   H743      1.0  0.39915  0.74315  0.41639  1.0000
  C   C948      1.0  0.14201  0.75129  0.43846  1.0000
  H   H744      1.0  0.41540  0.96471  0.36236  1.0000
  H   H745      1.0  0.46647  0.74373  0.27407  1.0000
  H   H746      1.0  0.43595  0.74322  0.24686  1.0000
  H   H747      1.0  0.40032  0.96732  0.16700  1.0000
  Fe  Fe56      1.0  0.24799  0.74195  0.39835  1.0000
  H   H748      1.0  0.46142  0.97482  0.24513  1.0000
  S   S115      1.0  0.23099  0.73975  0.36054  1.0000
  C   C949      1.0  0.41367  0.98194  0.15401  1.0000
  C   C950      1.0  0.40547  0.83693  0.47041  1.0000
  S   S116      1.0  0.38324  0.78092  0.47192  1.0000
  C   C951      1.0  0.43677  0.98368  0.14898  1.0000
  H   H749      1.0  0.32188  0.73644  0.29298  1.0000
  C   C952      1.0  0.27794  0.77034  0.47048  1.0000
  H   H750      1.0  0.35978  0.90580  0.46797  1.0000
  C   C953      1.0  0.26840  0.74882  0.47518  1.0000
  H   H751      1.0  0.43690  0.97577  0.39909  1.0000
  H   H752      1.0  0.27031  0.74202  0.45630  1.0000
  C   C954      1.0  0.47467  0.78683  0.25297  1.0000
  H   H753      1.0  0.12457  0.74770  0.45126  1.0000
  H   H754      1.0  0.18941  0.82376  0.47665  1.0000
  C   C955      1.0  0.38611  0.84286  0.47264  1.0000
  C   C956      1.0  0.17452  0.74051  0.42411  1.0000
  C   C957      1.0  0.35347  0.98611  0.25753  1.0000
  C   C958      1.0  0.16914  0.97390  0.78804  1.0000
  H   H755      1.0  0.28944  0.87784  0.71318  1.0000
  C   C959      1.0  0.15013  0.93868  0.81916  1.0000
  H   H756      1.0  0.13864  0.87884  0.88109  1.0000
  C   C960      1.0  0.29875  0.75683  0.61116  1.0000
  H   H757      1.0  0.36261  0.86873  0.55788  1.0000
  C   C961      1.0  0.23826  0.87300  0.75786  1.0000
  C   C962      1.0  0.13095  0.88537  0.60556  1.0000
  H   H758      1.0  0.11718  0.96910  0.84308  1.0000
  C   C963      1.0  0.30796  0.84523  0.65742  1.0000
  C   C964      1.0  0.24381  0.81366  0.67342  1.0000
  C   C965      1.0  0.46756  0.74975  0.51668  1.0000
  C   C966      1.0  0.16071  0.94406  0.84192  1.0000
  H   H759      1.0  0.19131  0.75273  0.49364  1.0000
  C   C967      1.0  0.29016  0.84435  0.68107  1.0000
  H   H760      1.0  0.45180  0.73806  0.51616  1.0000
  C   C968      1.0  0.01100  0.95777  0.76311  1.0000
  C   C969      1.0  0.10893  0.91230  0.88358  1.0000
  C   C970      1.0  0.18172  0.94678  0.90885  1.0000
  C   C971      1.0  0.27504  0.77956  0.49423  1.0000
  Fe  Fe57      1.0  0.35620  0.77385  0.51455  1.0000
  S   S117      1.0  0.35958  0.79721  0.54233  1.0000
  C   C972      1.0  0.12577  0.83402  0.76186  1.0000
  C   C973      1.0  0.98355  0.89370  0.78031  1.0000
  C   C974      1.0  0.18801  0.91186  0.84074  1.0000
  C   C975      1.0  0.11548  0.89799  0.69969  1.0000
  H   H761      1.0  0.22038  0.84816  0.70610  1.0000
  C   C976      1.0  0.32815  0.86142  0.55242  1.0000
  S   S118      1.0  0.09266  0.93178  0.80451  1.0000
  S   S119      1.0  0.05145  0.90811  0.77530  1.0000
  Fe  Fe58      1.0  0.06811  0.89926  0.81133  1.0000
  S   S120      1.0  0.07579  0.86953  0.81725  1.0000
  Fe  Fe59      1.0  0.07294  0.94089  0.77200  1.0000
  P   P34       1.0  0.10892  0.87129  0.69771  1.0000
  Fe  Fe60      1.0  0.25546  0.85942  0.50995  1.0000
  S   S121      1.0  0.25363  0.86046  0.55781  1.0000
  C   C977      1.0  0.21262  0.78499  0.48462  1.0000
  Fe  Fe61      1.0  0.21804  0.81718  0.52759  1.0000
  S   S122      1.0  0.21326  0.81470  0.57684  1.0000
  Fe  Fe62      1.0  0.21555  0.84807  0.56452  1.0000
  S   S123      1.0  0.19236  0.85939  0.59436  1.0000
  Fe  Fe63      1.0  0.25174  0.82724  0.56588  1.0000
  S   S124      1.0  0.27145  0.81654  0.59725  1.0000
  S   S125      1.0  0.21720  0.84969  0.51578  1.0000
  S   S126      1.0  0.25658  0.82701  0.51742  1.0000
  Fe  Fe64      1.0  0.20173  0.91397  0.74963  1.0000
  S   S127      1.0  0.19527  0.92413  0.70475  1.0000
  H   H762      1.0  0.11765  0.97916  0.78102  1.0000
  H   H763      1.0  0.19621  0.79205  0.64976  1.0000
  C   C978      1.0  0.28556  0.73921  0.57432  1.0000
  Fe  Fe65      1.0  0.20244  0.95540  0.71484  1.0000
  H   H764      1.0  0.06670  0.86667  0.88936  1.0000
  Fe  Fe66      1.0  0.23356  0.93467  0.68774  1.0000
  S   S128      1.0  0.25149  0.92982  0.64510  1.0000
  S   S129      1.0  0.20504  0.94418  0.76171  1.0000
  H   H765      1.0  0.03829  0.87750  0.68474  1.0000
  C   C979      1.0  0.23491  0.90968  0.63204  1.0000
  C   C980      1.0  0.21386  0.89512  0.64998  1.0000
  C   C981      1.0  0.20075  0.87965  0.63835  1.0000
  C   C982      1.0  0.20875  0.87867  0.60890  1.0000
  C   C983      1.0  0.22991  0.89304  0.59124  1.0000
  C   C984      1.0  0.24295  0.90841  0.60284  1.0000
  H   H766      1.0  0.20774  0.89573  0.67274  1.0000
  H   H767      1.0  0.18451  0.86837  0.65214  1.0000
  H   H768      1.0  0.23602  0.89265  0.56833  1.0000
  H   H769      1.0  0.25922  0.91951  0.58903  1.0000
  C   C985      1.0  0.10536  0.87380  0.80846  1.0000
  C   C986      1.0  0.11305  0.85756  0.81851  1.0000
  C   C987      1.0  0.13659  0.86059  0.81118  1.0000
  C   C988      1.0  0.15242  0.87971  0.79317  1.0000
  C   C989      1.0  0.14482  0.89609  0.78365  1.0000
  C   C990      1.0  0.12127  0.89311  0.79120  1.0000
  C   C991      1.0  0.32470  0.83680  0.66328  1.0000
  H   H770      1.0  0.03600  0.85620  0.77196  1.0000
  H   H771      1.0  0.15705  0.91094  0.76997  1.0000
  H   H772      1.0  0.11542  0.90561  0.78302  1.0000
  C   C992      1.0  0.15431  0.95356  0.79237  1.0000
  C   C993      1.0  0.23229  0.85653  0.71728  1.0000
  H   H773      1.0  0.27508  0.83285  0.72910  1.0000
  H   H774      1.0  0.27351  0.88769  0.75822  1.0000
  H   H775      1.0  0.27352  0.76473  0.63948  1.0000
  H   H776      1.0  0.98092  0.92160  0.68763  1.0000
  S   S130      1.0  0.08727  0.96115  0.72495  1.0000
  C   C994      1.0  0.28035  0.87679  0.64125  1.0000
  C   C995      1.0  0.22600  0.79833  0.66777  1.0000
  C   C996      1.0  0.21158  0.82471  0.64672  1.0000
  H   H777      1.0  0.29804  0.88829  0.56477  1.0000
  H   H778      1.0  0.13881  0.92293  0.82193  1.0000
  C   C997      1.0  0.99439  0.97355  0.65735  1.0000
  H   H779      1.0  0.23125  0.87756  0.77737  1.0000
  C   C998      1.0  0.12340  0.85219  0.65454  1.0000
  C   C999      1.0  0.04915  0.97295  0.64483  1.0000
  C   C1000     1.0  0.06483  0.84553  0.69877  1.0000
  C   C1001     1.0  0.20984  0.80385  0.65452  1.0000
  C   C1002     1.0  0.27289  0.93289  0.51549  1.0000
  C   C1003     1.0  0.30583  0.82598  0.71635  1.0000
  C   C1004     1.0  0.02432  0.89883  0.66243  1.0000
  H   H780      1.0  0.09057  0.90359  0.67602  1.0000
  H   H781      1.0  0.99846  0.86387  0.73581  1.0000
  H   H782      1.0  0.00727  0.87708  0.77969  1.0000
  C   C1005     1.0  0.33476  0.80241  0.55657  1.0000
  C   C1006     1.0  0.31780  0.80190  0.54083  1.0000
  C   C1007     1.0  0.29842  0.80661  0.55285  1.0000
  C   C1008     1.0  0.29558  0.81098  0.58103  1.0000
  C   C1009     1.0  0.31246  0.81124  0.59676  1.0000
  C   C1010     1.0  0.33224  0.80748  0.58425  1.0000
  H   H783      1.0  0.31983  0.79831  0.51920  1.0000
  H   H784      1.0  0.28574  0.80688  0.54034  1.0000
  H   H785      1.0  0.31032  0.81458  0.61851  1.0000
  H   H786      1.0  0.34537  0.80799  0.59638  1.0000
  S   S131      1.0  0.04129  0.90110  0.84819  1.0000
  C   C1011     1.0  0.18470  0.95596  0.93266  1.0000
  H   H787      1.0  0.15948  0.83379  0.76439  1.0000
  H   H788      1.0  0.33660  0.82063  0.69717  1.0000
  H   H789      1.0  0.07195  0.98531  0.76285  1.0000
  S   S132      1.0  0.27041  0.96847  0.76085  1.0000
  C   C1012     1.0  0.26299  0.76707  0.52304  1.0000
  P   P35       1.0  0.02533  0.95558  0.67541  1.0000
  C   C1013     1.0  0.12776  0.90547  0.88221  1.0000
  C   C1014     1.0  0.06769  0.86257  0.73936  1.0000
  C   C1015     1.0  0.28331  0.94663  0.53133  1.0000
  C   C1016     1.0  0.99781  0.95490  0.66876  1.0000
  C   C1017     1.0  0.98454  0.82201  0.84905  1.0000
  C   C1018     1.0  0.21151  0.89382  0.86087  1.0000
  H   H790      1.0  0.03065  0.82594  0.69999  1.0000
  H   H791      1.0  0.19912  0.82898  0.63631  1.0000
  C   C1019     1.0  0.04395  0.85321  0.75146  1.0000
  C   C1020     1.0  0.26203  0.87870  0.74702  1.0000
  P   P36       1.0  0.15627  0.92423  0.87555  1.0000
  C   C1021     1.0  0.18369  0.90227  0.89445  1.0000
  H   H792      1.0  0.12866  0.94216  0.96986  1.0000
  H   H793      1.0  0.10038  0.94046  0.67782  1.0000
  H   H794      1.0  0.13793  0.83844  0.62193  1.0000
  H   H795      1.0  0.32057  0.74884  0.57801  1.0000
  C   C1022     1.0  0.13678  0.86816  0.60104  1.0000
  C   C1023     1.0  0.27132  0.95782  0.54509  1.0000
  H   H796      1.0  0.22496  0.78223  0.67316  1.0000
  H   H797      1.0  0.30885  0.85206  0.63438  1.0000
  S   S133      1.0  0.41719  0.74169  0.48578  1.0000
  H   H798      1.0  0.14880  0.93362  0.72886  1.0000
  C   C1024     1.0  0.13288  0.85155  0.62550  1.0000
  H   H799      1.0  0.20709  0.97834  0.61164  1.0000
  P   P37       1.0  0.23324  0.97030  0.55967  1.0000
  C   C1025     1.0  0.22965  0.84013  0.65169  1.0000
  Fe  Fe67      1.0  0.06477  0.93437  0.83907  1.0000
  C   C1026     1.0  0.18139  0.91925  0.61765  1.0000
  C   C1027     1.0  0.17230  0.92778  0.63945  1.0000
  C   C1028     1.0  0.18161  0.94908  0.63718  1.0000
  C   C1029     1.0  0.20010  0.96185  0.61303  1.0000
  C   C1030     1.0  0.20956  0.95338  0.59106  1.0000
  C   C1031     1.0  0.19999  0.93193  0.59360  1.0000
  C   C1032     1.0  0.10929  0.93100  0.68779  1.0000
  H   H800      1.0  0.22478  0.88702  0.85728  1.0000
  H   H801      1.0  0.13424  0.89836  0.58657  1.0000
  H   H802      1.0  0.26100  0.77426  0.54147  1.0000
  S   S134      1.0  0.23958  0.92208  0.73183  1.0000
  H   H803      1.0  0.24258  0.91992  0.50063  1.0000
  C   C1033     1.0  0.14042  0.93391  0.92931  1.0000
  H   H804      1.0  0.28206  0.79635  0.49019  1.0000
  H   H805      1.0  0.09982  0.85438  0.88618  1.0000
  C   C1034     1.0  0.20514  0.90307  0.83630  1.0000
  C   C1035     1.0  0.03061  0.84002  0.73727  1.0000
  C   C1036     1.0  0.35187  0.86650  0.54231  1.0000
  H   H806      1.0  0.07385  0.97561  0.67185  1.0000
  C   C1037     1.0  0.98099  0.85416  0.85778  1.0000
  C   C1038     1.0  0.12586  0.93959  0.70244  1.0000
  S   S135      1.0  0.98918  0.90318  0.81151  1.0000
  H   H807      1.0  0.07687  0.95632  0.93330  1.0000
  C   C1039     1.0  0.24580  0.83471  0.66528  1.0000
  C   C1040     1.0  0.07121  0.98007  0.64971  1.0000
  H   H808      1.0  0.17440  0.90266  0.61970  1.0000
  H   H809      1.0  0.15829  0.91785  0.65832  1.0000
  H   H810      1.0  0.17469  0.95565  0.65437  1.0000
  C   C1041     1.0  0.17968  0.97943  0.81053  1.0000
  H   H811      1.0  0.20698  0.92468  0.57765  1.0000
  H   H812      1.0  0.99481  0.81218  0.84651  1.0000
  C   C1042     1.0  0.22344  0.86200  0.74295  1.0000
  H   H813      1.0  0.21338  0.90339  0.81371  1.0000
  C   C1043     1.0  0.27097  0.87319  0.72143  1.0000
  C   C1044     1.0  0.11812  0.86971  0.65949  1.0000
  P   P38       1.0  0.26799  0.85460  0.67366  1.0000
  H   H814      1.0  0.07781  0.87265  0.75083  1.0000
  S   S136      1.0  0.06893  0.94685  0.87959  1.0000
  H   H815      1.0  0.11831  0.90010  0.63740  1.0000
  H   H816      1.0  0.11134  0.97545  0.94776  1.0000
  C   C1045     1.0  0.15954  0.93583  0.90679  1.0000
  H   H817      1.0  0.33829  0.83746  0.64485  1.0000
  H   H818      1.0  0.30488  0.81835  0.73916  1.0000
  C   C1046     1.0  0.16103  0.85609  0.72482  1.0000
  C   C1047     1.0  0.29504  0.89076  0.58711  1.0000
  H   H819      1.0  0.98852  0.86935  0.86169  1.0000
  H   H820      1.0  0.23097  0.85629  0.64510  1.0000
  C   C1048     1.0  0.14348  0.94301  0.95320  1.0000
  C   C1049     1.0  0.02988  0.97162  0.88804  1.0000
  H   H821      1.0  0.28275  0.90028  0.66644  1.0000
  H   H822      1.0  0.17546  0.90179  0.91711  1.0000
  H   H823      1.0  0.18296  0.91849  0.82149  1.0000
  C   C1050     1.0  0.99501  0.88132  0.76891  1.0000
  C   C1051     1.0  0.29705  0.91422  0.61946  1.0000
  C   C1052     1.0  0.30150  0.91099  0.59076  1.0000
  C   C1053     1.0  0.99406  0.84132  0.85495  1.0000
  H   H824      1.0  0.20506  0.85799  0.75121  1.0000
  H   H825      1.0  0.04292  0.97794  0.92602  1.0000
  H   H826      1.0  0.30112  0.92993  0.62227  1.0000
  H   H827      1.0  0.30946  0.92416  0.57131  1.0000
  H   H828      1.0  0.07257  0.90377  0.88810  1.0000
  Fe  Fe68      1.0  0.24243  0.95328  0.74021  1.0000
  H   H829      1.0  0.40519  0.82374  0.48714  1.0000
  C   C1054     1.0  0.08362  0.87736  0.88802  1.0000
  H   H830      1.0  0.12311  0.92575  0.92851  1.0000
  C   C1055     1.0  0.02869  0.93048  0.67928  1.0000
  H   H831      1.0  0.17959  0.86147  0.71701  1.0000
  C   C1056     1.0  0.01275  0.95068  0.73703  1.0000
  C   C1057     1.0  0.14968  0.84046  0.75142  1.0000
  H   H832      1.0  0.19675  0.94858  0.89169  1.0000
  C   C1058     1.0  0.04104  0.83617  0.71096  1.0000
  H   H833      1.0  0.11707  0.82228  0.78287  1.0000
  C   C1059     1.0  0.02102  0.91796  0.66027  1.0000
  C   C1060     1.0  0.12434  0.88442  0.88335  1.0000
  C   C1061     1.0  0.03597  0.89240  0.68284  1.0000
  C   C1062     1.0  0.04421  0.90505  0.70122  1.0000
  C   C1063     1.0  0.04057  0.92401  0.69952  1.0000
  H   H834      1.0  0.11132  0.92858  0.88161  1.0000
  C   C1064     1.0  0.36165  0.86826  0.51223  1.0000
  C   C1065     1.0  0.12179  0.88624  0.63465  1.0000
  S   S137      1.0  0.19596  0.78988  0.51465  1.0000
  H   H835      1.0  0.14635  0.94929  0.77470  1.0000
  H   H836      1.0  0.12092  0.83926  0.67321  1.0000
  H   H837      1.0  0.00411  0.93440  0.73855  1.0000
  Fe  Fe69      1.0  0.02659  0.91269  0.81140  1.0000
  H   H838      1.0  0.20553  0.88605  0.90904  1.0000
  H   H839      1.0  0.10078  0.84261  0.83189  1.0000
  H   H840      1.0  0.01168  0.84652  0.85686  1.0000
  H   H841      1.0  0.01220  0.92278  0.64405  1.0000
  H   H842      1.0  0.14246  0.84794  0.81874  1.0000
  H   H843      1.0  0.02116  0.98407  0.78195  1.0000
  H   H844      1.0  0.05322  0.90005  0.71702  1.0000
  H   H845      1.0  0.04711  0.93360  0.71394  1.0000
  H   H846      1.0  0.07263  0.84236  0.67842  1.0000
  C   C1066     1.0  0.25674  0.98359  0.60141  1.0000
  C   C1067     1.0  0.07827  0.85889  0.71284  1.0000
  H   H847      1.0  0.13010  0.95572  0.70344  1.0000
  C   C1068     1.0  0.10381  0.91016  0.68685  1.0000
  H   H848      1.0  0.01219  0.83281  0.74668  1.0000
  C   C1069     1.0  0.34765  0.86450  0.49222  1.0000
  C   C1070     1.0  0.11320  0.84337  0.74596  1.0000
  H   H849      1.0  0.24951  0.96748  0.61431  1.0000
  C   C1071     1.0  0.14851  0.86528  0.70870  1.0000
  H   H850      1.0  0.15760  0.87760  0.68835  1.0000
  C   C1072     1.0  0.28905  0.83438  0.71057  1.0000
  H   H851      1.0  0.27925  0.85810  0.60898  1.0000
  C   C1073     1.0  0.25617  0.86199  0.70638  1.0000
  C   C1074     1.0  0.13658  0.92723  0.71659  1.0000
  C   C1075     1.0  0.13154  0.90659  0.71514  1.0000
  C   C1076     1.0  0.12452  0.85906  0.71921  1.0000
  C   C1077     1.0  0.32368  0.82724  0.69273  1.0000
  H   H852      1.0  0.25616  0.80902  0.68356  1.0000
  C   C1078     1.0  0.98992  0.87375  0.74416  1.0000
  C   C1079     1.0  0.24887  0.95558  0.54268  1.0000
  C   C1080     1.0  0.17752  0.91193  0.86977  1.0000
  H   H853      1.0  0.14477  0.86782  0.57868  1.0000
  C   C1081     1.0  0.02553  0.96452  0.70919  1.0000
  C   C1082     1.0  0.32390  0.85980  0.50242  1.0000
  C   C1083     1.0  0.08693  0.89826  0.88694  1.0000
  C   C1084     1.0  0.31427  0.85828  0.53241  1.0000
  H   H854      1.0  0.37106  0.83402  0.49107  1.0000
  C   C1085     1.0  0.20068  0.89330  0.88998  1.0000
  C   C1086     1.0  0.28647  0.89723  0.64462  1.0000
  H   H855      1.0  0.01741  0.88881  0.64869  1.0000
  S   S138      1.0  0.18147  0.88263  0.78148  1.0000
  C   C1087     1.0  0.04535  0.98294  0.90197  1.0000
  C   C1088     1.0  0.10231  0.87045  0.88625  1.0000
  H   H856      1.0  0.32038  0.85945  0.57585  1.0000
  C   C1089     1.0  0.28434  0.87371  0.61222  1.0000
  H   H857      1.0  0.29589  0.85397  0.54036  1.0000
  S   S139      1.0  0.36008  0.74369  0.53506  1.0000
  H   H858      1.0  0.14029  0.89754  0.72620  1.0000
  S   S140      1.0  0.04702  0.94622  0.80603  1.0000
  H   H859      1.0  0.09480  0.83851  0.75490  1.0000
  S   S141      1.0  0.32657  0.75907  0.49603  1.0000
  C   C1090     1.0  0.97900  0.93610  0.67782  1.0000
  C   C1091     1.0  0.09314  0.96356  0.91656  1.0000
  H   H860      1.0  0.00124  0.94688  0.78458  1.0000
  C   C1092     1.0  0.30322  0.74807  0.58724  1.0000
  H   H861      1.0  0.01554  0.95785  0.90128  1.0000
  C   C1093     1.0  0.09454  0.96149  0.88721  1.0000
  C   C1094     1.0  0.25378  0.74533  0.52815  1.0000
  H   H862      1.0  0.24225  0.74915  0.61715  1.0000
  H   H863      1.0  0.20179  0.96504  0.93348  1.0000
  H   H864      1.0  0.38008  0.87227  0.50475  1.0000
  C   C1095     1.0  0.03344  0.97757  0.85688  1.0000
  H   H865      1.0  0.21716  0.75849  0.54731  1.0000
  C   C1096     1.0  0.16558  0.95409  0.95482  1.0000
  S   S142      1.0  0.24026  0.96700  0.69404  1.0000
  H   H866      1.0  0.02980  0.97167  0.61100  1.0000
  H   H867      1.0  0.28196  0.92386  0.50532  1.0000
  C   C1097     1.0  0.11580  0.97090  0.86571  1.0000
  S   S143      1.0  0.17943  0.97388  0.70872  1.0000
  H   H868      1.0  0.31265  0.76425  0.62049  1.0000
  H   H869      1.0  0.45056  0.76129  0.55007  1.0000
  C   C1098     1.0  0.22233  0.98338  0.53186  1.0000
  H   H870      1.0  0.31271  0.85716  0.48742  1.0000
  C   C1099     1.0  0.17569  0.96456  0.83728  1.0000
  H   H871      1.0  0.18417  0.96930  0.85421  1.0000
  C   C1100     1.0  0.02212  0.97874  0.76161  1.0000
  C   C1101     1.0  0.46689  0.76285  0.53580  1.0000
  C   C1102     1.0  0.26316  0.73880  0.58551  1.0000
  H   H872      1.0  0.18173  0.76253  0.57257  1.0000
  H   H873      1.0  0.22155  0.94027  0.52361  1.0000
  H   H874      1.0  0.30059  0.94841  0.53326  1.0000
  H   H875      1.0  0.16785  0.96190  0.97261  1.0000
  C   C1103     1.0  0.03637  0.98564  0.70777  1.0000
  C   C1104     1.0  0.11267  0.97446  0.92475  1.0000
  Fe  Fe70      1.0  0.38490  0.74962  0.49089  1.0000
  C   C1105     1.0  0.13543  0.98252  0.87380  1.0000
  H   H876      1.0  0.02170  0.96848  0.84609  1.0000
  C   C1106     1.0  0.27667  0.75696  0.62198  1.0000
  H   H877      1.0  0.27959  0.96800  0.55777  1.0000
  H   H878      1.0  0.23173  0.98255  0.77856  1.0000
  C   C1107     1.0  0.20757  0.74817  0.56921  1.0000
  C   C1108     1.0  0.23875  0.94211  0.52606  1.0000
  C   C1109     1.0  0.13386  0.98405  0.90354  1.0000
  C   C1110     1.0  0.25063  0.93066  0.51283  1.0000
  H   H879      1.0  0.17263  0.98523  0.76707  1.0000
  C   C1111     1.0  0.18732  0.75048  0.58343  1.0000
  C   C1112     1.0  0.25892  0.74803  0.60920  1.0000
  C   C1113     1.0  0.04641  0.97791  0.61558  1.0000
  H   H880      1.0  0.24830  0.98432  0.49374  1.0000
  C   C1114     1.0  0.20650  0.76515  0.47921  1.0000
  H   H881      1.0  0.15862  0.73920  0.62233  1.0000
  C   C1115     1.0  0.17429  0.73732  0.61151  1.0000
  C   C1116     1.0  0.25645  0.73626  0.50395  1.0000
  H   H882      1.0  0.79002  0.22707  0.12749  1.0000
  H   H883      1.0  0.52350  0.07761  0.28242  1.0000
  H   H884      1.0  0.76032  0.22182  0.17342  1.0000
  S   S144      1.0  0.80352  0.19768  0.09884  1.0000
  H   H885      1.0  0.73859  0.19476  0.11629  1.0000
  Fe  Fe71      1.0  0.57187  0.18733  0.10460  1.0000
  S   S145      1.0  0.55282  0.17339  0.15267  1.0000
  S   S146      1.0  0.60783  0.21046  0.09418  1.0000
  Fe  Fe72      1.0  0.52993  0.16629  0.08243  1.0000
  H   H886      1.0  0.52607  0.07596  0.21242  1.0000
  Fe  Fe73      1.0  0.52477  0.18228  0.13808  1.0000
  S   S147      1.0  0.50984  0.20067  0.16471  1.0000
  Fe  Fe74      1.0  0.53778  0.14398  0.13941  1.0000
  C   C1117     1.0  0.57911  0.08011  0.27328  1.0000
  S   S148      1.0  0.54453  0.19794  0.09045  1.0000
  S   S149      1.0  0.55970  0.15700  0.09200  1.0000
  C   C1118     1.0  0.60170  0.15710  0.16282  1.0000
  C   C1119     1.0  0.85408  0.18945  0.98310  1.0000
  H   H887      1.0  0.83787  0.22663  0.34883  1.0000
  S   S150      1.0  0.70080  0.22062  0.17758  1.0000
  S   S151      1.0  0.63792  0.21848  0.21485  1.0000
  Fe  Fe75      1.0  0.71710  0.21244  0.21444  1.0000
  S   S152      1.0  0.72803  0.18448  0.21682  1.0000
  S   S153      1.0  0.69032  0.21536  0.25057  1.0000
  C   C1120     1.0  0.61623  0.21358  0.12741  1.0000
  C   C1121     1.0  0.63871  0.21551  0.12868  1.0000
  C   C1122     1.0  0.64558  0.21715  0.15531  1.0000
  C   C1123     1.0  0.62997  0.21678  0.18091  1.0000
  C   C1124     1.0  0.60754  0.21518  0.17946  1.0000
  C   C1125     1.0  0.60071  0.21376  0.15275  1.0000
  H   H888      1.0  0.94863  0.22729  0.40659  1.0000
  C   C1126     1.0  0.83796  0.20148  0.14642  1.0000
  H   H889      1.0  0.59544  0.21497  0.19911  1.0000
  H   H890      1.0  0.58345  0.21280  0.15184  1.0000
  C   C1127     1.0  0.85078  0.22272  0.13568  1.0000
  C   C1128     1.0  0.78363  0.19436  0.13248  1.0000
  C   C1129     1.0  0.78021  0.21151  0.14129  1.0000
  C   C1130     1.0  0.76328  0.20852  0.16732  1.0000
  C   C1131     1.0  0.75009  0.18841  0.18503  1.0000
  C   C1132     1.0  0.75407  0.17126  0.17678  1.0000
  C   C1133     1.0  0.77066  0.17422  0.15039  1.0000
  S   S154      1.0  0.52220  0.16334  0.03780  1.0000
  P   P39       1.0  0.59178  0.13938  0.22414  1.0000
  H   H891      1.0  0.74393  0.15567  0.19039  1.0000
  H   H892      1.0  0.77331  0.16089  0.14372  1.0000
  H   H893      1.0  0.78913  0.19481  0.30119  1.0000
  S   S155      1.0  0.53667  0.11350  0.16732  1.0000
  H   H894      1.0  0.48451  0.10589  0.14412  1.0000
  H   H895      1.0  0.49572  0.01448  0.32692  1.0000
  H   H896      1.0  0.54243  0.11337  0.25153  1.0000
  C   C1134     1.0  0.50169  0.21665  0.26424  1.0000
  H   H897      1.0  0.96068  0.18832  0.99568  1.0000
  H   H898      1.0  0.82668  0.14564  0.07962  1.0000
  C   C1135     1.0  0.60119  0.13782  0.12471  1.0000
  C   C1136     1.0  0.59464  0.11928  0.14699  1.0000
  C   C1137     1.0  0.59169  0.11960  0.17722  1.0000
  H   H899      1.0  0.71853  0.18714  0.03705  1.0000
  H   H900      1.0  0.60589  0.14071  0.27992  1.0000
  C   C1138     1.0  0.92890  0.22184  0.34450  1.0000
  C   C1139     1.0  0.61965  0.14952  0.23168  1.0000
  H   H901      1.0  0.92755  0.21213  0.32880  1.0000
  C   C1140     1.0  0.64271  0.15464  0.26790  1.0000
  H   H902      1.0  0.53741  0.18948  0.24800  1.0000
  C   C1141     1.0  0.66130  0.16557  0.21474  1.0000
  C   C1142     1.0  0.63987  0.15870  0.20826  1.0000
  C   C1143     1.0  0.79868  0.18070  0.02037  1.0000
  C   C1144     1.0  0.84411  0.15544  0.06734  1.0000
  H   H903      1.0  0.75487  0.20565  0.30795  1.0000
  H   H904      1.0  0.70061  0.21766  0.11653  1.0000
  C   C1145     1.0  0.54213  0.08406  0.27525  1.0000
  H   H905      1.0  0.60297  0.13754  0.10137  1.0000
  H   H906      1.0  0.59115  0.10457  0.14093  1.0000
  H   H907      1.0  0.58621  0.10498  0.19404  1.0000
  C   C1146     1.0  0.85907  0.14685  0.05312  1.0000
  H   H908      1.0  0.67692  0.17256  0.19672  1.0000
  H   H909      1.0  0.63932  0.16056  0.18501  1.0000
  C   C1147     1.0  0.57718  0.11313  0.24793  1.0000
  H   H910      1.0  0.85325  0.13032  0.05438  1.0000
  H   H911      1.0  0.59828  0.17499  0.25204  1.0000
  H   H912      1.0  0.74602  0.19026  0.06488  1.0000
  H   H913      1.0  0.49248  0.18523  0.11800  1.0000
  H   H914      1.0  0.93783  0.22503  0.05131  1.0000
  H   H915      1.0  0.49528  0.12193  0.18991  1.0000
  C   C1148     1.0  0.51280  0.10017  0.19815  1.0000
  C   C1149     1.0  0.69797  0.22659  0.09686  1.0000
  C   C1150     1.0  0.77642  0.20099  0.00195  1.0000
  C   C1151     1.0  0.74867  0.20576  0.06791  1.0000
  Fe  Fe76      1.0  0.82425  0.23120  0.07452  1.0000
  C   C1152     1.0  0.62126  0.14761  0.26155  1.0000
  C   C1153     1.0  0.49872  0.16034  0.99511  1.0000
  H   H916      1.0  0.58921  0.07058  0.27908  1.0000
  C   C1154     1.0  0.51699  0.21838  0.03586  1.0000
  C   C1155     1.0  0.94079  0.23040  0.38829  1.0000
  H   H917      1.0  0.49215  0.05591  0.25535  1.0000
  C   C1156     1.0  0.59504  0.13853  0.18535  1.0000
  C   C1157     1.0  0.54782  0.18005  0.24348  1.0000
  P   P40       1.0  0.76271  0.22012  0.00502  1.0000
  C   C1158     1.0  0.57487  0.15560  0.23144  1.0000
  C   C1159     1.0  0.55437  0.15257  0.22223  1.0000
  H   H918      1.0  0.51638  0.23035  0.26214  1.0000
  C   C1160     1.0  0.66272  0.16349  0.24450  1.0000
  C   C1161     1.0  0.93860  0.21761  0.36844  1.0000
  P   P41       1.0  0.91799  0.19753  0.01407  1.0000
  C   C1162     1.0  0.60492  0.15672  0.13262  1.0000
  C   C1163     1.0  0.49639  0.15792  0.02594  1.0000
  H   H919      1.0  0.64390  0.15330  0.29092  1.0000
  C   C1164     1.0  0.73565  0.21079  0.99511  1.0000
  C   C1165     1.0  0.55306  0.10457  0.25768  1.0000
  H   H920      1.0  0.51446  0.21296  0.22037  1.0000
  H   H921      1.0  0.66285  0.21840  0.15605  1.0000
  H   H922      1.0  0.56599  0.22958  0.19820  1.0000
  C   C1166     1.0  0.93008  0.18353  0.06623  1.0000
  H   H923      1.0  0.80776  0.17664  0.03679  1.0000
  H   H924      1.0  0.85140  0.17698  0.00240  1.0000
  H   H925      1.0  0.48269  0.00034  0.19671  1.0000
  H   H926      1.0  0.80538  0.20173  0.21220  1.0000
  C   C1167     1.0  0.80603  0.23408  0.23712  1.0000
  C   C1168     1.0  0.94373  0.17621  0.08264  1.0000
  C   C1169     1.0  0.49284  0.07036  0.24122  1.0000
  C   C1170     1.0  0.96944  0.17792  0.03636  1.0000
  Fe  Fe77      1.0  0.67591  0.22643  0.21264  1.0000
  C   C1171     1.0  0.85605  0.20947  0.98657  1.0000
  H   H927      1.0  0.74587  0.23019  0.12448  1.0000
  C   C1172     1.0  0.75698  0.22324  0.04304  1.0000
  C   C1173     1.0  0.80687  0.21775  0.25906  1.0000
  C   C1174     1.0  0.78849  0.20750  0.28453  1.0000
  C   C1175     1.0  0.76920  0.21356  0.28836  1.0000
  H   H928      1.0  0.53492  0.23320  0.10777  1.0000
  C   C1176     1.0  0.78807  0.19542  0.02317  1.0000
  C   C1177     1.0  0.69651  0.21861  0.07177  1.0000
  H   H929      1.0  0.65060  0.21519  0.10920  1.0000
  C   C1178     1.0  0.58204  0.17150  0.24593  1.0000
  C   C1179     1.0  0.49392  0.20704  0.03902  1.0000
  C   C1180     1.0  0.49458  0.10753  0.20407  1.0000
  H   H930      1.0  0.81082  0.17782  0.18166  1.0000
  H   H931      1.0  0.89291  0.15270  0.02629  1.0000
  H   H932      1.0  0.86300  0.22864  0.11392  1.0000
  C   C1181     1.0  0.56850  0.18358  0.25203  1.0000
  H   H933      1.0  0.69803  0.20351  0.07219  1.0000
  S   S156      1.0  0.50726  0.15132  0.12923  1.0000
  H   H934      1.0  0.54893  0.14096  0.20994  1.0000
  C   C1182     1.0  0.59009  0.10061  0.25568  1.0000
  H   H935      1.0  0.82172  0.21291  0.25626  1.0000
  H   H936      1.0  0.60998  0.17104  0.11532  1.0000
  H   H937      1.0  0.91481  0.18555  0.07817  1.0000
  C   C1183     1.0  0.81865  0.20785  0.19143  1.0000
  C   C1184     1.0  0.85161  0.17674  0.06568  1.0000
  C   C1185     1.0  0.87393  0.18952  0.04943  1.0000
  C   C1186     1.0  0.88884  0.18118  0.03426  1.0000
  C   C1187     1.0  0.88146  0.15961  0.03697  1.0000
  C   C1188     1.0  0.96344  0.17344  0.06772  1.0000
  C   C1189     1.0  0.47968  0.15819  0.98310  1.0000
  H   H938      1.0  0.60445  0.17185  0.16863  1.0000
  H   H939      1.0  0.60868  0.10659  0.24778  1.0000
  H   H940      1.0  0.86591  0.00160  0.46867  1.0000
  H   H941      1.0  0.68182  0.17416  0.02360  1.0000
  C   C1190     1.0  0.93614  0.18835  0.03467  1.0000
  C   C1191     1.0  0.55513  0.07184  0.28310  1.0000
  H   H942      1.0  0.52500  0.16209  0.22123  1.0000
  C   C1192     1.0  0.71703  0.19430  0.01536  1.0000
  C   C1193     1.0  0.51196  0.08165  0.21688  1.0000
  C   C1194     1.0  0.74449  0.20820  0.09717  1.0000
  C   C1195     1.0  0.95583  0.18528  0.01986  1.0000
  H   H943      1.0  0.83988  0.19091  0.13267  1.0000
  C   C1196     1.0  0.82166  0.19410  0.17408  1.0000
  H   H944      1.0  0.94464  0.20455  0.37144  1.0000
  C   C1197     1.0  0.50067  0.20690  0.24074  1.0000
  H   H945      1.0  0.57438  0.19593  0.26291  1.0000
  H   H946      1.0  0.67938  0.16886  0.24938  1.0000
  H   H947      1.0  0.84005  0.18344  0.07672  1.0000
  H   H948      1.0  0.87935  0.20590  0.04868  1.0000
  H   H949      1.0  0.93898  0.17265  0.10696  1.0000
  C   C1198     1.0  0.76832  0.22988  0.26682  1.0000
  H   H950      1.0  0.97399  0.16773  0.08048  1.0000
  H   H951      1.0  0.54660  0.05591  0.29653  1.0000
  H   H952      1.0  0.53023  0.21424  0.02291  1.0000
  C   C1199     1.0  0.54078  0.16457  0.22853  1.0000
  C   C1200     1.0  0.69618  0.18674  0.00769  1.0000
  H   H953      1.0  0.85501  0.21245  0.00850  1.0000
  H   H954      1.0  0.78923  0.20246  0.04183  1.0000
  C   C1201     1.0  0.92173  0.22433  0.01404  1.0000
  C   C1202     1.0  0.47826  0.00345  0.33462  1.0000
  H   H955      1.0  0.48935  0.19462  0.02795  1.0000
  H   H956      1.0  0.80675  0.16055  0.99362  1.0000
  C   C1203     1.0  0.79812  0.17168  0.99610  1.0000
  H   H957      1.0  0.69207  0.22400  0.02680  1.0000
  C   C1204     1.0  0.69314  0.23012  0.04631  1.0000
  C   C1205     1.0  0.52286  0.23478  0.04959  1.0000
  C   C1206     1.0  0.83210  0.22917  0.18127  1.0000
  C   C1207     1.0  0.74878  0.22810  0.10190  1.0000
  H   H958      1.0  0.51555  0.16435  0.98021  1.0000
  C   C1208     1.0  0.48374  0.19772  0.15548  1.0000
  C   C1209     1.0  0.48375  0.20870  0.29040  1.0000
  C   C1210     1.0  0.93151  0.23347  0.03515  1.0000
  C   C1211     1.0  0.69385  0.19533  0.97952  1.0000
  H   H959      1.0  0.75340  0.23465  0.26982  1.0000
  H   H960      1.0  0.48138  0.18201  0.22480  1.0000
  C   C1212     1.0  0.48247  0.22771  0.07082  1.0000
  H   H961      1.0  0.48449  0.21620  0.30869  1.0000
  H   H962      1.0  0.87540  0.23371  0.36138  1.0000
  C   C1213     1.0  0.91333  0.23583  0.99387  1.0000
  C   C1214     1.0  0.47941  0.18900  0.13165  1.0000
  C   C1215     1.0  0.48177  0.18922  0.24333  1.0000
  H   H963      1.0  0.48300  0.12002  0.32206  1.0000
  H   H964      1.0  0.88660  0.03319  0.61311  1.0000
  C   C1216     1.0  0.86743  0.98964  0.51382  1.0000
  C   C1217     1.0  0.97353  0.17328  0.79067  1.0000
  C   C1218     1.0  0.91582  0.18208  0.93372  1.0000
  Fe  Fe78      1.0  0.87601  0.12087  0.65758  1.0000
  S   S157      1.0  0.90409  0.11420  0.67640  1.0000
  S   S158      1.0  0.87062  0.15170  0.65215  1.0000
  Fe  Fe79      1.0  0.85655  0.07750  0.64834  1.0000
  S   S159      1.0  0.88333  0.06755  0.66540  1.0000
  Fe  Fe80      1.0  0.87677  0.08348  0.70163  1.0000
  S   S160      1.0  0.87109  0.06396  0.74817  1.0000
  Fe  Fe81      1.0  0.90821  0.09888  0.63852  1.0000
  S   S161      1.0  0.94082  0.09945  0.60879  1.0000
  S   S162      1.0  0.84806  0.09141  0.68647  1.0000
  S   S163      1.0  0.88193  0.10765  0.61788  1.0000
  H   H965      1.0  0.95768  0.22198  0.96381  1.0000
  Fe  Fe82      1.0  0.86603  0.18007  0.83916  1.0000
  S   S164      1.0  0.88982  0.18772  0.86875  1.0000
  S   S165      1.0  0.85216  0.20382  0.81871  1.0000
  Fe  Fe83      1.0  0.85933  0.13420  0.85609  1.0000
  S   S166      1.0  0.88199  0.13791  0.88803  1.0000
  S   S167      1.0  0.83959  0.10224  0.85287  1.0000
  Fe  Fe84      1.0  0.86450  0.15941  0.90275  1.0000
  S   S168      1.0  0.85342  0.16031  0.95091  1.0000
  Fe  Fe85      1.0  0.90504  0.16584  0.85120  1.0000
  S   S169      1.0  0.97190  0.13752  0.73161  1.0000
  S   S170      1.0  0.83956  0.15299  0.87441  1.0000
  S   S171      1.0  0.88358  0.16080  0.81783  1.0000
  C   C1219     1.0  0.88510  0.98771  0.70950  1.0000
  C   C1220     1.0  0.85801  0.20139  0.92993  1.0000
  C   C1221     1.0  0.85531  0.18540  0.95475  1.0000
  H   H966      1.0  0.85195  0.23055  0.85776  1.0000
  H   H967      1.0  0.85804  0.19827  0.90819  1.0000
  C   C1222     1.0  0.79209  0.99417  0.67807  1.0000
  C   C1223     1.0  0.94162  0.13926  0.77993  1.0000
  C   C1224     1.0  0.93540  0.14713  0.80439  1.0000
  H   H968      1.0  0.96997  0.98763  0.64562  1.0000
  H   H969      1.0  0.74744  0.03854  0.68555  1.0000
  C   C1225     1.0  0.92708  0.06207  0.76036  1.0000
  C   C1226     1.0  0.90140  0.02899  0.65077  1.0000
  H   H970      1.0  0.91830  0.13989  0.81921  1.0000
  H   H971      1.0  0.95939  0.06395  0.59454  1.0000
  C   C1227     1.0  0.86529  0.07516  0.77791  1.0000
  C   C1228     1.0  0.85005  0.06217  0.80493  1.0000
  C   C1229     1.0  0.84298  0.07070  0.82814  1.0000
  C   C1230     1.0  0.85173  0.09219  0.82493  1.0000
  C   C1231     1.0  0.86842  0.10511  0.79878  1.0000
  C   C1232     1.0  0.87492  0.09661  0.77498  1.0000
  H   H972      1.0  0.84278  0.04557  0.80737  1.0000
  H   H973      1.0  0.83026  0.06064  0.84838  1.0000
  H   H974      1.0  0.87561  0.12168  0.79635  1.0000
  H   H975      1.0  0.88716  0.10663  0.75431  1.0000
  C   C1233     1.0  0.96595  0.12059  0.60432  1.0000
  H   H976      1.0  0.92387  0.05493  0.57704  1.0000
  C   C1234     1.0  0.74515  0.02344  0.69949  1.0000
  H   H977      1.0  0.77175  0.18217  0.80789  1.0000
  C   C1235     1.0  0.50886  0.22207  0.95587  1.0000
  C   C1236     1.0  0.96750  0.13327  0.62435  1.0000
  C   C1237     1.0  0.79840  0.99236  0.70533  1.0000
  C   C1238     1.0  0.81406  0.00962  0.71053  1.0000
  H   H978      1.0  0.92033  0.02979  0.76141  1.0000
  H   H979      1.0  0.95290  0.13048  0.64268  1.0000
  C   C1239     1.0  0.87034  0.22468  0.78848  1.0000
  C   C1240     1.0  0.88956  0.22353  0.76950  1.0000
  C   C1241     1.0  0.95874  0.98868  0.71711  1.0000
  H   H980      1.0  0.89358  0.20937  0.77317  1.0000
  C   C1242     1.0  0.48807  0.21002  0.95167  1.0000
  C   C1243     1.0  0.93728  0.20824  0.62646  1.0000
  C   C1244     1.0  0.93811  0.18821  0.62802  1.0000
  C   C1245     1.0  0.91775  0.17086  0.63561  1.0000
  C   C1246     1.0  0.89639  0.17345  0.64133  1.0000
  C   C1247     1.0  0.89556  0.19360  0.63864  1.0000
  C   C1248     1.0  0.91596  0.21096  0.63152  1.0000
  H   H981      1.0  0.95458  0.18605  0.62370  1.0000
  H   H982      1.0  0.91868  0.15552  0.63685  1.0000
  H   H983      1.0  0.87917  0.19577  0.64253  1.0000
  H   H984      1.0  0.91524  0.22642  0.62991  1.0000
  S   S172      1.0  0.82957  0.05440  0.63390  1.0000
  C   C1249     1.0  0.94318  0.19672  0.75592  1.0000
  C   C1250     1.0  0.85381  0.99550  0.75212  1.0000
  H   H985      1.0  0.92841  0.18242  0.76402  1.0000
  C   C1251     1.0  0.80417  0.05188  0.76678  1.0000
  H   H986      1.0  0.93037  0.07113  0.67513  1.0000
  C   C1252     1.0  0.78291  0.19502  0.75986  1.0000
  C   C1253     1.0  0.95138  0.16409  0.80984  1.0000
  H   H987      1.0  0.95640  0.18899  0.71538  1.0000
  H   H988      1.0  0.88468  0.02063  0.66622  1.0000
  C   C1254     1.0  0.97146  0.10600  0.79803  1.0000
  C   C1255     1.0  0.74719  0.02139  0.72907  1.0000
  H   H989      1.0  0.88013  0.02478  0.74613  1.0000
  C   C1256     1.0  0.78804  0.03348  0.76518  1.0000
  C   C1257     1.0  0.92496  0.19676  0.97510  1.0000
  H   H990      1.0  0.97694  0.21436  0.83555  1.0000
  H   H991      1.0  0.96917  0.04777  0.69303  1.0000
  H   H992      1.0  0.84468  0.00989  0.62569  1.0000
  C   C1258     1.0  0.95198  0.20991  0.92571  1.0000
  C   C1259     1.0  0.94373  0.01666  0.70480  1.0000
  H   H993      1.0  0.71082  0.21767  0.93677  1.0000
  H   H994      1.0  0.70298  0.03967  0.76448  1.0000
  H   H995      1.0  0.79887  0.20802  0.71282  1.0000
  H   H996      1.0  0.75051  0.03494  0.73800  1.0000
  H   H997      1.0  0.89528  0.22524  0.69177  1.0000
  C   C1260     1.0  0.83951  0.99309  0.62977  1.0000
  H   H998      1.0  0.88566  0.99817  0.50962  1.0000
  C   C1261     1.0  0.89205  0.00623  0.71877  1.0000
  C   C1262     1.0  0.86029  0.22146  0.93334  1.0000
  C   C1263     1.0  0.90233  0.03616  0.62048  1.0000
  P   P42       1.0  0.84477  0.20512  0.70255  1.0000
  C   C1264     1.0  0.82171  0.19773  0.73607  1.0000
  C   C1265     1.0  0.83197  0.19503  0.67423  1.0000
  C   C1266     1.0  0.83177  0.17570  0.66946  1.0000
  C   C1267     1.0  0.82272  0.16845  0.64677  1.0000
  C   C1268     1.0  0.81318  0.18019  0.62905  1.0000
  C   C1269     1.0  0.81279  0.19927  0.63398  1.0000
  C   C1270     1.0  0.82220  0.20671  0.65637  1.0000
  C   C1271     1.0  0.82436  0.18942  0.76432  1.0000
  C   C1272     1.0  0.80630  0.18372  0.79003  1.0000
  C   C1273     1.0  0.78556  0.18640  0.78782  1.0000
  H   H999      1.0  0.89308  0.17239  0.97743  1.0000
  C   C1274     1.0  0.85631  0.99156  0.49076  1.0000
  C   C1275     1.0  0.86740  0.19532  0.70965  1.0000
  C   C1276     1.0  0.89049  0.20871  0.70136  1.0000
  C   C1277     1.0  0.90803  0.20073  0.70447  1.0000
  C   C1278     1.0  0.90271  0.17939  0.71592  1.0000
  C   C1279     1.0  0.87982  0.16614  0.72553  1.0000
  C   C1280     1.0  0.86220  0.17406  0.72272  1.0000
  C   C1281     1.0  0.74044  0.00602  0.68770  1.0000
  H   H1000     1.0  0.81890  0.00831  0.73161  1.0000
  C   C1282     1.0  0.73340  0.21882  0.96641  1.0000
  H   H1001     1.0  0.92560  0.05968  0.78425  1.0000
  P   P43       1.0  0.92017  0.02586  0.70059  1.0000
  H   H1002     1.0  0.83917  0.16631  0.68248  1.0000
  H   H1003     1.0  0.82389  0.15399  0.64244  1.0000
  H   H1004     1.0  0.80653  0.17466  0.61117  1.0000
  H   H1005     1.0  0.80568  0.20853  0.61998  1.0000
  H   H1006     1.0  0.82212  0.22173  0.65940  1.0000
  H   H1007     1.0  0.84048  0.18775  0.76684  1.0000
  H   H1008     1.0  0.80870  0.17768  0.81182  1.0000
  S   S173      1.0  0.96318  0.22960  0.61700  1.0000
  H   H1009     1.0  0.84283  0.98860  0.67526  1.0000
  C   C1283     1.0  0.85963  0.22560  0.96154  1.0000
  H   H1010     1.0  0.95612  0.09885  0.79105  1.0000
  H   H1011     1.0  0.92584  0.21103  0.69681  1.0000
  H   H1012     1.0  0.91628  0.17301  0.71689  1.0000
  H   H1013     1.0  0.87594  0.14964  0.73427  1.0000
  H   H1014     1.0  0.84458  0.16348  0.72998  1.0000
  H   H1015     1.0  0.77653  0.05714  0.83260  1.0000
  C   C1284     1.0  0.92943  0.06822  0.69892  1.0000
  H   H1016     1.0  0.76790  0.19654  0.96029  1.0000
  C   C1285     1.0  0.96605  0.03120  0.69927  1.0000
  H   H1017     1.0  0.81213  0.22987  0.87328  1.0000
  H   H1018     1.0  0.67766  0.18946  0.97363  1.0000
  H   H1019     1.0  0.84147  0.99887  0.76791  1.0000
  H   H1020     1.0  0.81236  0.07471  0.79219  1.0000
  H   H1021     1.0  0.93731  0.10073  0.69820  1.0000
  H   H1022     1.0  0.95831  0.05088  0.64740  1.0000
  H   H1023     1.0  0.82029  0.05927  0.74959  1.0000
  C   C1286     1.0  0.79978  0.06052  0.79084  1.0000
  C   C1287     1.0  0.94022  0.99530  0.71417  1.0000
  C   C1288     1.0  0.77950  0.05057  0.81363  1.0000
  C   C1289     1.0  0.82341  0.02868  0.68877  1.0000
  C   C1290     1.0  0.96990  0.11511  0.82213  1.0000
  C   C1291     1.0  0.71889  0.99359  0.80945  1.0000
  H   H1024     1.0  0.97358  0.09893  0.66203  1.0000
  S   S174      1.0  0.94338  0.17446  0.83971  1.0000
  C   C1292     1.0  0.74519  0.00201  0.74683  1.0000
  C   C1293     1.0  0.81724  0.03059  0.66148  1.0000
  C   C1294     1.0  0.80137  0.01338  0.65623  1.0000
  H   H1025     1.0  0.73923  0.00761  0.66464  1.0000
  H   H1026     1.0  0.84193  0.13345  0.79378  1.0000
  H   H1027     1.0  0.96826  0.22048  0.91088  1.0000
  C   C1295     1.0  0.93311  0.08511  0.71191  1.0000
  H   H1028     1.0  0.90396  0.17113  0.92518  1.0000
  H   H1029     1.0  0.93548  0.20698  0.79556  1.0000
  H   H1030     1.0  0.93371  0.09515  0.75253  1.0000
  H   H1031     1.0  0.83535  0.04190  0.69326  1.0000
  C   C1296     1.0  0.96662  0.22918  0.76374  1.0000
  P   P44       1.0  0.74707  0.99941  0.78540  1.0000
  C   C1297     1.0  0.94594  0.21067  0.95566  1.0000
  H   H1032     1.0  0.94139  0.19495  0.89150  1.0000
  H   H1033     1.0  0.48200  0.16044  0.95910  1.0000
  C   C1298     1.0  0.96382  0.14836  0.76086  1.0000
  C   C1299     1.0  0.94268  0.04593  0.64018  1.0000
  H   H1034     1.0  0.76698  0.19748  0.75821  1.0000
  H   H1035     1.0  0.92928  0.12603  0.77595  1.0000
  H   H1036     1.0  0.78724  0.17086  0.95528  1.0000
  H   H1037     1.0  0.79139  0.99679  0.79527  1.0000
  C   C1300     1.0  0.93155  0.08201  0.74262  1.0000
  H   H1038     1.0  0.79167  0.02700  0.74638  1.0000
  C   C1301     1.0  0.76337  0.03208  0.81218  1.0000
  C   C1302     1.0  0.94347  0.05320  0.60996  1.0000
  C   C1303     1.0  0.71487  0.05059  0.77299  1.0000
  C   C1304     1.0  0.71304  0.04704  0.80386  1.0000
  C   C1305     1.0  0.72831  0.06118  0.81482  1.0000
  C   C1306     1.0  0.74554  0.07881  0.79495  1.0000
  C   C1307     1.0  0.74759  0.08247  0.76387  1.0000
  C   C1308     1.0  0.73198  0.06828  0.75308  1.0000
  P   P45       1.0  0.76937  0.10546  0.73782  1.0000
  C   C1309     1.0  0.79288  0.11525  0.75437  1.0000
  C   C1310     1.0  0.77988  0.09822  0.70437  1.0000
  C   C1311     1.0  0.78342  0.07909  0.70702  1.0000
  C   C1312     1.0  0.79182  0.07336  0.68143  1.0000
  C   C1313     1.0  0.79702  0.08679  0.65300  1.0000
  C   C1314     1.0  0.79369  0.10591  0.65013  1.0000
  C   C1315     1.0  0.78508  0.11162  0.67569  1.0000
  C   C1316     1.0  0.81355  0.11167  0.74592  1.0000
  C   C1317     1.0  0.83117  0.11835  0.75992  1.0000
  C   C1318     1.0  0.82837  0.12862  0.78252  1.0000
  C   C1319     1.0  0.80806  0.13265  0.79064  1.0000
  C   C1320     1.0  0.79044  0.12623  0.77639  1.0000
  C   C1321     1.0  0.75765  0.12573  0.72845  1.0000
  C   C1322     1.0  0.73388  0.12099  0.73209  1.0000
  C   C1323     1.0  0.72518  0.13680  0.72355  1.0000
  C   C1324     1.0  0.74013  0.15736  0.71109  1.0000
  C   C1325     1.0  0.76379  0.16217  0.70739  1.0000
  C   C1326     1.0  0.77251  0.14648  0.71634  1.0000
  H   H1039     1.0  0.69977  0.03336  0.81934  1.0000
  H   H1040     1.0  0.72694  0.05841  0.83875  1.0000
  H   H1041     1.0  0.75727  0.08933  0.80408  1.0000
  H   H1042     1.0  0.73306  0.07087  0.72922  1.0000
  H   H1043     1.0  0.78021  0.06884  0.72892  1.0000
  H   H1044     1.0  0.79501  0.05877  0.68358  1.0000
  H   H1045     1.0  0.80408  0.08253  0.63321  1.0000
  H   H1046     1.0  0.79819  0.11643  0.62805  1.0000
  H   H1047     1.0  0.78284  0.12656  0.67289  1.0000
  H   H1048     1.0  0.81626  0.10362  0.72874  1.0000
  H   H1049     1.0  0.84695  0.11534  0.75328  1.0000
  H   H1050     1.0  0.80599  0.14053  0.80830  1.0000
  H   H1051     1.0  0.77475  0.12940  0.78306  1.0000
  H   H1052     1.0  0.72202  0.10515  0.74132  1.0000
  H   H1053     1.0  0.70682  0.13306  0.72635  1.0000
  H   H1054     1.0  0.73338  0.16955  0.70416  1.0000
  H   H1055     1.0  0.77542  0.17802  0.69731  1.0000
  H   H1056     1.0  0.79090  0.15045  0.71334  1.0000
  C   C1327     1.0  0.90977  0.18273  0.96367  1.0000
  C   C1328     1.0  0.92334  0.04833  0.60012  1.0000
  C   C1329     1.0  0.92160  0.03378  0.66095  1.0000
  H   H1057     1.0  0.86240  0.23376  0.91413  1.0000
  H   H1058     1.0  0.79659  0.01479  0.63510  1.0000
  C   C1330     1.0  0.92460  0.04805  0.71666  1.0000
  H   H1059     1.0  0.52429  0.21856  0.94878  1.0000
  C   C1331     1.0  0.80098  0.20083  0.73413  1.0000
  C   C1332     1.0  0.76749  0.02341  0.78784  1.0000
  H   H1060     1.0  0.95331  0.11491  0.83383  1.0000
  C   C1333     1.0  0.93692  0.19556  0.91475  1.0000
  C   C1334     1.0  0.71250  0.21126  0.95882  1.0000
  C   C1335     1.0  0.92392  0.04519  0.74737  1.0000
  H   H1061     1.0  0.83271  0.99291  0.58661  1.0000
  C   C1336     1.0  0.87600  0.01016  0.73982  1.0000
  H   H1062     1.0  0.74788  0.02467  0.83015  1.0000
  C   C1337     1.0  0.94716  0.21088  0.77368  1.0000
  C   C1338     1.0  0.95894  0.20034  0.72864  1.0000
  H   H1063     1.0  0.87454  0.23238  0.64507  1.0000
  H   H1064     1.0  0.70278  0.99977  0.77326  1.0000
  H   H1065     1.0  0.66425  0.99032  0.80666  1.0000
  H   H1066     1.0  0.48733  0.19727  0.94124  1.0000
  C   C1339     1.0  0.67849  0.98954  0.81618  1.0000
  C   C1340     1.0  0.85635  0.23311  0.68857  1.0000
  C   C1341     1.0  0.70044  0.99492  0.79729  1.0000
  H   H1067     1.0  0.89355  0.23497  0.83445  1.0000
  H   H1068     1.0  0.74776  0.23078  0.94972  1.0000
  H   H1069     1.0  0.89986  0.23611  0.88510  1.0000
  C   C1342     1.0  0.71498  0.98653  0.84070  1.0000
  C   C1343     1.0  0.77621  0.19207  0.97738  1.0000
  C   C1344     1.0  0.78708  0.17750  0.97447  1.0000
  C   C1345     1.0  0.73760  0.98655  0.70556  1.0000
  H   H1070     1.0  0.90514  0.22895  0.97793  1.0000
  Fe  Fe86      1.0  0.88146  0.36497  0.23143  1.0000
  S   S175      1.0  0.86753  0.34327  0.27764  1.0000
  S   S176      1.0  0.87948  0.39697  0.22785  1.0000
  Fe  Fe87      1.0  0.90396  0.33669  0.20678  1.0000
  S   S177      1.0  0.89223  0.31326  0.25125  1.0000
  S   S178      1.0  0.92905  0.33244  0.16997  1.0000
  Fe  Fe88      1.0  0.85849  0.31824  0.25332  1.0000
  S   S179      1.0  0.82734  0.28898  0.27376  1.0000
  Fe  Fe89      1.0  0.90242  0.34040  0.27115  1.0000
  S   S180      1.0  0.92021  0.34063  0.30901  1.0000
  S   S181      1.0  0.86964  0.34010  0.20713  1.0000
  S   S182      1.0  0.91685  0.36358  0.22667  1.0000
  Fe  Fe90      1.0  0.86786  0.26794  0.06589  1.0000
  S   S183      1.0  0.83133  0.25999  0.09168  1.0000
  S   S184      1.0  0.89981  0.27520  0.08296  1.0000
  C   C1346     1.0  0.96242  0.36585  0.27073  1.0000
  Fe  Fe91      1.0  0.82728  0.27535  0.04721  1.0000
  H   H1071     1.0  0.58892  0.46442  0.22773  1.0000
  H   H1072     1.0  0.89320  0.25198  0.41911  1.0000
  Fe  Fe92      1.0  0.51232  0.38538  0.10708  1.0000
  S   S185      1.0  0.51839  0.37311  0.06666  1.0000
  S   S186      1.0  0.52643  0.37676  0.14623  1.0000
  C   C1347     1.0  0.66492  0.28361  0.17003  1.0000
  H   H1073     1.0  0.59746  0.25564  0.21039  1.0000
  C   C1348     1.0  0.71428  0.35642  0.11109  1.0000
  H   H1074     1.0  0.94996  0.35284  0.34702  1.0000
  S   S187      1.0  0.63350  0.42041  0.12259  1.0000
  C   C1349     1.0  0.94938  0.43337  0.21052  1.0000
  H   H1075     1.0  0.52493  0.27369  0.01720  1.0000
  H   H1076     1.0  0.54379  0.27791  0.15839  1.0000
  C   C1350     1.0  0.91145  0.30391  0.38526  1.0000
  S   S188      1.0  0.74100  0.27537  0.12843  1.0000
  C   C1351     1.0  0.58517  0.27206  0.10046  1.0000
  Fe  Fe93      1.0  0.82972  0.42489  0.09701  1.0000
  S   S189      1.0  0.82488  0.43504  0.05089  1.0000
  S   S190      1.0  0.85923  0.44366  0.11237  1.0000
  Fe  Fe94      1.0  0.78538  0.38820  0.11639  1.0000
  S   S191      1.0  0.77693  0.39457  0.07212  1.0000
  S   S192      1.0  0.76141  0.36293  0.15576  1.0000
  Fe  Fe95      1.0  0.81424  0.40088  0.05261  1.0000
  C   C1352     1.0  0.52235  0.32878  0.11935  1.0000
  Fe  Fe96      1.0  0.78808  0.42771  0.07490  1.0000
  S   S193      1.0  0.76426  0.44494  0.06523  1.0000
  S   S194      1.0  0.82179  0.39130  0.09704  1.0000
  S   S195      1.0  0.79386  0.42082  0.12078  1.0000
  C   C1353     1.0  0.74997  0.29999  0.13523  1.0000
  C   C1354     1.0  0.74814  0.30169  0.16477  1.0000
  C   C1355     1.0  0.75212  0.32115  0.17093  1.0000
  C   C1356     1.0  0.75820  0.33897  0.14751  1.0000
  C   C1357     1.0  0.76125  0.33745  0.11777  1.0000
  C   C1358     1.0  0.75703  0.31790  0.11164  1.0000
  H   H1077     1.0  0.74353  0.28802  0.18299  1.0000
  H   H1078     1.0  0.75071  0.32235  0.19379  1.0000
  H   H1079     1.0  0.76632  0.35121  0.09953  1.0000
  H   H1080     1.0  0.75866  0.31656  0.08878  1.0000
  C   C1359     1.0  0.75083  0.44995  0.09791  1.0000
  C   C1360     1.0  0.72733  0.44680  0.10383  1.0000
  H   H1081     1.0  0.71780  0.34351  0.10405  1.0000
  C   C1361     1.0  0.82891  0.35410  0.99839  1.0000
  C   C1362     1.0  0.75317  0.46500  0.14059  1.0000
  C   C1363     1.0  0.76367  0.45863  0.11676  1.0000
  C   C1364     1.0  0.82517  0.26866  0.18135  1.0000
  H   H1082     1.0  0.94505  0.34391  0.41799  1.0000
  H   H1083     1.0  0.78189  0.46124  0.11222  1.0000
  C   C1365     1.0  0.55614  0.38921  0.13916  1.0000
  C   C1366     1.0  0.56546  0.39556  0.16223  1.0000
  C   C1367     1.0  0.58925  0.40528  0.15716  1.0000
  C   C1368     1.0  0.60378  0.40821  0.12916  1.0000
  C   C1369     1.0  0.59451  0.40147  0.10626  1.0000
  C   C1370     1.0  0.57064  0.39224  0.11109  1.0000
  H   H1084     1.0  0.55422  0.39351  0.18378  1.0000
  H   H1085     1.0  0.59633  0.41048  0.17493  1.0000
  H   H1086     1.0  0.60578  0.40393  0.08461  1.0000
  H   H1087     1.0  0.56344  0.38736  0.09326  1.0000
  C   C1371     1.0  0.52815  0.46863  0.10437  1.0000
  C   C1372     1.0  0.92108  0.23867  0.34063  1.0000
  C   C1373     1.0  0.82269  0.36322  0.02135  1.0000
  C   C1374     1.0  0.81614  0.44263  0.18121  1.0000
  H   H1088     1.0  0.63254  0.26151  0.17010  1.0000
  C   C1375     1.0  0.60085  0.38691  0.03339  1.0000
  C   C1376     1.0  0.49850  0.35505  0.21954  1.0000
  H   H1089     1.0  0.69234  0.43779  0.04114  1.0000
  C   C1377     1.0  0.93581  0.29305  0.32541  1.0000
  H   H1090     1.0  0.51581  0.33293  0.99820  1.0000
  C   C1378     1.0  0.78665  0.24012  0.24133  1.0000
  C   C1379     1.0  0.94086  0.42111  0.15860  1.0000
  H   H1091     1.0  0.47879  0.44310  0.17972  1.0000
  C   C1380     1.0  0.62459  0.39630  0.02895  1.0000
  C   C1381     1.0  0.91948  0.31674  0.14610  1.0000
  C   C1382     1.0  0.93503  0.30909  0.13102  1.0000
  C   C1383     1.0  0.92848  0.29640  0.11194  1.0000
  C   C1384     1.0  0.90645  0.29154  0.10709  1.0000
  C   C1385     1.0  0.89074  0.29935  0.12182  1.0000
  C   C1386     1.0  0.89726  0.31187  0.14156  1.0000
  H   H1092     1.0  0.95223  0.31290  0.13425  1.0000
  H   H1093     1.0  0.94069  0.29047  0.10063  1.0000
  H   H1094     1.0  0.87368  0.29571  0.11811  1.0000
  H   H1095     1.0  0.88538  0.31811  0.15277  1.0000
  C   C1387     1.0  0.87397  0.40919  0.19517  1.0000
  C   C1388     1.0  0.86388  0.39788  0.17634  1.0000
  C   C1389     1.0  0.85909  0.40827  0.15087  1.0000
  C   C1390     1.0  0.86484  0.42998  0.14396  1.0000
  C   C1391     1.0  0.87506  0.44118  0.16278  1.0000
  C   C1392     1.0  0.87926  0.43079  0.18853  1.0000
  H   H1096     1.0  0.85953  0.38115  0.18154  1.0000
  H   H1097     1.0  0.85132  0.39950  0.13640  1.0000
  H   H1098     1.0  0.87942  0.45792  0.15762  1.0000
  H   H1099     1.0  0.88690  0.43956  0.20313  1.0000
  C   C1393     1.0  0.79895  0.28706  0.27317  1.0000
  C   C1394     1.0  0.79221  0.28952  0.24621  1.0000
  C   C1395     1.0  0.76867  0.28342  0.24665  1.0000
  C   C1396     1.0  0.75191  0.27512  0.27411  1.0000
  C   C1397     1.0  0.75876  0.27376  0.30097  1.0000
  C   C1398     1.0  0.78214  0.27934  0.30050  1.0000
  H   H1100     1.0  0.80502  0.29487  0.22504  1.0000
  H   H1101     1.0  0.76355  0.28469  0.22575  1.0000
  H   H1102     1.0  0.78718  0.27700  0.32139  1.0000
  C   C1399     1.0  0.95245  0.31059  0.27241  1.0000
  C   C1400     1.0  0.94936  0.35674  0.30045  1.0000
  C   C1401     1.0  0.51538  0.31569  0.14829  1.0000
  H   H1103     1.0  0.60219  0.27427  0.10395  1.0000
  C   C1402     1.0  0.48849  0.47132  0.01950  1.0000
  C   C1403     1.0  0.56209  0.33276  0.11802  1.0000
  C   C1404     1.0  0.55525  0.31994  0.14742  1.0000
  C   C1405     1.0  0.53175  0.31143  0.16241  1.0000
  P   P46       1.0  0.57615  0.31579  0.16742  1.0000
  C   C1406     1.0  0.57278  0.28835  0.17749  1.0000
  C   C1407     1.0  0.60517  0.33115  0.14512  1.0000
  C   C1408     1.0  0.62013  0.32152  0.13327  1.0000
  H   H1104     1.0  0.82647  0.44745  0.15824  1.0000
  H   H1105     1.0  0.50042  0.43122  0.99655  1.0000
  C   C1409     1.0  0.63551  0.36491  0.12254  1.0000
  C   C1410     1.0  0.61302  0.35301  0.13925  1.0000
  C   C1411     1.0  0.58815  0.28179  0.19172  1.0000
  C   C1412     1.0  0.58561  0.26066  0.19938  1.0000
  C   C1413     1.0  0.50561  0.23947  0.06752  1.0000
  H   H1106     1.0  0.48582  0.24956  0.19350  1.0000
  C   C1414     1.0  0.55529  0.27340  0.17041  1.0000
  C   C1415     1.0  0.57074  0.32559  0.20031  1.0000
  C   C1416     1.0  0.57161  0.31519  0.22860  1.0000
  C   C1417     1.0  0.56669  0.32271  0.25381  1.0000
  C   C1418     1.0  0.55976  0.35100  0.22317  1.0000
  Fe  Fe97      1.0  0.64065  0.44261  0.15192  1.0000
  H   H1107     1.0  0.74226  0.35552  0.03993  1.0000
  S   S196      1.0  0.66983  0.47287  0.13206  1.0000
  H   H1108     1.0  0.58004  0.33985  0.10606  1.0000
  H   H1109     1.0  0.52613  0.30178  0.18525  1.0000
  H   H1110     1.0  0.61456  0.30481  0.13645  1.0000
  C   C1419     1.0  0.65651  0.27145  0.12672  1.0000
  H   H1111     1.0  0.88358  0.26486  0.46371  1.0000
  H   H1112     1.0  0.64140  0.38177  0.11818  1.0000
  H   H1113     1.0  0.60189  0.36105  0.14735  1.0000
  H   H1114     1.0  0.60223  0.29304  0.19665  1.0000
  H   H1115     1.0  0.79853  0.24878  0.16577  1.0000
  H   H1116     1.0  0.49031  0.25448  0.99142  1.0000
  C   C1420     1.0  0.57788  0.45702  0.25015  1.0000
  C   C1421     1.0  0.64653  0.26571  0.05785  1.0000
  H   H1117     1.0  0.57582  0.30120  0.23160  1.0000
  H   H1118     1.0  0.56742  0.31464  0.27554  1.0000
  C   C1422     1.0  0.89823  0.26948  0.20390  1.0000
  C   C1423     1.0  0.68119  0.32787  0.21870  1.0000
  Fe  Fe98      1.0  0.47885  0.40441  0.08640  1.0000
  H   H1119     1.0  0.95483  0.47706  0.37779  1.0000
  H   H1120     1.0  0.95846  0.44364  0.37107  1.0000
  C   C1424     1.0  0.70648  0.35474  0.14166  1.0000
  C   C1425     1.0  0.90541  0.46683  0.26139  1.0000
  H   H1121     1.0  0.95044  0.40335  0.34642  1.0000
  C   C1426     1.0  0.54275  0.45114  0.28768  1.0000
  C   C1427     1.0  0.70262  0.45349  0.04061  1.0000
  H   H1122     1.0  0.56897  0.39219  0.03221  1.0000
  C   C1428     1.0  0.70862  0.39073  0.13001  1.0000
  C   C1429     1.0  0.70347  0.37186  0.15139  1.0000
  H   H1123     1.0  0.72096  0.40710  0.08312  1.0000
  C   C1430     1.0  0.65222  0.35948  0.23152  1.0000
  P   P47       1.0  0.69479  0.37033  0.19097  1.0000
  C   C1431     1.0  0.69842  0.34757  0.21221  1.0000
  C   C1432     1.0  0.71893  0.34910  0.22085  1.0000
  C   C1433     1.0  0.72197  0.33133  0.23621  1.0000
  C   C1434     1.0  0.70472  0.31186  0.24280  1.0000
  C   C1435     1.0  0.71263  0.39392  0.19776  1.0000
  C   C1436     1.0  0.70295  0.40473  0.21576  1.0000
  C   C1437     1.0  0.71674  0.42345  0.21973  1.0000
  C   C1438     1.0  0.74025  0.43150  0.20591  1.0000
  C   C1439     1.0  0.75003  0.42087  0.18801  1.0000
  C   C1440     1.0  0.73628  0.40223  0.18379  1.0000
  H   H1124     1.0  0.55221  0.47052  0.24245  1.0000
  H   H1125     1.0  0.65934  0.35206  0.24785  1.0000
  H   H1126     1.0  0.70737  0.40440  0.13704  1.0000
  H   H1127     1.0  0.73297  0.36382  0.21500  1.0000
  H   H1128     1.0  0.73811  0.33255  0.24208  1.0000
  H   H1129     1.0  0.70740  0.29807  0.25410  1.0000
  H   H1130     1.0  0.68470  0.39919  0.22612  1.0000
  H   H1131     1.0  0.70905  0.43225  0.23243  1.0000
  H   H1132     1.0  0.75067  0.44644  0.20804  1.0000
  H   H1133     1.0  0.76813  0.42742  0.17659  1.0000
  H   H1134     1.0  0.74405  0.39452  0.16914  1.0000
  H   H1135     1.0  0.95774  0.30244  0.35470  1.0000
  C   C1441     1.0  0.54564  0.33718  0.10412  1.0000
  H   H1136     1.0  0.50904  0.45269  0.03193  1.0000
  C   C1442     1.0  0.84940  0.24254  0.34451  1.0000
  H   H1137     1.0  0.84411  0.32177  0.16043  1.0000
  C   C1443     1.0  0.71622  0.39230  0.09943  1.0000
  C   C1444     1.0  0.66517  0.36874  0.20159  1.0000
  C   C1445     1.0  0.49764  0.45537  0.01818  1.0000
  C   C1446     1.0  0.52105  0.30336  0.00441  1.0000
  S   S197      1.0  0.51701  0.41768  0.08115  1.0000
  H   H1138     1.0  0.76330  0.47246  0.15440  1.0000
  H   H1139     1.0  0.66805  0.36443  0.09955  1.0000
  H   H1140     1.0  0.93039  0.44774  0.14893  1.0000
  C   C1447     1.0  0.94272  0.40325  0.32758  1.0000
  C   C1448     1.0  0.75881  0.33472  0.02669  1.0000
  H   H1141     1.0  0.51395  0.25306  0.14720  1.0000
  P   P48       1.0  0.95493  0.44098  0.24405  1.0000
  H   H1142     1.0  0.78835  0.46133  0.23242  1.0000
  H   H1143     1.0  0.65980  0.28295  0.19364  1.0000
  C   C1449     1.0  0.50908  0.31784  0.04500  1.0000
  H   H1144     1.0  0.67458  0.45914  0.06726  1.0000
  H   H1145     1.0  0.95465  0.36319  0.25243  1.0000
  H   H1146     1.0  0.56298  0.46918  0.09849  1.0000
  H   H1147     1.0  0.67121  0.29487  0.23888  1.0000
  H   H1148     1.0  0.52588  0.30453  0.98057  1.0000
  C   C1450     1.0  0.64278  0.33346  0.11713  1.0000
  H   H1149     1.0  0.66557  0.32620  0.21134  1.0000
  S   S198      1.0  0.82550  0.38966  0.01231  1.0000
  C   C1451     1.0  0.62151  0.46463  0.08587  1.0000
  S   S199      1.0  0.74186  0.24480  0.20681  1.0000
  C   C1452     1.0  0.96525  0.32448  0.41000  1.0000
  H   H1150     1.0  0.90910  0.44168  0.24289  1.0000
  C   C1453     1.0  0.95987  0.35992  0.32400  1.0000
  C   C1454     1.0  0.48162  0.25232  0.17205  1.0000
  H   H1151     1.0  0.91464  0.27534  0.18734  1.0000
  C   C1455     1.0  0.50659  0.40971  0.17834  1.0000
  H   H1152     1.0  0.80057  0.31972  0.07981  1.0000
  C   C1456     1.0  0.64913  0.30311  0.02080  1.0000
  H   H1153     1.0  0.91328  0.27480  0.24065  1.0000
  C   C1457     1.0  0.62725  0.45753  0.06053  1.0000
  H   H1154     1.0  0.83970  0.25277  0.26211  1.0000
  H   H1155     1.0  0.69735  0.25201  0.11638  1.0000
  C   C1458     1.0  0.56982  0.43446  0.29970  1.0000
  H   H1156     1.0  0.91889  0.28723  0.28986  1.0000
  H   H1157     1.0  0.80776  0.35765  0.06860  1.0000
  S   S200      1.0  0.65216  0.43446  0.19352  1.0000
  H   H1158     1.0  0.55691  0.34643  0.27063  1.0000
  H   H1159     1.0  0.57462  0.42426  0.31563  1.0000
  H   H1160     1.0  0.88982  0.29971  0.32963  1.0000
  C   C1459     1.0  0.84745  0.23655  0.15264  1.0000
  H   H1161     1.0  0.90748  0.32737  0.40768  1.0000
  H   H1162     1.0  0.85664  0.25306  0.14297  1.0000
  C   C1460     1.0  0.68741  0.29537  0.15336  1.0000
  C   C1461     1.0  0.69445  0.29516  0.12339  1.0000
  C   C1462     1.0  0.67900  0.28347  0.10962  1.0000
  P   P49       1.0  0.68849  0.28220  0.07139  1.0000
  C   C1463     1.0  0.71581  0.30289  0.05274  1.0000
  C   C1464     1.0  0.71852  0.32371  0.05253  1.0000
  H   H1163     1.0  0.95244  0.39590  0.17378  1.0000
  C   C1465     1.0  0.61492  0.48314  0.29829  1.0000
  C   C1466     1.0  0.75633  0.31409  0.02694  1.0000
  C   C1467     1.0  0.73504  0.29821  0.04009  1.0000
  C   C1468     1.0  0.50255  0.40299  0.20963  1.0000
  C   C1469     1.0  0.55710  0.46058  0.25859  1.0000
  C   C1470     1.0  0.80891  0.32938  0.05720  1.0000
  H   H1164     1.0  0.91856  0.31495  0.36345  1.0000
  C   C1471     1.0  0.90515  0.31101  0.41040  1.0000
  H   H1165     1.0  0.69985  0.30375  0.16404  1.0000
  H   H1166     1.0  0.71222  0.30348  0.11147  1.0000
  H   H1167     1.0  0.70424  0.32762  0.06318  1.0000
  H   H1168     1.0  0.95050  0.31023  0.41605  1.0000
  H   H1169     1.0  0.79143  0.27790  0.13481  1.0000
  C   C1472     1.0  0.89547  0.29701  0.43875  1.0000
  H   H1170     1.0  0.73405  0.28231  0.04112  1.0000
  C   C1473     1.0  0.54121  0.26600  0.09072  1.0000
  C   C1474     1.0  0.89734  0.26857  0.41656  1.0000
  C   C1475     1.0  0.62166  0.43043  0.01261  1.0000
  C   C1476     1.0  0.76112  0.24314  0.04825  1.0000
  H   H1171     1.0  0.59132  0.30487  0.08539  1.0000
  C   C1477     1.0  0.90780  0.28266  0.38818  1.0000
  H   H1172     1.0  0.96808  0.43229  0.30066  1.0000
  H   H1173     1.0  0.49462  0.47783  0.34034  1.0000
  P   P50       1.0  0.51319  0.26171  0.08331  1.0000
  C   C1478     1.0  0.93257  0.25366  0.03623  1.0000
  H   H1174     1.0  0.85051  0.29287  0.19280  1.0000
  C   C1479     1.0  0.92326  0.40267  0.27843  1.0000
  C   C1480     1.0  0.91293  0.38669  0.30481  1.0000
  C   C1481     1.0  0.92272  0.38689  0.32930  1.0000
  C   C1482     1.0  0.91751  0.45436  0.25196  1.0000
  S   S201      1.0  0.51648  0.45502  0.29870  1.0000
  C   C1483     1.0  0.87087  0.24664  0.35117  1.0000
  H   H1175     1.0  0.74592  0.26733  0.32223  1.0000
  H   H1176     1.0  0.63223  0.44388  0.06319  1.0000
  S   S202      1.0  0.86444  0.28565  0.02253  1.0000
  C   C1484     1.0  0.64953  0.27158  0.15674  1.0000
  H   H1177     1.0  0.64524  0.25097  0.07192  1.0000
  H   H1178     1.0  0.71726  0.43990  0.08963  1.0000
  H   H1179     1.0  0.91539  0.40227  0.25972  1.0000
  H   H1180     1.0  0.89763  0.37386  0.30599  1.0000
  H   H1181     1.0  0.91506  0.37407  0.34929  1.0000
  S   S203      1.0  0.60939  0.43807  0.26072  1.0000
  H   H1182     1.0  0.89059  0.30255  0.45822  1.0000
  C   C1485     1.0  0.61528  0.48229  0.08321  1.0000
  C   C1486     1.0  0.84507  0.40786  0.29218  1.0000
  C   C1487     1.0  0.83393  0.40291  0.32262  1.0000
  C   C1488     1.0  0.80989  0.39465  0.33189  1.0000
  C   C1489     1.0  0.79699  0.39103  0.31077  1.0000
  C   C1490     1.0  0.80816  0.39560  0.28024  1.0000
  C   C1491     1.0  0.83220  0.40445  0.27108  1.0000
  P   P51       1.0  0.79247  0.39062  0.25223  1.0000
  C   C1492     1.0  0.80198  0.37314  0.23346  1.0000
  C   C1493     1.0  0.76220  0.37661  0.26942  1.0000
  C   C1494     1.0  0.75522  0.35655  0.28861  1.0000
  C   C1495     1.0  0.73188  0.34519  0.30166  1.0000
  C   C1496     1.0  0.71531  0.35375  0.29558  1.0000
  C   C1497     1.0  0.72208  0.37359  0.27621  1.0000
  C   C1498     1.0  0.74541  0.38490  0.26292  1.0000
  C   C1499     1.0  0.79726  0.37096  0.20583  1.0000
  C   C1500     1.0  0.80321  0.35635  0.19239  1.0000
  C   C1501     1.0  0.81283  0.34315  0.20707  1.0000
  C   C1502     1.0  0.81696  0.34477  0.23498  1.0000
  C   C1503     1.0  0.81185  0.35985  0.24798  1.0000
  C   C1504     1.0  0.79797  0.41611  0.22844  1.0000
  C   C1505     1.0  0.81164  0.42260  0.19881  1.0000
  C   C1506     1.0  0.79470  0.45046  0.22300  1.0000
  C   C1507     1.0  0.79005  0.43040  0.24063  1.0000
  H   H1183     1.0  0.86370  0.41402  0.28479  1.0000
  H   H1184     1.0  0.84395  0.40541  0.33897  1.0000
  H   H1185     1.0  0.80127  0.39088  0.35547  1.0000
  H   H1186     1.0  0.77843  0.38463  0.31838  1.0000
  H   H1187     1.0  0.84098  0.40836  0.24753  1.0000
  H   H1188     1.0  0.76784  0.34956  0.29321  1.0000
  H   H1189     1.0  0.72666  0.32959  0.31605  1.0000
  H   H1190     1.0  0.69723  0.34481  0.30537  1.0000
  H   H1191     1.0  0.70923  0.38005  0.27095  1.0000
  H   H1192     1.0  0.75010  0.39984  0.24717  1.0000
  H   H1193     1.0  0.78885  0.38041  0.19468  1.0000
  H   H1194     1.0  0.80005  0.35501  0.17073  1.0000
  H   H1195     1.0  0.81691  0.33155  0.19688  1.0000
  H   H1196     1.0  0.82400  0.33422  0.24664  1.0000
  H   H1197     1.0  0.81523  0.36073  0.26963  1.0000
  H   H1198     1.0  0.81924  0.41251  0.18921  1.0000
  H   H1199     1.0  0.66584  0.38754  0.15872  1.0000
  H   H1200     1.0  0.78030  0.42601  0.26383  1.0000
  C   C1508     1.0  0.94950  0.40972  0.17830  1.0000
  C   C1509     1.0  0.55714  0.28625  0.08501  1.0000
  H   H1201     1.0  0.62745  0.38918  0.17560  1.0000
  Fe  Fe99      1.0  0.63050  0.45165  0.21275  1.0000
  C   C1510     1.0  0.68433  0.31011  0.23408  1.0000
  C   C1511     1.0  0.65599  0.37939  0.18148  1.0000
  C   C1512     1.0  0.97247  0.32212  0.27903  1.0000
  Fe  Fe100     1.0  0.51954  0.40417  0.04112  1.0000
  C   C1513     1.0  0.62147  0.37128  0.22074  1.0000
  C   C1514     1.0  0.71896  0.37515  0.08996  1.0000
  H   H1202     1.0  0.70399  0.34039  0.15756  1.0000
  H   H1203     1.0  0.62071  0.35389  0.26419  1.0000
  C   C1515     1.0  0.63039  0.36062  0.24096  1.0000
  H   H1204     1.0  0.56354  0.35186  0.17656  1.0000
  H   H1205     1.0  0.72577  0.37676  0.06636  1.0000
  C   C1516     1.0  0.66597  0.28364  0.05285  1.0000
  C   C1517     1.0  0.93425  0.29593  0.29546  1.0000
  C   C1518     1.0  0.81455  0.32018  0.03416  1.0000
  S   S204      1.0  0.80342  0.29302  0.04067  1.0000
  H   H1206     1.0  0.68206  0.31632  0.02908  1.0000
  C   C1519     1.0  0.65048  0.35514  0.11188  1.0000
  C   C1520     1.0  0.63417  0.38048  0.19102  1.0000
  H   H1207     1.0  0.65442  0.32589  0.10881  1.0000
  C   C1521     1.0  0.62975  0.28522  0.02630  1.0000
  H   H1208     1.0  0.93546  0.25733  0.39954  1.0000
  C   C1522     1.0  0.56472  0.34358  0.19790  1.0000
  C   C1523     1.0  0.66721  0.30235  0.03396  1.0000
  H   H1209     1.0  0.76829  0.25715  0.03021  1.0000
  H   H1210     1.0  0.55272  0.29971  0.07670  1.0000
  H   H1211     1.0  0.52342  0.46194  0.12841  1.0000
  H   H1212     1.0  0.65023  0.31756  0.00616  1.0000
  H   H1213     1.0  0.60506  0.37303  0.22823  1.0000
  C   C1524     1.0  0.57904  0.28924  0.08993  1.0000
  C   C1525     1.0  0.62653  0.46795  0.03220  1.0000
  C   C1526     1.0  0.72960  0.46182  0.14643  1.0000
  C   C1527     1.0  0.66540  0.46747  0.98735  1.0000
  H   H1214     1.0  0.61552  0.46751  0.30349  1.0000
  C   C1528     1.0  0.81295  0.35086  0.05083  1.0000
  P   P52       1.0  0.91312  0.27326  0.35513  1.0000
  C   C1529     1.0  0.56071  0.34058  0.25112  1.0000
  C   C1530     1.0  0.83401  0.30580  0.16195  1.0000
  H   H1215     1.0  0.76096  0.26098  0.08115  1.0000
  H   H1216     1.0  0.69836  0.44907  0.13325  1.0000
  C   C1531     1.0  0.95290  0.41945  0.30138  1.0000
  C   C1532     1.0  0.49924  0.33575  0.21595  1.0000
  S   S205      1.0  0.65933  0.48254  0.19835  1.0000
  H   H1217     1.0  0.77555  0.34690  0.01732  1.0000
  H   H1218     1.0  0.51559  0.33431  0.20714  1.0000
  C   C1533     1.0  0.58407  0.44368  0.27059  1.0000
  H   H1219     1.0  0.81114  0.47198  0.17934  1.0000
  S   S206      1.0  0.71655  0.47035  0.17563  1.0000
  H   H1220     1.0  0.85205  0.29236  0.31847  1.0000
  H   H1221     1.0  0.64455  0.26128  0.11746  1.0000
  H   H1222     1.0  0.59277  0.37014  0.04130  1.0000
  C   C1534     1.0  0.55283  0.25231  0.17809  1.0000
  C   C1535     1.0  0.71664  0.45223  0.12842  1.0000
  H   H1223     1.0  0.81422  0.31438  0.13194  1.0000
  C   C1536     1.0  0.80758  0.45650  0.19318  1.0000
  H   H1224     1.0  0.92419  0.28030  0.01784  1.0000
  H   H1225     1.0  0.93917  0.45942  0.19340  1.0000
  Fe  Fe101     1.0  0.85423  0.25472  0.01133  1.0000
  C   C1537     1.0  0.58743  0.39926  0.02839  1.0000
  H   H1226     1.0  0.55519  0.36490  0.22105  1.0000
  C   C1538     1.0  0.51202  0.47345  0.09035  1.0000
  H   H1227     1.0  0.82846  0.32541  0.98678  1.0000
  H   H1228     1.0  0.50964  0.33262  0.10896  1.0000
  H   H1229     1.0  0.77119  0.31030  0.01795  1.0000
  H   H1230     1.0  0.56562  0.45502  0.01491  1.0000
  H   H1231     1.0  0.73403  0.45205  0.01538  1.0000
  S   S207      1.0  0.72233  0.26507  0.27586  1.0000
  S   S208      1.0  0.69711  0.25995  0.20565  1.0000
  C   C1539     1.0  0.83779  0.28936  0.17998  1.0000
  C   C1540     1.0  0.52039  0.28585  0.02528  1.0000
  Fe  Fe102     1.0  0.67973  0.46586  0.17532  1.0000
  H   H1232     1.0  0.95078  0.31343  0.24948  1.0000
  H   H1233     1.0  0.58698  0.43028  0.01567  1.0000
  C   C1541     1.0  0.96213  0.34339  0.41102  1.0000
  H   H1234     1.0  0.53948  0.24084  0.17226  1.0000
  H   H1235     1.0  0.53831  0.43093  0.33073  1.0000
  C   C1542     1.0  0.85581  0.25656  0.24576  1.0000
  Fe  Fe103     1.0  0.72302  0.25326  0.17328  1.0000
  C   C1543     1.0  0.51388  0.28417  0.05623  1.0000
  C   C1544     1.0  0.82474  0.33259  0.00475  1.0000
  H   H1236     1.0  0.50450  0.33016  0.05261  1.0000
  C   C1545     1.0  0.97429  0.31910  0.30871  1.0000
  C   C1546     1.0  0.54057  0.42718  0.20626  1.0000
  C   C1547     1.0  0.81726  0.30166  0.14579  1.0000
  H   H1237     1.0  0.51442  0.36822  0.21360  1.0000
  C   C1548     1.0  0.75711  0.24550  0.07747  1.0000
  H   H1238     1.0  0.51777  0.40642  0.24736  1.0000
  C   C1549     1.0  0.49217  0.25763  0.11780  1.0000
  C   C1550     1.0  0.69192  0.25741  0.07161  1.0000
  H   H1239     1.0  0.87921  0.26383  0.17138  1.0000
  H   H1240     1.0  0.91400  0.24201  0.32163  1.0000
  H   H1241     1.0  0.57391  0.23851  0.11488  1.0000
  C   C1551     1.0  0.73994  0.33954  0.03952  1.0000
  C   C1552     1.0  0.62851  0.26651  0.04474  1.0000
  C   C1553     1.0  0.59773  0.42092  0.01868  1.0000
  H   H1242     1.0  0.55095  0.34761  0.08185  1.0000
  C   C1554     1.0  0.49267  0.44301  0.99821  1.0000
  C   C1555     1.0  0.69264  0.46549  0.05539  1.0000
  C   C1556     1.0  0.80442  0.28108  0.14739  1.0000
  C   C1557     1.0  0.55046  0.47289  0.08755  1.0000
  C   C1558     1.0  0.51995  0.41161  0.22342  1.0000
  C   C1559     1.0  0.69089  0.24949  0.04619  1.0000
  H   H1243     1.0  0.62198  0.45652  0.10763  1.0000
  H   H1244     1.0  0.50296  0.29931  0.08961  1.0000
  C   C1560     1.0  0.52740  0.42502  0.16126  1.0000
  C   C1561     1.0  0.51543  0.31937  0.01428  1.0000
  H   H1245     1.0  0.49405  0.40280  0.16683  1.0000
  C   C1562     1.0  0.54928  0.43824  0.30826  1.0000
  S   S209      1.0  0.54408  0.41823  0.99531  1.0000
  H   H1246     1.0  0.53067  0.42957  0.13706  1.0000
  H   H1247     1.0  0.55384  0.43389  0.21695  1.0000
  C   C1563     1.0  0.54422  0.43404  0.17523  1.0000
  C   C1564     1.0  0.50822  0.30030  0.06591  1.0000
  S   S210      1.0  0.61641  0.45717  0.17246  1.0000
  H   H1248     1.0  0.56023  0.44612  0.16199  1.0000
  C   C1565     1.0  0.94178  0.44533  0.18981  1.0000
  S   S211      1.0  0.50438  0.45958  0.21891  1.0000
  C   C1566     1.0  0.87623  0.26272  0.25485  1.0000
  C   C1567     1.0  0.56926  0.25190  0.10662  1.0000
  H   H1249     1.0  0.88808  0.46405  0.25885  1.0000
  C   C1568     1.0  0.89745  0.26919  0.23392  1.0000
  P   P53       1.0  0.82985  0.24715  0.20413  1.0000
  C   C1569     1.0  0.87785  0.26291  0.19486  1.0000
  C   C1570     1.0  0.72604  0.46157  0.02598  1.0000
  H   H1250     1.0  0.68823  0.25823  0.02635  1.0000
  P   P54       1.0  0.63449  0.45853  0.99983  1.0000
  C   C1571     1.0  0.63496  0.41800  0.01884  1.0000
  C   C1572     1.0  0.92407  0.26493  0.01620  1.0000
  C   C1573     1.0  0.89157  0.27579  0.44183  1.0000
  C   C1574     1.0  0.93718  0.43899  0.16422  1.0000
  C   C1575     1.0  0.56247  0.45993  0.99327  1.0000
  C   C1576     1.0  0.56791  0.24594  0.19261  1.0000
  C   C1577     1.0  0.94339  0.41907  0.27648  1.0000
  C   C1578     1.0  0.93302  0.24727  0.38444  1.0000
  H   H1251     1.0  0.49728  0.30932  0.15996  1.0000
  C   C1579     1.0  0.84266  0.25900  0.33256  1.0000
  C   C1580     1.0  0.80848  0.26464  0.16491  1.0000
  C   C1581     1.0  0.95611  0.30451  0.33182  1.0000
  C   C1582     1.0  0.49764  0.25446  0.14565  1.0000
  C   C1583     1.0  0.69595  0.24603  0.09675  1.0000
  C   C1584     1.0  0.85731  0.27954  0.32743  1.0000
  C   C1585     1.0  0.85637  0.25597  0.21577  1.0000
  H   H1252     1.0  0.93688  0.41598  0.13907  1.0000
  H   H1253     1.0  0.90743  0.26469  0.98007  1.0000
  C   C1586     1.0  0.78082  0.24491  0.97908  1.0000
  C   C1587     1.0  0.92252  0.25117  0.36106  1.0000
  H   H1254     1.0  0.87560  0.26338  0.27787  1.0000
  C   C1588     1.0  0.87883  0.28367  0.33363  1.0000
  Fe  Fe104     1.0  0.50844  0.47210  0.25901  1.0000
  H   H1255     1.0  0.78561  0.25279  0.22513  1.0000
  Fe  Fe105     1.0  0.48031  0.36340  0.07349  1.0000
  H   H1256     1.0  0.65320  0.42498  0.01658  1.0000
  C   C1589     1.0  0.55107  0.44503  0.97964  1.0000
  H   H1257     1.0  0.49469  0.46934  0.10370  1.0000
  S   S212      1.0  0.81698  0.24580  0.03260  1.0000
  C   C1590     1.0  0.94013  0.45801  0.25466  1.0000
  C   C1591     1.0  0.54725  0.24890  0.10227  1.0000
  C   C1592     1.0  0.94986  0.47334  0.26888  1.0000
  H   H1258     1.0  0.82610  0.25596  0.32719  1.0000
  H   H1259     1.0  0.61363  0.25247  0.04895  1.0000
  H   H1260     1.0  0.61578  0.28577  0.01607  1.0000
  H   H1261     1.0  0.93925  0.26045  0.05326  1.0000
  S   S213      1.0  0.86102  0.23793  0.05197  1.0000
  Fe  Fe106     1.0  0.71410  0.24866  0.23991  1.0000
  H   H1262     1.0  0.63492  0.38681  0.03380  1.0000
  C   C1593     1.0  0.88596  0.26730  0.34513  1.0000
  C   C1594     1.0  0.96495  0.47022  0.38990  1.0000
  C   C1595     1.0  0.91459  0.25608  0.99494  1.0000
  H   H1263     1.0  0.75449  0.25890  0.98386  1.0000
  H   H1264     1.0  0.54086  0.24364  0.04628  1.0000
  C   C1596     1.0  0.51840  0.48359  0.05963  1.0000
  H   H1265     1.0  0.48285  0.42905  0.13480  1.0000
  C   C1597     1.0  0.95363  0.41574  0.20429  1.0000
  H   H1266     1.0  0.95984  0.40647  0.21970  1.0000
  C   C1598     1.0  0.96690  0.45132  0.38619  1.0000
  H   H1267     1.0  0.96662  0.47544  0.27327  1.0000
  C   C1599     1.0  0.97650  0.48052  0.40861  1.0000
  H   H1268     1.0  0.47895  0.41780  0.25844  1.0000
  C   C1600     1.0  0.48946  0.24223  0.97999  1.0000
  S   S214      1.0  0.48174  0.39325  0.04436  1.0000
  C   C1601     1.0  0.47822  0.44612  0.97989  1.0000
  C   C1602     1.0  0.55673  0.48254  0.05685  1.0000
  H   H1269     1.0  0.58283  0.47511  0.33093  1.0000
  H   H1270     1.0  0.48341  0.47457  0.45037  1.0000
  C   C1603     1.0  0.62010  0.48566  0.02973  1.0000
  C   C1604     1.0  0.91558  0.48265  0.27437  1.0000
  C   C1605     1.0  0.70600  0.48562  0.05528  1.0000
  H   H1271     1.0  0.57387  0.48587  0.04363  1.0000
  C   C1606     1.0  0.73944  0.48169  0.02594  1.0000
  C   C1607     1.0  0.47890  0.31865  0.22253  1.0000
  H   H1272     1.0  0.47945  0.30380  0.21928  1.0000
  C   C1608     1.0  0.93771  0.48578  0.27835  1.0000
  C   C1609     1.0  0.48385  0.48576  0.35002  1.0000
  C   C1610     1.0  0.67876  0.48581  0.99305  1.0000
  H   H1273     1.0  0.96879  0.34301  0.62985  1.0000
  H   H1274     1.0  0.96883  0.42968  0.56330  1.0000
  H   H1275     1.0  0.96847  0.31349  0.85968  1.0000
  H   H1276     1.0  0.88246  0.30278  0.92178  1.0000
  C   C1611     1.0  0.85193  0.24605  0.70678  1.0000
  H   H1277     1.0  0.93861  0.32268  0.83904  1.0000
  S   S215      1.0  0.91453  0.28100  0.71085  1.0000
  S   S216      1.0  0.96269  0.25723  0.68346  1.0000
  C   C1612     1.0  0.92877  0.23983  0.81450  1.0000
  H   H1278     1.0  0.95756  0.28336  0.90390  1.0000
  H   H1279     1.0  0.80495  0.26200  0.88081  1.0000
  H   H1280     1.0  0.82078  0.29963  0.92859  1.0000
  S   S217      1.0  0.86433  0.25126  0.96452  1.0000
  C   C1613     1.0  0.80950  0.28429  0.94204  1.0000
  H   H1281     1.0  0.83608  0.27082  0.93747  1.0000
  C   C1614     1.0  0.86363  0.28100  0.86154  1.0000
  C   C1615     1.0  0.91014  0.29733  0.87099  1.0000
  C   C1616     1.0  0.69989  0.46614  0.95598  1.0000
  C   C1617     1.0  0.86107  0.34610  0.88704  1.0000
  C   C1618     1.0  0.86064  0.34178  0.91755  1.0000
  C   C1619     1.0  0.87916  0.26011  0.75997  1.0000
  H   H1282     1.0  0.97660  0.34543  0.48244  1.0000
  H   H1283     1.0  0.88643  0.27074  0.90578  1.0000
  C   C1620     1.0  0.81813  0.26807  0.94708  1.0000
  H   H1284     1.0  0.93103  0.36708  0.77330  1.0000
  C   C1621     1.0  0.89939  0.31828  0.81809  1.0000
  C   C1622     1.0  0.86509  0.24290  0.78347  1.0000
  H   H1285     1.0  0.85482  0.35811  0.87769  1.0000
  C   C1623     1.0  0.93347  0.30930  0.85801  1.0000
  H   H1286     1.0  0.52568  0.24743  0.97337  1.0000
  Fe  Fe107     1.0  0.97463  0.30423  0.61546  1.0000
  H   H1287     1.0  0.85415  0.35043  0.93183  1.0000
  S   S218      1.0  0.94146  0.27699  0.62992  1.0000
  C   C1624     1.0  0.91055  0.23769  0.83814  1.0000
  C   C1625     1.0  0.82640  0.24421  0.86973  1.0000
  H   H1288     1.0  0.92583  0.23964  0.79252  1.0000
  C   C1626     1.0  0.89825  0.30736  0.79564  1.0000
  C   C1627     1.0  0.87693  0.31502  0.91148  1.0000
  C   C1628     1.0  0.90870  0.31794  0.76546  1.0000
  H   H1289     1.0  0.86775  0.32258  0.95361  1.0000
  P   P55       1.0  0.97417  0.24627  0.78776  1.0000
  C   C1629     1.0  0.82241  0.26229  0.87392  1.0000
  C   C1630     1.0  0.87507  0.27658  0.66623  1.0000
  C   C1631     1.0  0.86842  0.32616  0.92979  1.0000
  H   H1290     1.0  0.83746  0.29445  0.87314  1.0000
  C   C1632     1.0  0.54755  0.45153  0.95132  1.0000
  C   C1633     1.0  0.50960  0.23829  0.96977  1.0000
  H   H1291     1.0  0.77992  0.29352  0.95166  1.0000
  H   H1292     1.0  0.55276  0.47763  0.91462  1.0000
  H   H1293     1.0  0.84197  0.23953  0.72991  1.0000
  C   C1634     1.0  0.71313  0.48413  0.96238  1.0000
  H   H1294     1.0  0.85014  0.24378  0.79791  1.0000
  H   H1295     1.0  0.87497  0.27417  0.75638  1.0000
  H   H1296     1.0  0.88477  0.26307  0.84960  1.0000
  C   C1635     1.0  0.60741  0.46496  0.92661  1.0000
  C   C1636     1.0  0.61234  0.45639  0.95296  1.0000
  C   C1637     1.0  0.96887  0.29840  0.73801  1.0000
  H   H1297     1.0  0.96866  0.48115  0.49669  1.0000
  C   C1638     1.0  0.67604  0.45805  0.96794  1.0000
  H   H1298     1.0  0.95262  0.26539  0.74624  1.0000
  C   C1639     1.0  0.78647  0.28082  0.95499  1.0000
  C   C1640     1.0  0.87788  0.31953  0.88061  1.0000
  C   C1641     1.0  0.92037  0.33945  0.75741  1.0000
  H   H1299     1.0  0.93863  0.24174  0.89335  1.0000
  Fe  Fe108     1.0  0.96368  0.25743  0.63518  1.0000
  C   C1642     1.0  0.80390  0.24844  0.96545  1.0000
  C   C1643     1.0  0.93597  0.24120  0.87129  1.0000
  C   C1644     1.0  0.91142  0.33988  0.80983  1.0000
  H   H1300     1.0  0.66585  0.44465  0.96172  1.0000
  H   H1301     1.0  0.88970  0.29065  0.80122  1.0000
  H   H1302     1.0  0.90803  0.30939  0.74827  1.0000
  C   C1645     1.0  0.92124  0.27516  0.90746  1.0000
  H   H1303     1.0  0.88303  0.29336  0.65804  1.0000
  H   H1304     1.0  0.85829  0.27771  0.70983  1.0000
  Fe  Fe109     1.0  0.94348  0.27926  0.67675  1.0000
  C   C1646     1.0  0.92172  0.35042  0.77958  1.0000
  C   C1647     1.0  0.90426  0.28013  0.89554  1.0000
  C   C1648     1.0  0.87039  0.24212  0.65917  1.0000
  P   P56       1.0  0.88776  0.30433  0.85731  1.0000
  C   C1649     1.0  0.95052  0.30417  0.86973  1.0000
  H   H1305     1.0  0.70805  0.45868  0.94131  1.0000
  C   C1650     1.0  0.86743  0.26295  0.85654  1.0000
  H   H1306     1.0  0.86916  0.33817  0.84524  1.0000
  C   C1651     1.0  0.77213  0.26118  0.97325  1.0000
  C   C1652     1.0  0.84095  0.28068  0.86964  1.0000
  C   C1653     1.0  0.89823  0.25907  0.74067  1.0000
  C   C1654     1.0  0.86947  0.33492  0.86866  1.0000
  H   H1307     1.0  0.95257  0.45706  0.54753  1.0000
  C   C1655     1.0  0.87967  0.26378  0.64807  1.0000
  C   C1656     1.0  0.86109  0.26772  0.69547  1.0000
  H   H1308     1.0  0.91627  0.26194  0.92672  1.0000
  S   S219      1.0  0.97504  0.30800  0.66173  1.0000
  H   H1309     1.0  0.59595  0.45497  0.91646  1.0000
  H   H1310     1.0  0.97123  0.24628  0.85141  1.0000
  H   H1311     1.0  0.92856  0.34754  0.73399  1.0000
  H   H1312     1.0  0.60512  0.43970  0.96189  1.0000
  H   H1313     1.0  0.95743  0.30189  0.72486  1.0000
  H   H1314     1.0  0.91329  0.34854  0.82676  1.0000
  C   C1657     1.0  0.96675  0.45571  0.53214  1.0000
  H   H1315     1.0  0.89099  0.27067  0.62568  1.0000
  H   H1316     1.0  0.96864  0.30819  0.50638  1.0000
  C   C1658     1.0  0.55541  0.47279  0.93662  1.0000
  C   C1659     1.0  0.84890  0.24459  0.86092  1.0000
  C   C1660     1.0  0.94439  0.28718  0.89459  1.0000
  H   H1317     1.0  0.53901  0.44007  0.94050  1.0000
  C   C1661     1.0  0.62624  0.46933  0.96718  1.0000
  C   C1662     1.0  0.96617  0.27768  0.75025  1.0000
  C   C1663     1.0  0.91410  0.23823  0.86661  1.0000
  C   C1664     1.0  0.95429  0.24339  0.84759  1.0000
  C   C1665     1.0  0.90352  0.24078  0.74544  1.0000
  C   C1666     1.0  0.97607  0.46947  0.50348  1.0000
  C   C1667     1.0  0.95061  0.24209  0.81919  1.0000
  C   C1668     1.0  0.97578  0.44021  0.54100  1.0000
  H   H1318     1.0  0.91828  0.23990  0.73067  1.0000
  H   H1319     1.0  0.83627  0.36362  0.97556  1.0000
  H   H1320     1.0  0.81130  0.23639  0.96979  1.0000
  C   C1669     1.0  0.57110  0.48120  0.97797  1.0000
  C   C1670     1.0  0.81618  0.54258  0.03165  1.0000
  S   S220      1.0  0.58555  0.62387  0.29218  1.0000
  H   H1321     1.0  0.59601  0.65705  0.40724  1.0000
  Fe  Fe110     1.0  0.56605  0.64577  0.28687  1.0000
  S   S221      1.0  0.53000  0.64302  0.30528  1.0000
  C   C1671     1.0  0.68803  0.60302  0.00251  1.0000
  C   C1672     1.0  0.73072  0.54497  0.00176  1.0000
  C   C1673     1.0  0.71567  0.51933  0.12528  1.0000
  Fe  Fe111     1.0  0.59520  0.56023  0.99798  1.0000
  C   C1674     1.0  0.53089  0.68056  0.21953  1.0000
  C   C1675     1.0  0.66649  0.51851  0.08042  1.0000
  C   C1676     1.0  0.55740  0.51319  0.12053  1.0000
  C   C1677     1.0  0.68928  0.66902  0.07846  1.0000
  C   C1678     1.0  0.64054  0.64858  0.00184  1.0000
  Fe  Fe112     1.0  0.52561  0.49219  0.19240  1.0000
  C   C1679     1.0  0.71122  0.72710  0.36253  1.0000
  C   C1680     1.0  0.82045  0.52496  0.04521  1.0000
  C   C1681     1.0  0.49659  0.69688  0.21040  1.0000
  C   C1682     1.0  0.62170  0.60518  0.08581  1.0000
  P   P57       1.0  0.74673  0.52005  0.04025  1.0000
  S   S222      1.0  0.60899  0.70997  0.20674  1.0000
  C   C1683     1.0  0.57996  0.53324  0.07028  1.0000
  H   H1322     1.0  0.67724  0.68333  0.43757  1.0000
  H   H1323     1.0  0.50783  0.66228  0.26201  1.0000
  H   H1324     1.0  0.72620  0.49800  0.10359  1.0000
  C   C1684     1.0  0.58645  0.71904  0.21836  1.0000
  H   H1325     1.0  0.58857  0.60588  0.99124  1.0000
  C   C1685     1.0  0.50986  0.65974  0.14768  1.0000
  C   C1686     1.0  0.73351  0.73299  0.42013  1.0000
  H   H1326     1.0  0.56000  0.58027  0.08119  1.0000
  C   C1687     1.0  0.48441  0.59384  0.22260  1.0000
  C   C1688     1.0  0.69499  0.72131  0.39031  1.0000
  C   C1689     1.0  0.76638  0.72186  0.40888  1.0000
  Fe  Fe113     1.0  0.63900  0.55174  0.97894  1.0000
  H   H1327     1.0  0.59005  0.60261  0.15464  1.0000
  C   C1690     1.0  0.62506  0.72496  0.35363  1.0000
  H   H1328     1.0  0.61017  0.50673  0.05304  1.0000
  S   S223      1.0  0.62746  0.66080  0.23767  1.0000
  Fe  Fe114     1.0  0.60389  0.67935  0.23828  1.0000
  S   S224      1.0  0.60216  0.53077  0.99657  1.0000
  C   C1691     1.0  0.54351  0.55866  0.21711  1.0000
  H   H1329     1.0  0.70593  0.67195  0.08340  1.0000
  H   H1330     1.0  0.62444  0.55360  0.14368  1.0000
  C   C1692     1.0  0.68169  0.70912  0.34045  1.0000
  S   S225      1.0  0.50203  0.69793  0.40111  1.0000
  C   C1693     1.0  0.68390  0.58692  0.05460  1.0000
  C   C1694     1.0  0.51848  0.64701  0.13248  1.0000
  C   C1695     1.0  0.66755  0.70811  0.26234  1.0000
  C   C1696     1.0  0.67122  0.52358  0.04901  1.0000
  C   C1697     1.0  0.59728  0.56964  0.11189  1.0000
  H   H1331     1.0  0.60411  0.59868  0.03474  1.0000
  C   C1698     1.0  0.51734  0.70353  0.18837  1.0000
  H   H1332     1.0  0.74335  0.56024  0.04852  1.0000
  C   C1699     1.0  0.66405  0.61104  0.04201  1.0000
  C   C1700     1.0  0.50887  0.61825  0.31745  1.0000
  C   C1701     1.0  0.51397  0.59992  0.32272  1.0000
  C   C1702     1.0  0.49592  0.58065  0.33513  1.0000
  H   H1333     1.0  0.59027  0.51227  0.09998  1.0000
  H   H1334     1.0  0.68626  0.69768  0.08654  1.0000
  C   C1703     1.0  0.56212  0.61157  0.08143  1.0000
  H   H1335     1.0  0.53165  0.60063  0.31813  1.0000
  H   H1336     1.0  0.49965  0.56647  0.34026  1.0000
  H   H1337     1.0  0.70021  0.71461  0.23176  1.0000
  C   C1704     1.0  0.51007  0.67359  0.24138  1.0000
  Fe  Fe115     1.0  0.59623  0.63330  0.24196  1.0000
  C   C1705     1.0  0.54984  0.59199  0.24396  1.0000
  C   C1706     1.0  0.49168  0.56566  0.41066  1.0000
  H   H1338     1.0  0.55214  0.60485  0.25435  1.0000
  H   H1339     1.0  0.51358  0.57770  0.26542  1.0000
  H   H1340     1.0  0.60350  0.65748  0.35284  1.0000
  C   C1707     1.0  0.50012  0.65534  0.09285  1.0000
  C   C1708     1.0  0.66955  0.59773  0.06359  1.0000
  C   C1709     1.0  0.50245  0.67788  0.33143  1.0000
  C   C1710     1.0  0.52789  0.57685  0.24977  1.0000
  S   S226      1.0  0.55511  0.49616  0.15443  1.0000
  H   H1341     1.0  0.52523  0.51755  0.13476  1.0000
  H   H1342     1.0  0.49380  0.65664  0.37489  1.0000
  C   C1711     1.0  0.58287  0.70144  0.34610  1.0000
  C   C1712     1.0  0.61613  0.65606  0.36515  1.0000
  C   C1713     1.0  0.64300  0.60584  0.27785  1.0000
  C   C1714     1.0  0.66158  0.60334  0.28839  1.0000
  C   C1715     1.0  0.66460  0.58402  0.29260  1.0000
  C   C1716     1.0  0.64897  0.56715  0.28641  1.0000
  C   C1717     1.0  0.63020  0.56954  0.27591  1.0000
  C   C1718     1.0  0.62741  0.58905  0.27160  1.0000
  P   P58       1.0  0.60908  0.54785  0.26904  1.0000
  C   C1719     1.0  0.61198  0.55046  0.22918  1.0000
  C   C1720     1.0  0.61242  0.52319  0.28292  1.0000
  C   C1721     1.0  0.63091  0.51870  0.26758  1.0000
  C   C1722     1.0  0.60932  0.70891  0.37743  1.0000
  C   C1723     1.0  0.63213  0.49875  0.27527  1.0000
  H   H1343     1.0  0.51940  0.68669  0.33301  1.0000
  C   C1724     1.0  0.59526  0.50742  0.30623  1.0000
  C   C1725     1.0  0.60308  0.53268  0.21883  1.0000
  C   C1726     1.0  0.60732  0.53395  0.18808  1.0000
  C   C1727     1.0  0.62051  0.55293  0.16740  1.0000
  C   C1728     1.0  0.62868  0.57086  0.17733  1.0000
  C   C1729     1.0  0.62446  0.56967  0.20812  1.0000
  C   C1730     1.0  0.58090  0.54687  0.28745  1.0000
  C   C1731     1.0  0.57774  0.55501  0.31263  1.0000
  C   C1732     1.0  0.55587  0.55441  0.32649  1.0000
  C   C1733     1.0  0.53694  0.54503  0.31600  1.0000
  C   C1734     1.0  0.53993  0.53634  0.29165  1.0000
  C   C1735     1.0  0.56180  0.53741  0.27728  1.0000
  H   H1344     1.0  0.64060  0.62081  0.27467  1.0000
  H   H1345     1.0  0.67355  0.61641  0.29334  1.0000
  H   H1346     1.0  0.67903  0.58211  0.30075  1.0000
  H   H1347     1.0  0.65150  0.55230  0.29010  1.0000
  H   H1348     1.0  0.61297  0.59121  0.26369  1.0000
  H   H1349     1.0  0.64389  0.53036  0.24880  1.0000
  Fe  Fe116     1.0  0.64701  0.48699  0.15630  1.0000
  H   H1350     1.0  0.48903  0.50734  0.30774  1.0000
  S   S227      1.0  0.63230  0.58081  0.98494  1.0000
  H   H1351     1.0  0.58044  0.51015  0.31787  1.0000
  H   H1352     1.0  0.59331  0.51762  0.23444  1.0000
  H   H1353     1.0  0.60087  0.52009  0.18020  1.0000
  C   C1736     1.0  0.62809  0.65350  0.41196  1.0000
  H   H1354     1.0  0.63841  0.58566  0.16117  1.0000
  H   H1355     1.0  0.63112  0.58374  0.21518  1.0000
  H   H1356     1.0  0.59210  0.56194  0.32147  1.0000
  H   H1357     1.0  0.55364  0.56137  0.34514  1.0000
  H   H1358     1.0  0.51999  0.54463  0.32646  1.0000
  H   H1359     1.0  0.83779  0.52594  0.04609  1.0000
  H   H1360     1.0  0.56375  0.53101  0.25806  1.0000
  H   H1361     1.0  0.54633  0.49608  0.01940  1.0000
  C   C1737     1.0  0.55607  0.62451  0.09835  1.0000
  C   C1738     1.0  0.51169  0.51482  0.01423  1.0000
  Fe  Fe117     1.0  0.59865  0.71180  0.46883  1.0000
  H   H1362     1.0  0.79068  0.55495  0.01990  1.0000
  P   P59       1.0  0.70351  0.72880  0.42262  1.0000
  H   H1363     1.0  0.54463  0.67513  0.22379  1.0000
  C   C1739     1.0  0.52370  0.51598  0.98518  1.0000
  C   C1740     1.0  0.76345  0.53701  0.97846  1.0000
  C   C1741     1.0  0.58908  0.68654  0.14257  1.0000
  C   C1742     1.0  0.95424  0.65490  0.42876  1.0000
  C   C1743     1.0  0.69295  0.58941  0.02407  1.0000
  H   H1364     1.0  0.66087  0.64963  0.40968  1.0000
  S   S228      1.0  0.64384  0.51786  0.13654  1.0000
  H   H1365     1.0  0.64758  0.69523  0.36948  1.0000
  C   C1744     1.0  0.53450  0.69541  0.19300  1.0000
  C   C1745     1.0  0.56319  0.54212  0.06686  1.0000
  C   C1746     1.0  0.55216  0.59311  0.46350  1.0000
  H   H1366     1.0  0.94540  0.49768  0.28909  1.0000
  H   H1367     1.0  0.70641  0.54350  0.14111  1.0000
  C   C1747     1.0  0.64640  0.66161  0.06548  1.0000
  C   C1748     1.0  0.61365  0.58388  0.08676  1.0000
  C   C1749     1.0  0.70460  0.72085  0.33776  1.0000
  H   H1368     1.0  0.67468  0.50916  0.09185  1.0000
  H   H1369     1.0  0.66975  0.62401  0.99438  1.0000
  C   C1750     1.0  0.56826  0.67307  0.14019  1.0000
  P   P60       1.0  0.64362  0.62329  0.05357  1.0000
  C   C1751     1.0  0.48608  0.61719  0.32239  1.0000
  C   C1752     1.0  0.49537  0.68279  0.30530  1.0000
  S   S229      1.0  0.59623  0.60920  0.21639  1.0000
  S   S230      1.0  0.66645  0.54164  0.99474  1.0000
  H   H1370     1.0  0.57252  0.61807  0.05848  1.0000
  S   S231      1.0  0.56756  0.56137  0.03436  1.0000
  C   C1753     1.0  0.64107  0.53836  0.08218  1.0000
  H   H1371     1.0  0.65583  0.66034  0.00338  1.0000
  Fe  Fe118     1.0  0.60456  0.66970  0.47225  1.0000
  H   H1372     1.0  0.69787  0.49469  0.06650  1.0000
  C   C1754     1.0  0.61194  0.65593  0.39586  1.0000
  C   C1755     1.0  0.65676  0.67980  0.07378  1.0000
  H   H1373     1.0  0.50707  0.69546  0.28670  1.0000
  H   H1374     1.0  0.51446  0.62708  0.25781  1.0000
  H   H1375     1.0  0.49301  0.59646  0.17515  1.0000
  S   S232      1.0  0.59470  0.67366  0.28838  1.0000
  C   C1756     1.0  0.52359  0.62924  0.21073  1.0000
  H   H1376     1.0  0.56641  0.69261  0.34318  1.0000
  H   H1377     1.0  0.61114  0.48791  0.10289  1.0000
  H   H1378     1.0  0.49620  0.50961  0.09091  1.0000
  H   H1379     1.0  0.53261  0.68930  0.46447  1.0000
  H   H1380     1.0  0.57709  0.70130  0.26425  1.0000
  H   H1381     1.0  0.71257  0.50824  0.98504  1.0000
  C   C1757     1.0  0.49202  0.66832  0.10783  1.0000
  C   C1758     1.0  0.66532  0.70423  0.36755  1.0000
  C   C1759     1.0  0.49628  0.54886  0.40223  1.0000
  C   C1760     1.0  0.96217  0.64842  0.40368  1.0000
  Fe  Fe119     1.0  0.50048  0.51169  0.23312  1.0000
  C   C1761     1.0  0.65281  0.65218  0.36677  1.0000
  H   H1382     1.0  0.54123  0.54604  0.20629  1.0000
  S   S233      1.0  0.57929  0.68294  0.45618  1.0000
  C   C1762     1.0  0.56869  0.59021  0.22510  1.0000
  C   C1763     1.0  0.97471  0.63749  0.45702  1.0000
  H   H1383     1.0  0.49622  0.65355  0.07166  1.0000
  C   C1764     1.0  0.57343  0.71211  0.24818  1.0000
  C   C1765     1.0  0.66085  0.53602  0.03406  1.0000
  H   H1384     1.0  0.68719  0.57592  0.07130  1.0000
  H   H1385     1.0  0.97444  0.49493  0.41154  1.0000
  C   C1766     1.0  0.65742  0.64696  0.06365  1.0000
  P   P61       1.0  0.55282  0.59952  0.42402  1.0000
  C   C1767     1.0  0.54718  0.62352  0.41368  1.0000
  C   C1768     1.0  0.58002  0.60099  0.40114  1.0000
  C   C1769     1.0  0.58195  0.59975  0.37119  1.0000
  C   C1770     1.0  0.60247  0.59969  0.35387  1.0000
  C   C1771     1.0  0.62125  0.60095  0.36616  1.0000
  C   C1772     1.0  0.61949  0.60206  0.39591  1.0000
  C   C1773     1.0  0.59903  0.60210  0.41334  1.0000
  C   C1774     1.0  0.53901  0.63251  0.43585  1.0000
  C   C1775     1.0  0.53271  0.64996  0.42798  1.0000
  C   C1776     1.0  0.53395  0.65832  0.39807  1.0000
  C   C1777     1.0  0.54210  0.64959  0.37587  1.0000
  C   C1778     1.0  0.54869  0.63229  0.38352  1.0000
  C   C1779     1.0  0.53038  0.57928  0.41660  1.0000
  C   C1780     1.0  0.53455  0.56177  0.40953  1.0000
  C   C1781     1.0  0.51757  0.54669  0.40213  1.0000
  C   C1782     1.0  0.50859  0.58083  0.41788  1.0000
  H   H1386     1.0  0.70843  0.50810  0.14699  1.0000
  C   C1783     1.0  0.49800  0.60309  0.19314  1.0000
  H   H1387     1.0  0.67082  0.49405  0.00651  1.0000
  C   C1784     1.0  0.72568  0.51364  0.10055  1.0000
  H   H1388     1.0  0.57703  0.62296  0.46129  1.0000
  H   H1389     1.0  0.56756  0.59862  0.36123  1.0000
  H   H1390     1.0  0.60403  0.59909  0.33070  1.0000
  H   H1391     1.0  0.63735  0.60163  0.35239  1.0000
  H   H1392     1.0  0.63422  0.60355  0.40529  1.0000
  H   H1393     1.0  0.59846  0.60330  0.43609  1.0000
  H   H1394     1.0  0.53692  0.62591  0.45933  1.0000
  H   H1395     1.0  0.52659  0.65690  0.44512  1.0000
  H   H1396     1.0  0.52887  0.67175  0.39209  1.0000
  H   H1397     1.0  0.54312  0.65619  0.35269  1.0000
  H   H1398     1.0  0.55431  0.62557  0.36587  1.0000
  H   H1399     1.0  0.55098  0.55990  0.40943  1.0000
  H   H1400     1.0  0.80548  0.49230  0.06838  1.0000
  H   H1401     1.0  0.50457  0.59375  0.42432  1.0000
  C   C1785     1.0  0.54095  0.48824  0.04305  1.0000
  C   C1786     1.0  0.67820  0.68353  0.08024  1.0000
  H   H1402     1.0  0.61897  0.62809  0.11084  1.0000
  S   S234      1.0  0.49564  0.50298  0.19042  1.0000
  C   C1787     1.0  0.54333  0.53631  0.09012  1.0000
  H   H1403     1.0  0.52090  0.53338  0.39620  1.0000
  H   H1404     1.0  0.63637  0.70604  0.29197  1.0000
  C   C1788     1.0  0.52464  0.56033  0.23599  1.0000
  C   C1789     1.0  0.58819  0.69722  0.37375  1.0000
  H   H1405     1.0  0.50215  0.53308  0.04375  1.0000
  C   C1790     1.0  0.58118  0.73306  0.19770  1.0000
  C   C1791     1.0  0.74741  0.53570  0.00449  1.0000
  H   H1406     1.0  0.59150  0.55324  0.11304  1.0000
  C   C1792     1.0  0.48096  0.50253  0.33161  1.0000
  C   C1793     1.0  0.52117  0.55239  0.00004  1.0000
  H   H1407     1.0  0.59330  0.70328  0.13586  1.0000
  C   C1794     1.0  0.65109  0.52550  0.09711  1.0000
  H   H1408     1.0  0.51882  0.63438  0.09339  1.0000
  C   C1795     1.0  0.53323  0.70480  0.46579  1.0000
  S   S235      1.0  0.64274  0.65334  0.31284  1.0000
  H   H1409     1.0  0.72458  0.56974  0.09198  1.0000
  C   C1796     1.0  0.49286  0.68194  0.23721  1.0000
  S   S236      1.0  0.57411  0.65257  0.23707  1.0000
  H   H1410     1.0  0.58028  0.57131  0.19929  1.0000
  C   C1797     1.0  0.58859  0.57636  0.13607  1.0000
  S   S237      1.0  0.49732  0.54100  0.24410  1.0000
  H   H1411     1.0  0.48240  0.63120  0.31606  1.0000
  H   H1412     1.0  0.52096  0.56661  0.00609  1.0000
  H   H1413     1.0  0.68243  0.51741  0.03638  1.0000
  H   H1414     1.0  0.53031  0.54315  0.08749  1.0000
  C   C1798     1.0  0.60436  0.67848  0.15428  1.0000
  H   H1415     1.0  0.66860  0.65065  0.35572  1.0000
  C   C1799     1.0  0.56554  0.57325  0.21245  1.0000
  H   H1416     1.0  0.57601  0.68501  0.39245  1.0000
  H   H1417     1.0  0.55097  0.70120  0.17661  1.0000
  S   S238      1.0  0.53239  0.50376  0.23260  1.0000
  C   C1800     1.0  0.55492  0.59018  0.09417  1.0000
  H   H1418     1.0  0.62973  0.65889  0.06064  1.0000
  Fe  Fe120     1.0  0.61540  0.65276  0.28803  1.0000
  S   S239      1.0  0.62305  0.65097  0.45082  1.0000
  C   C1801     1.0  0.64844  0.65163  0.39730  1.0000
  C   C1802     1.0  0.72482  0.55407  0.09428  1.0000
  C   C1803     1.0  0.71477  0.53938  0.12202  1.0000
  C   C1804     1.0  0.67894  0.65078  0.07023  1.0000
  Fe  Fe121     1.0  0.51261  0.72628  0.36273  1.0000
  C   C1805     1.0  0.73455  0.52791  0.07217  1.0000
  C   C1806     1.0  0.73514  0.54850  0.06957  1.0000
  H   H1419     1.0  0.66201  0.69148  0.26439  1.0000
  C   C1807     1.0  0.77989  0.50468  0.05679  1.0000
  H   H1420     1.0  0.52728  0.58781  0.16459  1.0000
  C   C1808     1.0  0.54047  0.52187  0.11695  1.0000
  H   H1421     1.0  0.59573  0.53830  0.05301  1.0000
  H   H1422     1.0  0.56201  0.64113  0.08827  1.0000
  C   C1809     1.0  0.63660  0.65405  0.35070  1.0000
  C   C1810     1.0  0.54248  0.61608  0.12806  1.0000
  C   C1811     1.0  0.53616  0.59464  0.14112  1.0000
  C   C1812     1.0  0.80228  0.50603  0.05783  1.0000
  C   C1813     1.0  0.59656  0.59747  0.13555  1.0000
  C   C1814     1.0  0.64589  0.54356  0.05066  1.0000
  C   C1815     1.0  0.51318  0.64461  0.10518  1.0000
  H   H1423     1.0  0.54587  0.71381  0.28072  1.0000
  C   C1816     1.0  0.61305  0.61189  0.11051  1.0000
  H   H1424     1.0  0.61056  0.65067  0.17319  1.0000
  C   C1817     1.0  0.51808  0.62056  0.18718  1.0000
  C   C1818     1.0  0.67374  0.61389  0.01142  1.0000
  C   C1819     1.0  0.50973  0.62033  0.23989  1.0000
  C   C1820     1.0  0.67180  0.71050  0.39232  1.0000
  H   H1425     1.0  0.71764  0.54361  0.02116  1.0000
  H   H1426     1.0  0.61339  0.70580  0.39893  1.0000
  C   C1821     1.0  0.54197  0.58170  0.12396  1.0000
  C   C1822     1.0  0.59885  0.71712  0.32197  1.0000
  P   P62       1.0  0.53522  0.63338  0.14925  1.0000
  H   H1427     1.0  0.53852  0.64301  0.20668  1.0000
  H   H1428     1.0  0.63796  0.55332  0.03924  1.0000
  C   C1823     1.0  0.48798  0.66107  0.35517  1.0000
  H   H1429     1.0  0.57561  0.56502  0.15507  1.0000
  H   H1430     1.0  0.57351  0.62681  0.17037  1.0000
  C   C1824     1.0  0.57792  0.64345  0.16184  1.0000
  C   C1825     1.0  0.56245  0.65139  0.15013  1.0000
  H   H1431     1.0  0.53710  0.56514  0.13401  1.0000
  H   H1432     1.0  0.48318  0.53749  0.39603  1.0000
  H   H1433     1.0  0.62913  0.54384  0.09497  1.0000
  C   C1826     1.0  0.59890  0.65694  0.16359  1.0000
  C   C1827     1.0  0.67770  0.68828  0.45809  1.0000
  C   C1828     1.0  0.51066  0.53324  0.02153  1.0000
  C   C1829     1.0  0.57698  0.51866  0.09699  1.0000
  H   H1434     1.0  0.55680  0.67971  0.13093  1.0000
  H   H1435     1.0  0.62021  0.68894  0.15682  1.0000
  C   C1830     1.0  0.59653  0.48747  0.31379  1.0000
  H   H1436     1.0  0.73352  0.70691  0.40112  1.0000
  C   C1831     1.0  0.68910  0.72116  0.24400  1.0000
  C   C1832     1.0  0.61169  0.61396  0.01930  1.0000
  H   H1437     1.0  0.83026  0.55730  0.02216  1.0000
  C   C1833     1.0  0.48104  0.48794  0.45729  1.0000
  H   H1438     1.0  0.62004  0.57817  0.06816  1.0000
  H   H1439     1.0  0.71721  0.72489  0.31655  1.0000
  H   H1440     1.0  0.52546  0.52929  0.28313  1.0000
  H   H1441     1.0  0.59461  0.71981  0.30053  1.0000
  H   H1442     1.0  0.68780  0.63975  0.06901  1.0000
  H   H1443     1.0  0.95450  0.65461  0.47479  1.0000
  P   P63       1.0  0.49764  0.48975  0.04126  1.0000
  H   H1444     1.0  0.64819  0.69106  0.07512  1.0000
  C   C1834     1.0  0.63061  0.62922  0.02326  1.0000
  C   C1835     1.0  0.68868  0.70923  0.45757  1.0000
  H   H1445     1.0  0.65874  0.70655  0.41313  1.0000
  C   C1836     1.0  0.49025  0.60256  0.24596  1.0000
  C   C1837     1.0  0.77555  0.52206  0.04239  1.0000
  C   C1838     1.0  0.55007  0.73309  0.23703  1.0000
  H   H1446     1.0  0.66220  0.59517  0.08734  1.0000
  C   C1839     1.0  0.60273  0.61802  0.99456  1.0000
  C   C1840     1.0  0.61474  0.49286  0.05513  1.0000
  H   H1447     1.0  0.67654  0.70367  0.32166  1.0000
  C   C1841     1.0  0.72959  0.49379  0.04099  1.0000
  C   C1842     1.0  0.79378  0.54117  0.03034  1.0000
  H   H1448     1.0  0.52656  0.56221  0.47408  1.0000
  H   H1449     1.0  0.52053  0.71564  0.16827  1.0000
  H   H1450     1.0  0.77601  0.52940  0.97984  1.0000
  H   H1451     1.0  0.51331  0.66143  0.16910  1.0000
  H   H1452     1.0  0.61920  0.49407  0.00848  1.0000
  C   C1843     1.0  0.55560  0.71933  0.25759  1.0000
  C   C1844     1.0  0.49623  0.49862  0.47218  1.0000
  S   S240      1.0  0.54483  0.73547  0.32593  1.0000
  H   H1453     1.0  0.48390  0.70393  0.20682  1.0000
  H   H1454     1.0  0.70323  0.58035  0.01711  1.0000
  C   C1845     1.0  0.49680  0.67043  0.13532  1.0000
  H   H1455     1.0  0.94327  0.66421  0.42750  1.0000
  H   H1456     1.0  0.51008  0.49342  0.47684  1.0000
  H   H1457     1.0  0.58099  0.49244  0.98777  1.0000
  H   H1458     1.0  0.54316  0.71725  0.41787  1.0000
  H   H1459     1.0  0.90619  0.49228  0.28177  1.0000
  C   C1846     1.0  0.70250  0.49406  0.98060  1.0000
  H   H1460     1.0  0.48017  0.59536  0.26891  1.0000
  H   H1461     1.0  0.48103  0.65645  0.43731  1.0000
  C   C1847     1.0  0.74350  0.71947  0.40913  1.0000
  C   C1848     1.0  0.53907  0.72054  0.43951  1.0000
  H   H1462     1.0  0.96902  0.57447  0.43466  1.0000
  H   H1463     1.0  0.95737  0.65271  0.38297  1.0000
  C   C1849     1.0  0.65300  0.71646  0.27799  1.0000
  H   H1464     1.0  0.75758  0.48756  0.01466  1.0000
  H   H1465     1.0  0.96510  0.55491  0.39606  1.0000
  H   H1466     1.0  0.95567  0.59200  0.47539  1.0000
  H   H1467     1.0  0.77403  0.71144  0.40025  1.0000
  C   C1850     1.0  0.47864  0.50086  0.09142  1.0000
  H   H1468     1.0  0.64106  0.73399  0.35739  1.0000
  H   H1469     1.0  0.49040  0.68035  0.14709  1.0000
  H   H1470     1.0  0.64595  0.49512  0.26266  1.0000
  C   C1851     1.0  0.62004  0.72910  0.32562  1.0000
  C   C1852     1.0  0.96054  0.64947  0.45540  1.0000
  H   H1471     1.0  0.58512  0.72809  0.41184  1.0000
  S   S241      1.0  0.49106  0.73352  0.33198  1.0000
  H   H1472     1.0  0.52543  0.50217  0.97901  1.0000
  H   H1473     1.0  0.76598  0.49002  0.06705  1.0000
  H   H1474     1.0  0.48195  0.67665  0.09818  1.0000
  H   H1475     1.0  0.47904  0.71383  0.28344  1.0000
  C   C1853     1.0  0.97635  0.63644  0.40521  1.0000
  C   C1854     1.0  0.56620  0.60767  0.47544  1.0000
  H   H1476     1.0  0.69472  0.60468  0.97882  1.0000
  H   H1477     1.0  0.60603  0.64035  0.95394  1.0000
  H   H1478     1.0  0.52336  0.69684  0.51417  1.0000
  C   C1855     1.0  0.62588  0.72955  0.64874  1.0000
  H   H1479     1.0  0.77555  0.54880  0.93032  1.0000
  H   H1480     1.0  0.50526  0.52426  0.49269  1.0000
  H   H1481     1.0  0.57746  0.61397  0.51454  1.0000
  H   H1482     1.0  0.68745  0.70776  0.67681  1.0000
  H   H1483     1.0  0.63174  0.71082  0.78674  1.0000
  C   C1856     1.0  0.48956  0.63334  0.49318  1.0000
  Fe  Fe122     1.0  0.60030  0.53792  0.94887  1.0000
  H   H1484     1.0  0.54363  0.53583  0.94161  1.0000
  H   H1485     1.0  0.71710  0.56243  0.97167  1.0000
  H   H1486     1.0  0.57236  0.73294  0.60471  1.0000
  H   H1487     1.0  0.74608  0.56533  0.92607  1.0000
  S   S242      1.0  0.63800  0.55665  0.93045  1.0000
  C   C1857     1.0  0.68975  0.71467  0.48483  1.0000
  Fe  Fe123     1.0  0.62845  0.58424  0.93778  1.0000
  S   S243      1.0  0.63915  0.61460  0.90293  1.0000
  C   C1858     1.0  0.65415  0.72200  0.58130  1.0000
  H   H1488     1.0  0.63860  0.71335  0.73221  1.0000
  H   H1489     1.0  0.74820  0.65998  0.71268  1.0000
  C   C1859     1.0  0.49359  0.51602  0.48103  1.0000
  C   C1860     1.0  0.74363  0.68957  0.70055  1.0000
  H   H1490     1.0  0.67968  0.70397  0.53315  1.0000
  C   C1861     1.0  0.52809  0.72884  0.49531  1.0000
  S   S244      1.0  0.61979  0.69474  0.56490  1.0000
  C   C1862     1.0  0.53402  0.53510  0.96374  1.0000
  S   S245      1.0  0.57702  0.70154  0.51614  1.0000
  S   S246      1.0  0.62581  0.69947  0.47981  1.0000
  S   S247      1.0  0.70068  0.69843  0.92447  1.0000
  C   C1863     1.0  0.47989  0.59636  0.49670  1.0000
  H   H1491     1.0  0.54124  0.56819  0.95469  1.0000
  H   H1492     1.0  0.65835  0.66759  0.53380  1.0000
  C   C1864     1.0  0.51060  0.61458  0.51764  1.0000
  H   H1493     1.0  0.74408  0.72102  0.68847  1.0000
  H   H1494     1.0  0.94303  0.56707  0.52523  1.0000
  H   H1495     1.0  0.52680  0.55362  0.52747  1.0000
  C   C1865     1.0  0.58872  0.72406  0.68056  1.0000
  C   C1866     1.0  0.69691  0.70988  0.71834  1.0000
  H   H1496     1.0  0.57527  0.71578  0.70099  1.0000
  H   H1497     1.0  0.67135  0.59102  0.84743  1.0000
  S   S248      1.0  0.70707  0.72271  0.84013  1.0000
  C   C1867     1.0  0.68925  0.59745  0.80086  1.0000
  C   C1868     1.0  0.65490  0.63731  0.91173  1.0000
  C   C1869     1.0  0.66976  0.63699  0.93051  1.0000
  C   C1870     1.0  0.68354  0.65580  0.93483  1.0000
  C   C1871     1.0  0.68264  0.67492  0.92011  1.0000
  C   C1872     1.0  0.66745  0.67511  0.90183  1.0000
  C   C1873     1.0  0.65346  0.65632  0.89802  1.0000
  H   H1498     1.0  0.67103  0.62234  0.94100  1.0000
  H   H1499     1.0  0.69529  0.65562  0.94899  1.0000
  H   H1500     1.0  0.66642  0.68973  0.89067  1.0000
  H   H1501     1.0  0.64168  0.65643  0.88407  1.0000
  H   H1502     1.0  0.63763  0.51606  0.91780  1.0000
  C   C1874     1.0  0.77606  0.72012  0.69809  1.0000
  S   S249      1.0  0.59073  0.56606  0.95140  1.0000
  C   C1875     1.0  0.50678  0.63325  0.50835  1.0000
  H   H1503     1.0  0.61057  0.70663  0.69112  1.0000
  C   C1876     1.0  0.64384  0.71785  0.55791  1.0000
  C   C1877     1.0  0.78873  0.70719  0.70479  1.0000
  H   H1504     1.0  0.49952  0.58165  0.52005  1.0000
  C   C1878     1.0  0.55228  0.58314  0.52440  1.0000
  H   H1505     1.0  0.78833  0.67564  0.71606  1.0000
  C   C1879     1.0  0.64581  0.72373  0.77111  1.0000
  C   C1880     1.0  0.56759  0.48771  0.94961  1.0000
  C   C1881     1.0  0.56640  0.60264  0.50567  1.0000
  C   C1882     1.0  0.67863  0.60248  0.82587  1.0000
  C   C1883     1.0  0.76312  0.54784  0.95031  1.0000
  C   C1884     1.0  0.66731  0.67903  0.51254  1.0000
  H   H1506     1.0  0.80650  0.71375  0.70536  1.0000
  C   C1885     1.0  0.69885  0.61245  0.77330  1.0000
  H   H1507     1.0  0.69018  0.58200  0.80296  1.0000
  C   C1886     1.0  0.67739  0.62239  0.82328  1.0000
  C   C1887     1.0  0.96118  0.57415  0.51401  1.0000
  H   H1508     1.0  0.70736  0.60861  0.75404  1.0000
  H   H1509     1.0  0.63906  0.66766  0.96096  1.0000
  C   C1888     1.0  0.53807  0.56858  0.51280  1.0000
  C   C1889     1.0  0.75598  0.67673  0.70854  1.0000
  H   H1510     1.0  0.48742  0.68331  0.48706  1.0000
  C   C1890     1.0  0.75367  0.71119  0.69518  1.0000
  C   C1891     1.0  0.77856  0.68554  0.71049  1.0000
  C   C1892     1.0  0.64961  0.72521  0.74028  1.0000
  S   S250      1.0  0.58448  0.65677  0.52056  1.0000
  H   H1511     1.0  0.76429  0.70905  0.78539  1.0000
  H   H1512     1.0  0.64142  0.72577  0.64478  1.0000
  H   H1513     1.0  0.66824  0.64971  0.74288  1.0000
  C   C1893     1.0  0.68630  0.63731  0.79547  1.0000
  H   H1514     1.0  0.70553  0.64396  0.74938  1.0000
  H   H1515     1.0  0.64715  0.71113  0.60322  1.0000
  C   C1894     1.0  0.60849  0.71882  0.67501  1.0000
  H   H1516     1.0  0.52387  0.73179  0.51711  1.0000
  H   H1517     1.0  0.64726  0.50125  0.96357  1.0000
  S   S251      1.0  0.52102  0.65599  0.51866  1.0000
  H   H1518     1.0  0.52346  0.61420  0.52997  1.0000
  C   C1895     1.0  0.69758  0.63239  0.77065  1.0000
  H   H1519     1.0  0.54006  0.72336  0.58122  1.0000
  C   C1896     1.0  0.67915  0.69960  0.51216  1.0000
  H   H1520     1.0  0.55220  0.57943  0.54794  1.0000
  C   C1897     1.0  0.74656  0.55716  0.94788  1.0000
  H   H1521     1.0  0.74898  0.73221  0.74203  1.0000
  H   H1522     1.0  0.72635  0.68283  0.69825  1.0000
  C   C1898     1.0  0.66682  0.67333  0.48553  1.0000
  S   S252      1.0  0.57931  0.51405  0.92878  1.0000
  C   C1899     1.0  0.74807  0.69841  0.80021  1.0000
  C   C1900     1.0  0.74505  0.69478  0.83128  1.0000
  C   C1901     1.0  0.72411  0.68116  0.85056  1.0000
  C   C1902     1.0  0.70591  0.67180  0.83875  1.0000
  C   C1903     1.0  0.70846  0.67613  0.80761  1.0000
  C   C1904     1.0  0.73002  0.68879  0.78837  1.0000
  P   P64       1.0  0.68512  0.66311  0.79288  1.0000
  C   C1905     1.0  0.65787  0.66226  0.81425  1.0000
  C   C1906     1.0  0.63809  0.64445  0.82048  1.0000
  C   C1907     1.0  0.61674  0.64433  0.83544  1.0000
  C   C1908     1.0  0.61484  0.66214  0.84363  1.0000
  C   C1909     1.0  0.63433  0.68004  0.83700  1.0000
  C   C1910     1.0  0.65578  0.68017  0.82227  1.0000
  C   C1911     1.0  0.68699  0.67712  0.75550  1.0000
  C   C1912     1.0  0.69622  0.69900  0.74691  1.0000
  C   C1913     1.0  0.49704  0.59616  0.51201  1.0000
  C   C1914     1.0  0.68748  0.69914  0.69862  1.0000
  C   C1915     1.0  0.67729  0.67744  0.70749  1.0000
  C   C1916     1.0  0.67690  0.66645  0.73592  1.0000
  Fe  Fe124     1.0  0.60368  0.68822  0.52659  1.0000
  Fe  Fe125     1.0  0.70608  0.72634  0.88681  1.0000
  H   H1523     1.0  0.72175  0.67833  0.87468  1.0000
  H   H1524     1.0  0.68984  0.66125  0.85390  1.0000
  H   H1525     1.0  0.73292  0.69147  0.76428  1.0000
  H   H1526     1.0  0.63898  0.63062  0.81377  1.0000
  H   H1527     1.0  0.60168  0.63038  0.84082  1.0000
  H   H1528     1.0  0.59835  0.66206  0.85536  1.0000
  H   H1529     1.0  0.63287  0.69375  0.84365  1.0000
  H   H1530     1.0  0.67062  0.69430  0.81703  1.0000
  H   H1531     1.0  0.66943  0.62611  0.84305  1.0000
  H   H1532     1.0  0.70243  0.70774  0.76242  1.0000
  H   H1533     1.0  0.75882  0.70277  0.84041  1.0000
  Fe  Fe126     1.0  0.55995  0.67132  0.50500  1.0000
  H   H1534     1.0  0.66927  0.66923  0.69253  1.0000
  H   H1535     1.0  0.61195  0.49317  0.89425  1.0000
  H   H1536     1.0  0.64555  0.72888  0.51121  1.0000
  H   H1537     1.0  0.73158  0.49053  0.95300  1.0000
  C   C1917     1.0  0.61251  0.63740  0.97362  1.0000
  C   C1918     1.0  0.53270  0.55330  0.97112  1.0000
  H   H1538     1.0  0.65763  0.65735  0.48582  1.0000
  C   C1919     1.0  0.63121  0.65275  0.97749  1.0000
  C   C1920     1.0  0.52786  0.70900  0.49371  1.0000
  H   H1539     1.0  0.70411  0.72678  0.71178  1.0000
  H   H1540     1.0  0.79801  0.73218  0.74678  1.0000
  H   H1541     1.0  0.97171  0.55783  0.54948  1.0000
  C   C1921     1.0  0.61653  0.48644  0.91398  1.0000
  H   H1542     1.0  0.69865  0.73059  0.48506  1.0000
  C   C1922     1.0  0.53799  0.57352  0.48246  1.0000
  C   C1923     1.0  0.63081  0.49938  0.92748  1.0000
  H   H1543     1.0  0.48653  0.64764  0.48595  1.0000
  C   C1924     1.0  0.63586  0.49089  0.95375  1.0000
  C   C1925     1.0  0.96845  0.58835  0.48580  1.0000
  C   C1926     1.0  0.65337  0.73175  0.52938  1.0000
  C   C1927     1.0  0.73034  0.55567  0.97359  1.0000
  C   C1928     1.0  0.97730  0.56894  0.52769  1.0000
  C   C1929     1.0  0.62611  0.75898  0.26881  1.0000
  H   H1544     1.0  0.59291  0.77941  0.21508  1.0000
  C   C1930     1.0  0.68037  0.79849  0.33741  1.0000
  H   H1545     1.0  0.68119  0.75380  0.31888  1.0000
  H   H1546     1.0  0.70154  0.77967  0.34315  1.0000
  H   H1547     1.0  0.55740  0.81266  0.47764  1.0000
  H   H1548     1.0  0.64795  0.75766  0.22821  1.0000
  C   C1931     1.0  0.69613  0.74264  0.24119  1.0000
  C   C1932     1.0  0.68159  0.75104  0.25676  1.0000
  C   C1933     1.0  0.56276  0.73980  0.20693  1.0000
  H   H1549     1.0  0.71270  0.75279  0.22663  1.0000
  H   H1550     1.0  0.62698  0.77076  0.19448  1.0000
  H   H1551     1.0  0.68702  0.76775  0.25395  1.0000
  C   C1934     1.0  0.67759  0.75256  0.44078  1.0000
  C   C1935     1.0  0.68744  0.78166  0.33426  1.0000
  H   H1552     1.0  0.49182  0.78833  0.25553  1.0000
  C   C1936     1.0  0.60647  0.76339  0.28023  1.0000
  H   H1553     1.0  0.72151  0.80481  0.38845  1.0000
  C   C1937     1.0  0.62160  0.76918  0.21837  1.0000
  H   H1554     1.0  0.50071  0.78091  0.44300  1.0000
  H   H1555     1.0  0.63546  0.78797  0.30535  1.0000
  H   H1556     1.0  0.65750  0.77083  0.45454  1.0000
  C   C1938     1.0  0.65712  0.76915  0.30950  1.0000
  H   H1557     1.0  0.48504  0.79526  0.20464  1.0000
  C   C1939     1.0  0.53737  0.78651  0.43565  1.0000
  H   H1558     1.0  0.57955  0.77426  0.26996  1.0000
  C   C1940     1.0  0.54083  0.81098  0.37899  1.0000
  C   C1941     1.0  0.60234  0.77395  0.22995  1.0000
  H   H1559     1.0  0.73848  0.75780  0.44300  1.0000
  Fe  Fe127     1.0  0.50278  0.76513  0.34077  1.0000
  S   S253      1.0  0.52216  0.75710  0.37381  1.0000
  C   C1942     1.0  0.63345  0.76169  0.23769  1.0000
  Fe  Fe128     1.0  0.52419  0.74566  0.29588  1.0000
  S   S254      1.0  0.61373  0.74640  0.44844  1.0000
  S   S255      1.0  0.52727  0.74178  0.24869  1.0000
  H   H1560     1.0  0.72901  0.73631  0.35998  1.0000
  H   H1561     1.0  0.68900  0.80960  0.34867  1.0000
  Fe  Fe129     1.0  0.55217  0.76721  0.33406  1.0000
  S   S256      1.0  0.58691  0.78758  0.33549  1.0000
  C   C1943     1.0  0.66185  0.80077  0.32648  1.0000
  S   S257      1.0  0.53373  0.77825  0.30156  1.0000
  C   C1944     1.0  0.56053  0.80879  0.38662  1.0000
  C   C1945     1.0  0.53992  0.74058  0.44102  1.0000
  H   H1562     1.0  0.68559  0.80426  0.42136  1.0000
  C   C1946     1.0  0.59474  0.77097  0.26088  1.0000
  H   H1563     1.0  0.50411  0.80251  0.39348  1.0000
  C   C1947     1.0  0.51942  0.80109  0.39965  1.0000
  C   C1948     1.0  0.60708  0.75718  0.41595  1.0000
  C   C1949     1.0  0.76911  0.75040  0.43237  1.0000
  C   C1950     1.0  0.58617  0.75397  0.37742  1.0000
  C   C1951     1.0  0.59526  0.77562  0.36565  1.0000
  C   C1952     1.0  0.61071  0.78797  0.37858  1.0000
  C   C1953     1.0  0.61651  0.77877  0.40382  1.0000
  H   H1564     1.0  0.57421  0.79452  0.41993  1.0000
  H   H1565     1.0  0.57435  0.74432  0.36741  1.0000
  H   H1566     1.0  0.61767  0.80470  0.36960  1.0000
  H   H1567     1.0  0.62805  0.78840  0.41422  1.0000
  H   H1568     1.0  0.60007  0.76072  0.30420  1.0000
  C   C1954     1.0  0.66000  0.73797  0.27548  1.0000
  H   H1569     1.0  0.54529  0.75270  0.42042  1.0000
  C   C1955     1.0  0.74626  0.74807  0.43259  1.0000
  C   C1956     1.0  0.59225  0.74475  0.40249  1.0000
  H   H1570     1.0  0.59115  0.73851  0.17457  1.0000
  C   C1957     1.0  0.69797  0.75273  0.42265  1.0000
  H   H1571     1.0  0.57705  0.81606  0.37032  1.0000
  C   C1958     1.0  0.68909  0.78994  0.42157  1.0000
  P   P65       1.0  0.64091  0.74905  0.29433  1.0000
  H   H1572     1.0  0.65606  0.81360  0.32930  1.0000
  H   H1573     1.0  0.54207  0.81993  0.35682  1.0000
  C   C1959     1.0  0.71362  0.77164  0.40337  1.0000
  C   C1960     1.0  0.55883  0.79655  0.41477  1.0000
  H   H1574     1.0  0.72922  0.77204  0.38870  1.0000
  C   C1961     1.0  0.65019  0.78614  0.31271  1.0000
  C   C1962     1.0  0.67593  0.76708  0.32030  1.0000
  C   C1963     1.0  0.67327  0.77113  0.44036  1.0000
  C   C1964     1.0  0.70926  0.79021  0.40303  1.0000
  H   H1575     1.0  0.55859  0.75046  0.19089  1.0000
  C   C1965     1.0  0.53412  0.74477  0.46894  1.0000
  C   C1966     1.0  0.51761  0.78880  0.42783  1.0000
  H   H1576     1.0  0.66491  0.73815  0.45518  1.0000
  H   H1577     1.0  0.77883  0.76209  0.44202  1.0000
  S   S258      1.0  0.47845  0.78182  0.35246  1.0000
  C   C1967     1.0  0.77922  0.73740  0.42034  1.0000
  P   P66       1.0  0.53548  0.77050  0.47174  1.0000
  H   H1578     1.0  0.79687  0.73913  0.42042  1.0000
  Fe  Fe130     1.0  0.88470  0.84590  0.67938  1.0000
  S   S259      1.0  0.86300  0.85411  0.71545  1.0000
  S   S260      1.0  0.87001  0.83051  0.64489  1.0000
  Fe  Fe131     1.0  0.92766  0.86063  0.70317  1.0000
  S   S261      1.0  0.90836  0.86906  0.74073  1.0000
  Fe  Fe132     1.0  0.88004  0.83932  0.74638  1.0000
  S   S262      1.0  0.86200  0.81998  0.79358  1.0000
  Fe  Fe133     1.0  0.89388  0.88308  0.70590  1.0000
  S   S263      1.0  0.89100  0.91446  0.70472  1.0000
  S   S264      1.0  0.90018  0.82924  0.71125  1.0000
  S   S265      1.0  0.91455  0.87632  0.66743  1.0000
  Fe  Fe134     1.0  0.72839  0.91541  0.69807  1.0000
  S   S266      1.0  0.72571  0.92711  0.73969  1.0000
  S   S267      1.0  0.70339  0.91622  0.66968  1.0000
  Fe  Fe135     1.0  0.76738  0.90132  0.70850  1.0000
  S   S268      1.0  0.76772  0.91090  0.75145  1.0000
  S   S269      1.0  0.79119  0.88724  0.68692  1.0000
  Fe  Fe136     1.0  0.72936  0.89722  0.76162  1.0000
  S   S270      1.0  0.70563  0.88032  0.80752  1.0000
  Fe  Fe137     1.0  0.76429  0.93983  0.72575  1.0000
  S   S271      1.0  0.78717  0.96902  0.73371  1.0000
  S   S272      1.0  0.72934  0.88471  0.72101  1.0000
  S   S273      1.0  0.76666  0.93117  0.68186  1.0000
  H   H1579     1.0  0.84035  0.81083  0.61022  1.0000
  C   C1968     1.0  0.84210  0.82961  0.64216  1.0000
  H   H1580     1.0  0.83853  0.84865  0.67264  1.0000
  C   C1969     1.0  0.79792  0.82866  0.63670  1.0000
  C   C1970     1.0  0.93280  0.80614  0.74761  1.0000
  H   H1581     1.0  0.80585  0.78272  0.74535  1.0000
  H   H1582     1.0  0.80150  0.81035  0.60511  1.0000
  S   S274      1.0  0.71983  0.80203  0.88328  1.0000
  C   C1971     1.0  0.83048  0.83987  0.65845  1.0000
  P   P67       1.0  0.92099  0.82133  0.83994  1.0000
  H   H1583     1.0  0.64127  0.81410  0.58853  1.0000
  H   H1584     1.0  0.78809  0.76389  0.84175  1.0000
  H   H1585     1.0  0.72238  0.74846  0.76346  1.0000
  H   H1586     1.0  0.85322  0.75034  0.92599  1.0000
  C   C1972     1.0  0.67351  0.74004  0.57647  1.0000
  C   C1973     1.0  0.75084  0.95146  0.60921  1.0000
  H   H1587     1.0  0.94921  0.85860  0.85548  1.0000
  H   H1588     1.0  0.84513  0.81681  0.88508  1.0000
  H   H1589     1.0  0.92333  0.98360  0.71970  1.0000
  C   C1974     1.0  0.70848  0.85740  0.82695  1.0000
  C   C1975     1.0  0.72085  0.84670  0.81259  1.0000
  C   C1976     1.0  0.72371  0.82906  0.82946  1.0000
  C   C1977     1.0  0.71465  0.82250  0.86072  1.0000
  C   C1978     1.0  0.70236  0.83328  0.87486  1.0000
  C   C1979     1.0  0.69896  0.85041  0.85801  1.0000
  H   H1590     1.0  0.72857  0.85228  0.78867  1.0000
  H   H1591     1.0  0.73367  0.82108  0.81850  1.0000
  H   H1592     1.0  0.69550  0.82839  0.89898  1.0000
  H   H1593     1.0  0.68953  0.85868  0.86925  1.0000
  C   C1980     1.0  0.83603  0.80142  0.79359  1.0000
  C   C1981     1.0  0.66987  0.87167  0.63299  1.0000
  C   C1982     1.0  0.86985  0.90930  0.79091  1.0000
  C   C1983     1.0  0.81010  0.78412  0.76642  1.0000
  C   C1984     1.0  0.83067  0.79921  0.76644  1.0000
  C   C1985     1.0  0.82555  0.88537  0.59509  1.0000
  H   H1594     1.0  0.68112  0.74315  0.59483  1.0000
  H   H1595     1.0  0.84236  0.80903  0.74536  1.0000
  C   C1986     1.0  0.86433  0.91049  0.69664  1.0000
  C   C1987     1.0  0.84730  0.91532  0.71432  1.0000
  C   C1988     1.0  0.82485  0.90897  0.71063  1.0000
  C   C1989     1.0  0.81951  0.89770  0.68947  1.0000
  C   C1990     1.0  0.83676  0.89341  0.67135  1.0000
  C   C1991     1.0  0.85911  0.89970  0.67502  1.0000
  H   H1596     1.0  0.85109  0.92276  0.73203  1.0000
  H   H1597     1.0  0.81156  0.91202  0.72501  1.0000
  H   H1598     1.0  0.83268  0.88451  0.65522  1.0000
  H   H1599     1.0  0.87212  0.89553  0.66174  1.0000
  H   H1600     1.0  0.73416  0.97303  0.69639  1.0000
  S   S275      1.0  0.77108  0.83014  0.63304  1.0000
  H   H1601     1.0  0.72765  0.78516  0.74009  1.0000
  C   C1992     1.0  0.58656  0.74029  0.66006  1.0000
  H   H1602     1.0  0.57917  0.79762  0.57740  1.0000
  C   C1993     1.0  0.95728  0.93584  0.67481  1.0000
  H   H1603     1.0  0.95106  0.89647  0.73026  1.0000
  H   H1604     1.0  0.82766  0.87032  0.59761  1.0000
  C   C1994     1.0  0.85129  0.90942  0.81215  1.0000
  H   H1605     1.0  0.79997  0.84773  0.66818  1.0000
  H   H1606     1.0  0.69554  0.77041  0.71454  1.0000
  C   C1995     1.0  0.70428  0.86496  0.63988  1.0000
  C   C1996     1.0  0.71055  0.88242  0.65181  1.0000
  C   C1997     1.0  0.69639  0.89446  0.65439  1.0000
  C   C1998     1.0  0.67628  0.88923  0.64442  1.0000
  P   P68       1.0  0.60207  0.77353  0.60936  1.0000
  H   H1607     1.0  0.71528  0.85578  0.63769  1.0000
  H   H1608     1.0  0.72647  0.88670  0.65861  1.0000
  H   H1609     1.0  0.66541  0.89857  0.64603  1.0000
  C   C1999     1.0  0.83143  0.81872  0.62309  1.0000
  C   C2000     1.0  0.72931  0.84114  0.69883  1.0000
  C   C2001     1.0  0.74349  0.83683  0.71681  1.0000
  C   C2002     1.0  0.73394  0.82612  0.74700  1.0000
  C   C2003     1.0  0.71024  0.81944  0.75918  1.0000
  C   C2004     1.0  0.69582  0.82404  0.74146  1.0000
  C   C2005     1.0  0.70563  0.83513  0.71119  1.0000
  P   P69       1.0  0.66524  0.81688  0.75741  1.0000
  C   C2006     1.0  0.65944  0.80973  0.79806  1.0000
  C   C2007     1.0  0.65842  0.83977  0.74426  1.0000
  C   C2008     1.0  0.67138  0.85895  0.74815  1.0000
  C   C2009     1.0  0.66765  0.87717  0.73608  1.0000
  C   C2010     1.0  0.65109  0.87641  0.71977  1.0000
  C   C2011     1.0  0.63798  0.85736  0.71591  1.0000
  C   C2012     1.0  0.64152  0.83904  0.72825  1.0000
  C   C2013     1.0  0.65493  0.82321  0.81533  1.0000
  H   H1610     1.0  0.89773  0.78506  0.76275  1.0000
  H   H1611     1.0  0.95995  0.83772  0.78691  1.0000
  S   S276      1.0  0.73879  0.75413  0.87316  1.0000
  C   C2014     1.0  0.66055  0.79069  0.81266  1.0000
  C   C2015     1.0  0.64948  0.79544  0.74398  1.0000
  C   C2016     1.0  0.65561  0.79551  0.71357  1.0000
  C   C2017     1.0  0.64375  0.77887  0.70318  1.0000
  C   C2018     1.0  0.62544  0.76214  0.72292  1.0000
  C   C2019     1.0  0.61879  0.76213  0.75305  1.0000
  C   C2020     1.0  0.63059  0.77878  0.76351  1.0000
  H   H1612     1.0  0.73690  0.84970  0.67548  1.0000
  H   H1613     1.0  0.76191  0.84215  0.70734  1.0000
  H   H1614     1.0  0.74488  0.82328  0.76126  1.0000
  H   H1615     1.0  0.70360  0.81136  0.78267  1.0000
  H   H1616     1.0  0.69514  0.83960  0.69725  1.0000
  H   H1617     1.0  0.68460  0.85983  0.76030  1.0000
  H   H1618     1.0  0.67817  0.89199  0.73853  1.0000
  H   H1619     1.0  0.64895  0.89073  0.70943  1.0000
  H   H1620     1.0  0.62553  0.85693  0.70268  1.0000
  H   H1621     1.0  0.63141  0.82450  0.72473  1.0000
  H   H1622     1.0  0.65405  0.83806  0.80510  1.0000
  H   H1623     1.0  0.84185  0.77224  0.88770  1.0000
  H   H1624     1.0  0.92377  0.79018  0.89031  1.0000
  S   S277      1.0  0.72763  0.77618  0.61778  1.0000
  H   H1625     1.0  0.66423  0.78016  0.79984  1.0000
  H   H1626     1.0  0.66959  0.80827  0.69774  1.0000
  H   H1627     1.0  0.64928  0.77861  0.68000  1.0000
  C   C2021     1.0  0.81806  0.75796  0.63208  1.0000
  C   C2022     1.0  0.62874  0.77397  0.55496  1.0000
  H   H1628     1.0  0.62505  0.77840  0.78692  1.0000
  C   C2023     1.0  0.82536  0.96155  0.61317  1.0000
  C   C2024     1.0  0.78724  0.79919  0.89381  1.0000
  C   C2025     1.0  0.78084  0.76154  0.63397  1.0000
  C   C2026     1.0  0.87639  0.79368  0.86748  1.0000
  C   C2027     1.0  0.64719  0.78261  0.52941  1.0000
  C   C2028     1.0  0.68329  0.75370  0.54780  1.0000
  C   C2029     1.0  0.65359  0.79900  0.86062  1.0000
  C   C2030     1.0  0.97327  0.87840  0.73085  1.0000
  H   H1629     1.0  0.76407  0.76038  0.64642  1.0000
  C   C2031     1.0  0.50813  0.78048  0.51695  1.0000
  H   H1630     1.0  0.83033  0.75386  0.64312  1.0000
  S   S278      1.0  0.70788  0.77629  0.54090  1.0000
  C   C2032     1.0  0.60406  0.75119  0.63366  1.0000
  C   C2033     1.0  0.57723  0.76592  0.59442  1.0000
  H   H1631     1.0  0.82982  0.96589  0.75209  1.0000
  H   H1632     1.0  0.89078  0.79308  0.81143  1.0000
  H   H1633     1.0  0.89170  0.83225  0.88572  1.0000
  C   C2034     1.0  0.86879  0.89125  0.78148  1.0000
  H   H1634     1.0  0.79298  0.87340  0.62814  1.0000
  C   C2035     1.0  0.85973  0.77623  0.88838  1.0000
  S   S279      1.0  0.96537  0.86721  0.70166  1.0000
  H   H1635     1.0  0.65210  0.79512  0.88457  1.0000
  C   C2036     1.0  0.94637  0.82583  0.78227  1.0000
  C   C2037     1.0  0.86295  0.97307  0.72195  1.0000
  C   C2038     1.0  0.91004  0.87597  0.81224  1.0000
  C   C2039     1.0  0.68182  0.75732  0.73035  1.0000
  C   C2040     1.0  0.97262  0.97324  0.65426  1.0000
  Fe  Fe138     1.0  0.69488  0.77340  0.64927  1.0000
  Fe  Fe139     1.0  0.71631  0.77330  0.86635  1.0000
  Fe  Fe140     1.0  0.68723  0.74436  0.83701  1.0000
  H   H1636     1.0  0.60488  0.74895  0.76852  1.0000
  C   C2041     1.0  0.86616  0.76390  0.90983  1.0000
  C   C2042     1.0  0.57022  0.78131  0.57925  1.0000
  C   C2043     1.0  0.88927  0.76905  0.91038  1.0000
  H   H1637     1.0  0.77169  0.78657  0.90712  1.0000
  C   C2044     1.0  0.79674  0.75686  0.64897  1.0000
  C   C2045     1.0  0.59546  0.78059  0.49882  1.0000
  S   S280      1.0  0.67885  0.78395  0.61351  1.0000
  C   C2046     1.0  0.50890  0.76743  0.49754  1.0000
  Fe  Fe141     1.0  0.74021  0.80940  0.62161  1.0000
  C   C2047     1.0  0.64274  0.80484  0.57269  1.0000
  C   C2048     1.0  0.96265  0.89152  0.74156  1.0000
  H   H1638     1.0  0.95588  0.97216  0.72424  1.0000
  H   H1639     1.0  0.85776  0.95894  0.71450  1.0000
  H   H1640     1.0  0.78415  0.96761  0.61431  1.0000
  C   C2049     1.0  0.90603  0.78643  0.88932  1.0000
  H   H1641     1.0  0.57178  0.75526  0.48872  1.0000
  H   H1642     1.0  0.94280  0.92125  0.68197  1.0000
  C   C2050     1.0  0.83849  0.98110  0.65774  1.0000
  H   H1643     1.0  0.80220  0.95918  0.52838  1.0000
  C   C2051     1.0  0.75109  0.74798  0.73103  1.0000
  H   H1644     1.0  0.85314  0.93604  0.55686  1.0000
  C   C2052     1.0  0.95406  0.95437  0.66303  1.0000
  H   H1645     1.0  0.48656  0.78845  0.55067  1.0000
  C   C2053     1.0  0.74001  0.98456  0.73496  1.0000
  C   C2054     1.0  0.56644  0.74500  0.59468  1.0000
  C   C2055     1.0  0.67481  0.98276  0.84728  1.0000
  H   H1646     1.0  0.92860  0.85844  0.79251  1.0000
  H   H1647     1.0  0.61643  0.75859  0.55766  1.0000
  C   C2056     1.0  0.74081  0.95725  0.80489  1.0000
  C   C2057     1.0  0.74786  0.94038  0.81385  1.0000
  C   C2058     1.0  0.77037  0.94391  0.81638  1.0000
  C   C2059     1.0  0.78581  0.96430  0.81010  1.0000
  C   C2060     1.0  0.83139  0.96562  0.54806  1.0000
  C   C2061     1.0  0.66170  0.81302  0.54774  1.0000
  C   C2062     1.0  0.89974  0.79877  0.86748  1.0000
  P   P70       1.0  0.81559  0.94902  0.58507  1.0000
  C   C2063     1.0  0.65763  0.78535  0.84373  1.0000
  H   H1648     1.0  0.82916  0.95005  0.68557  1.0000
  H   H1649     1.0  0.89423  0.75953  0.92711  1.0000
  H   H1650     1.0  0.89657  0.98480  0.69197  1.0000
  C   C2064     1.0  0.89657  0.84415  0.86490  1.0000
  C   C2065     1.0  0.82036  0.96758  0.52472  1.0000
  H   H1651     1.0  0.68100  0.75963  0.50195  1.0000
  H   H1652     1.0  0.48836  0.74209  0.48226  1.0000
  H   H1653     1.0  0.65889  0.77074  0.85456  1.0000
  C   C2066     1.0  0.83082  0.95939  0.66354  1.0000
  Fe  Fe142     1.0  0.71197  0.78837  0.58205  1.0000
  C   C2067     1.0  0.84256  0.90314  0.57533  1.0000
  H   H1654     1.0  0.61689  0.74896  0.71496  1.0000
  C   C2068     1.0  0.94883  0.82854  0.84832  1.0000
  H   H1655     1.0  0.73597  0.92456  0.81819  1.0000
  H   H1656     1.0  0.77596  0.93085  0.82270  1.0000
  H   H1657     1.0  0.73835  0.96946  0.74799  1.0000
  H   H1658     1.0  0.77975  0.91951  0.56670  1.0000
  H   H1659     1.0  0.86392  0.97527  0.55998  1.0000
  C   C2069     1.0  0.74829  0.92441  0.58280  1.0000
  H   H1660     1.0  0.76997  0.79674  0.77511  1.0000
  C   C2070     1.0  0.90760  0.80083  0.79621  1.0000
  H   H1661     1.0  0.71933  0.93213  0.60229  1.0000
  C   C2071     1.0  0.76926  0.75947  0.70559  1.0000
  H   H1662     1.0  0.80964  0.78803  0.91643  1.0000
  C   C2072     1.0  0.77246  0.78037  0.69323  1.0000
  C   C2073     1.0  0.73912  0.77792  0.73047  1.0000
  C   C2074     1.0  0.67844  0.75546  0.76138  1.0000
  H   H1663     1.0  0.78683  0.78966  0.67434  1.0000
  C   C2075     1.0  0.67343  0.74922  0.52418  1.0000
  Fe  Fe143     1.0  0.69561  0.81620  0.61754  1.0000
  H   H1664     1.0  0.80336  0.96701  0.81157  1.0000
  C   C2076     1.0  0.55180  0.77575  0.56608  1.0000
  C   C2077     1.0  0.60030  0.79074  0.63355  1.0000
  C   C2078     1.0  0.59798  0.81651  0.67278  1.0000
  C   C2079     1.0  0.61797  0.81200  0.66454  1.0000
  C   C2080     1.0  0.61897  0.79887  0.64549  1.0000
  H   H1665     1.0  0.81827  0.93276  0.64648  1.0000
  H   H1666     1.0  0.83267  0.78397  0.66875  1.0000
  H   H1667     1.0  0.85210  0.92340  0.81955  1.0000
  H   H1668     1.0  0.52348  0.79262  0.51717  1.0000
  H   H1669     1.0  0.56487  0.78793  0.63518  1.0000
  H   H1670     1.0  0.64875  0.77408  0.51250  1.0000
  S   S281      1.0  0.65526  0.73633  0.82045  1.0000
  H   H1671     1.0  0.59726  0.82669  0.68755  1.0000
  H   H1672     1.0  0.63294  0.81884  0.67250  1.0000
  H   H1673     1.0  0.63457  0.79538  0.63962  1.0000
  C   C2081     1.0  0.92509  0.81564  0.80353  1.0000
  H   H1674     1.0  0.73795  0.91184  0.57513  1.0000
  C   C2082     1.0  0.80814  0.76975  0.58598  1.0000
  C   C2083     1.0  0.91738  0.85891  0.81260  1.0000
  H   H1675     1.0  0.65775  0.97838  0.86188  1.0000
  H   H1676     1.0  0.87109  0.80312  0.85101  1.0000
  H   H1677     1.0  0.54643  0.78771  0.55459  1.0000
  C   C2084     1.0  0.79469  0.77139  0.79352  1.0000
  H   H1678     1.0  0.84056  0.76603  0.58783  1.0000
  H   H1679     1.0  0.82491  0.79015  0.84174  1.0000
  H   H1680     1.0  0.93561  0.80291  0.72574  1.0000
  C   C2085     1.0  0.65204  0.81783  0.84646  1.0000
  C   C2086     1.0  0.82071  0.78860  0.82076  1.0000
  C   C2087     1.0  0.57892  0.80779  0.66205  1.0000
  H   H1681     1.0  0.88989  0.89012  0.83749  1.0000
  C   C2088     1.0  0.81358  0.75617  0.70502  1.0000
  C   C2089     1.0  0.91037  0.84270  0.83878  1.0000
  H   H1682     1.0  0.67481  0.82790  0.54551  1.0000
  H   H1683     1.0  0.59254  0.82900  0.49335  1.0000
  C   C2090     1.0  0.62363  0.74553  0.62796  1.0000
  H   H1684     1.0  0.85792  0.90182  0.56250  1.0000
  C   C2091     1.0  0.73777  0.93584  0.59812  1.0000
  C   C2092     1.0  0.78522  0.94431  0.58959  1.0000
  C   C2093     1.0  0.89568  0.87696  0.83797  1.0000
  C   C2094     1.0  0.81317  0.74515  0.73356  1.0000
  C   C2095     1.0  0.66399  0.80188  0.52616  1.0000
  C   C2096     1.0  0.57999  0.79485  0.64263  1.0000
  H   H1685     1.0  0.56329  0.81105  0.66882  1.0000
  C   C2097     1.0  0.82384  0.76464  0.60071  1.0000
  Fe  Fe144     1.0  0.73823  0.75168  0.82630  1.0000
  C   C2098     1.0  0.79989  0.77374  0.82076  1.0000
  H   H1686     1.0  0.91554  0.88844  0.79192  1.0000
  C   C2099     1.0  0.81988  0.92425  0.58913  1.0000
  C   C2100     1.0  0.83202  0.75138  0.74581  1.0000
  H   H1687     1.0  0.88310  0.89128  0.76491  1.0000
  C   C2101     1.0  0.80859  0.80004  0.89900  1.0000
  C   C2102     1.0  0.84908  0.87340  0.79260  1.0000
  C   C2103     1.0  0.82995  0.87366  0.81296  1.0000
  C   C2104     1.0  0.83145  0.89164  0.82331  1.0000
  P   P71       1.0  0.80358  0.85130  0.82508  1.0000
  C   C2105     1.0  0.78107  0.86056  0.83948  1.0000
  C   C2106     1.0  0.79744  0.84152  0.79307  1.0000
  C   C2107     1.0  0.80664  0.85466  0.76379  1.0000
  C   C2108     1.0  0.80359  0.84665  0.73898  1.0000
  C   C2109     1.0  0.79084  0.82572  0.74305  1.0000
  C   C2110     1.0  0.78041  0.81287  0.77202  1.0000
  C   C2111     1.0  0.78384  0.82062  0.79695  1.0000
  C   C2112     1.0  0.77235  0.85701  0.87058  1.0000
  C   C2113     1.0  0.75669  0.86611  0.88143  1.0000
  C   C2114     1.0  0.75017  0.87933  0.86142  1.0000
  C   C2115     1.0  0.75913  0.88330  0.83054  1.0000
  C   C2116     1.0  0.77433  0.87382  0.81953  1.0000
  C   C2117     1.0  0.80573  0.83104  0.85358  1.0000
  C   C2118     1.0  0.82718  0.83159  0.85860  1.0000
  C   C2119     1.0  0.82854  0.81626  0.88144  1.0000
  C   C2120     1.0  0.77890  0.98122  0.80081  1.0000
  C   C2121     1.0  0.91148  0.79613  0.76840  1.0000
  C   C2122     1.0  0.78581  0.81465  0.87130  1.0000
  H   H1688     1.0  0.84852  0.85960  0.78468  1.0000
  H   H1689     1.0  0.81720  0.89219  0.83950  1.0000
  H   H1690     1.0  0.81655  0.87101  0.75984  1.0000
  H   H1691     1.0  0.81132  0.85659  0.71647  1.0000
  H   H1692     1.0  0.78897  0.81954  0.72372  1.0000
  C   C2123     1.0  0.96742  0.89881  0.76650  1.0000
  H   H1693     1.0  0.77605  0.81007  0.81898  1.0000
  H   H1694     1.0  0.77765  0.84739  0.88662  1.0000
  H   H1695     1.0  0.74941  0.86270  0.90537  1.0000
  H   H1696     1.0  0.73764  0.88604  0.86970  1.0000
  H   H1697     1.0  0.75353  0.89310  0.81514  1.0000
  H   H1698     1.0  0.78093  0.87695  0.79546  1.0000
  H   H1699     1.0  0.84292  0.84363  0.84475  1.0000
  C   C2124     1.0  0.75637  0.97782  0.79783  1.0000
  S   S282      1.0  0.72771  0.82202  0.58255  1.0000
  C   C2125     1.0  0.78657  0.76799  0.60259  1.0000
  H   H1700     1.0  0.76907  0.81387  0.86788  1.0000
  C   C2126     1.0  0.73605  0.75720  0.74339  1.0000
  H   H1701     1.0  0.60651  0.77179  0.50346  1.0000
  C   C2127     1.0  0.88900  0.86108  0.86434  1.0000
  P   P72       1.0  0.78912  0.74811  0.68944  1.0000
  C   C2128     1.0  0.82447  0.94962  0.64130  1.0000
  C   C2129     1.0  0.77194  0.92870  0.57835  1.0000
  C   C2130     1.0  0.77450  0.95576  0.60493  1.0000
  S   S283      1.0  0.70840  0.80518  0.65665  1.0000
  H   H1702     1.0  0.93706  0.95400  0.66111  1.0000
  S   S284      1.0  0.68353  0.74572  0.88503  1.0000
  H   H1703     1.0  0.64932  0.82860  0.85946  1.0000
  C   C2131     1.0  0.95024  0.82095  0.75459  1.0000
  C   C2132     1.0  0.80939  0.81828  0.62030  1.0000
  C   C2133     1.0  0.62642  0.78496  0.57694  1.0000
  H   H1704     1.0  0.87809  0.86198  0.88438  1.0000
  C   C2134     1.0  0.80857  0.83939  0.65575  1.0000
  C   C2135     1.0  0.68373  0.85940  0.63090  1.0000
  H   H1705     1.0  0.81267  0.77515  0.56171  1.0000
  S   S285      1.0  0.76912  0.75262  0.79275  1.0000
  H   H1706     1.0  0.65409  0.86754  0.62582  1.0000
  H   H1707     1.0  0.88503  0.92319  0.78149  1.0000
  H   H1708     1.0  0.72336  0.95417  0.80275  1.0000
  H   H1709     1.0  0.67896  0.80798  0.50720  1.0000
  C   C2136     1.0  0.80595  0.88704  0.61218  1.0000
  C   C2137     1.0  0.80325  0.90638  0.60960  1.0000
  H   H1710     1.0  0.77439  0.77198  0.59120  1.0000
  H   H1711     1.0  0.75947  0.80545  0.69511  1.0000
  C   C2138     1.0  0.95852  0.84790  0.85437  1.0000
  S   S286      1.0  0.67466  0.83726  0.61698  1.0000
  C   C2139     1.0  0.83977  0.92255  0.57232  1.0000
  H   H1712     1.0  0.68945  0.76720  0.76959  1.0000
  H   H1713     1.0  0.95896  0.90882  0.77471  1.0000
  C   C2140     1.0  0.85132  0.78050  0.70210  1.0000
  H   H1714     1.0  0.86534  0.77436  0.73993  1.0000
  C   C2141     1.0  0.83252  0.77429  0.68979  1.0000
  H   H1715     1.0  0.86574  0.79463  0.69036  1.0000
  C   C2142     1.0  0.75716  0.78942  0.70523  1.0000
  C   C2143     1.0  0.85114  0.76900  0.72999  1.0000
  S   S287      1.0  0.71846  0.77328  0.81803  1.0000
  H   H1716     1.0  0.78815  0.90727  0.62380  1.0000
  C   C2144     1.0  0.48840  0.75205  0.49754  1.0000
  H   H1717     1.0  0.74240  0.95972  0.62205  1.0000
  H   H1718     1.0  0.63742  0.75363  0.60788  1.0000
  C   C2145     1.0  0.58757  0.81277  0.49292  1.0000
  C   C2146     1.0  0.60145  0.80132  0.50033  1.0000
  S   S288      1.0  0.67183  0.74309  0.68155  1.0000
  H   H1719     1.0  0.61708  0.80857  0.50672  1.0000
  H   H1720     1.0  0.82418  0.98199  0.47833  1.0000
  C   C2147     1.0  0.66749  0.74206  0.71988  1.0000
  C   C2148     1.0  0.83271  0.98338  0.60768  1.0000
  C   C2149     1.0  0.83281  0.98052  0.49621  1.0000
  C   C2150     1.0  0.54071  0.75486  0.56713  1.0000
  C   C2151     1.0  0.57542  0.77115  0.49051  1.0000
  C   C2152     1.0  0.84726  0.97696  0.74320  1.0000
  H   H1721     1.0  0.96654  0.82913  0.73812  1.0000
  H   H1722     1.0  0.95515  0.80093  0.84018  1.0000
  H   H1723     1.0  0.52657  0.75060  0.55670  1.0000
  H   H1724     1.0  0.78020  0.98080  0.67381  1.0000
  C   C2153     1.0  0.48718  0.77817  0.53603  1.0000
  C   C2154     1.0  0.85504  0.97670  0.54235  1.0000
  C   C2155     1.0  0.96205  0.81564  0.84568  1.0000
  H   H1725     1.0  0.57143  0.74458  0.66498  1.0000
  C   C2156     1.0  0.66039  0.73868  0.78172  1.0000
  H   H1726     1.0  0.83129  0.74319  0.76820  1.0000
  H   H1727     1.0  0.72886  0.98487  0.85045  1.0000
  C   C2157     1.0  0.54819  0.73952  0.58116  1.0000
  C   C2158     1.0  0.69305  0.98126  0.85953  1.0000
  H   H1728     1.0  0.69014  0.97569  0.88361  1.0000
  C   C2159     1.0  0.56101  0.78236  0.48371  1.0000
  C   C2160     1.0  0.56756  0.80341  0.48431  1.0000
