data_image0
_chemical_formula_structural       FeSHFeS2FeS2FeS2FeS2FeSFeS3FeS2FeSCFeSFeS3FeSHFeS2FeSFeS3FeSHC4H2C4H4C6H4C7H4C6H4C6H4C6H4C3HC2HC6PC18H22CH3CH4CH2CHC7PC18H22CHC3H3CH4C3HC4H2C3H2CH3CPHCPCH3C2HCHCH2CHCHCH4CH3C3H2CH2C3H2CHCHC2H2CHCHC6H3C2HC13H2C2SCPHC2H3SC2H2C3HC3PCHCH3C3SHC4HCH2C2H2C2H2CHCHC2HCHSC2H2C2H2C2S2CFeSHFeS2FeS2FeSFeS3FeS2FeS2FeSFeS3FeS2FeS2FeSFeHS2FeS2C2FeSHSC6H4C6H5C7H4C6H4C6H5CH2C7H4FeH2CH2C2HCHC3HCH5CH4C3H3CH4CH2CPC6PC18H21C2H3CSC3H3CH3CHCHC7PCHC16HC3HC3PCH2CHCH4CHCHC2HC7PC18H21C2PH2C4H2C2H3C2HC3HC2HCHCH2C4HC4HCH2C3HPC2H2CHC2HC3HC2H2C4H4CHCH2CH3C2H2C2HC5H3CH2C2H3C3HCHCH3CHC2HCSCHC3H2C2FeS2C3FeS2FeS2FeS2FeSFeS3FeS2FeHSCH3S2HSFeS2FeSFeS3HS2C2HCH2CH2C2HCHC2HFeC5H2C12H4C6H4SC6H5C3H2CH2CSHCHC6PHCHCHCH2CH2CH5CHFeHCHC6PC2H2C2FeH3CHC3H3C2H2CH2C3H4C6PC18H20C3HCH2C3HC2HCHC4H2C4H2CH2CHCH2CH2PC4HC5H2CHC3HC7HC3H2CHCHCH5CHC3H2FeC3H2CH2CH4C3HPCHC3H2C3HCHCH2C2HCHC3H5CHCHCHCPHCHC2HC2HCHC5HCHCFeC2H4C2HCHCH3C4PCH2CHCPH2C2HC2HFeS2HFeS2FeS2FeS2FeSFeS3FeSFeCSFeCS3FeSFeSFeS2FeS2C3H7C4H2C6H4C6H6CPC6H5C4H3CHC4H5C6PC18H18CSH3CFeH2SC7PC18H21CHC9H4C5HC3HC2HC2HCPCH2C3HCHPC3HSCH2C2H2C2HC6HCH2C2HC7HC6HCPHC3H2C2H4C4HC2SCSHC2HC2H5CFeSCHCSC3HC2PC3H5C2HCH2CHCH4CH3CH3C2HCH2C2HCHC3HCHFeHC2HCHC2H2C2H2C3H2C3H2CHSHCHCHC2HC3H3C4H2CHCH2CSFeC4HCHCFeS4H3C6H6C3HC2HC2PC2HCHC3HC6H2CHC2PH3C3HPHC4H6C3H2CH2C4HC2HC5HCHCH7C2FeSH3C2HSCHCSC6H5CHCH3CH3FeC2HCHCH2C4HCHC2HCHC2HCPC2PHCHC2H2CSC6HCHFeC2H2CHC3H4CH2S2HS2FeS2FeS2FeSFeS3FeS2FeS2FeSFeS4C6H3C6H4C6H4C6H4CPC2SC7H4C6H3C3H4C3H5C2HCH4SHCHC6PC18H21CH2CHC2H4C6PCFeHCSH2C4HC6H2C2H3CH7CH4C2H5CHCH2SHC2H3C2PC14HC5H11CH2CSCHSCH2C2HCH3CHC6H2C3H3C7HC2H4C2H2C2H2CH2PHCH2CHC2HC2PCHC3H2CH2C3H2FeSC2H3C5H3C5H2CHCH2C7HSC2H3CHC3HC2HCH2C2HCHC4H7C3PC2HC4H3C4H2C2HC2H2C2H2CFeH2C4H2CH5CSC2S2CHSFeS2FeS2FeSFeS3FeS2FeS2FeSFeS4C6H3CHC7H7CHC6H4C6H5C5HSH3C6H4C6H2CHCH2FeC5HC3HC2HC4H5C6H2FeH2C2H2C2HPC19HCHPH8CHCH4C6PC9H14CHC4PC7HC2HC5H3CH2CH2C2H5C4H3SC2PC4H3C2H2C2H2C3HCPH5SH7C2HCHCH2C5H4C4H3CH4C7HCH2C2HC2HPC15HC2H2SC2FeCH7CHCH3CH3CH3C4FeC2HCH2CHC2H3CH2CHC2HCH2C2H2SH2C4HFeCSFeS2FeS2FeS2FeSHS2FeS2FeS2FeSFeS3FeS2FeS2FeSFeS3C6H4C6H4C6H4C7H2C3H3C3H3C7H2CHC4H2CH3C5HCHC2HC8H4CPH3C3HCH2CSC2PHC3H3PCH2C2HC2HC3HC4HCHCH5C5HC6H2C4H2C4HC2H2CH3PH5CH3C4H4C6H2PC3HC5HCHCH4CH2CHCHC2H2C3HCH4C2H2CHCHC4H2C5HC6HCHCHCHCH6C5PHCHC2HCH3CSCHC6PC18H20C5H4C3H2CH2CPC2H3CHCHC2H6C2HC2HCHC3H2C3HCH3CH2CHC3H3CFeC2HC2HCHC2H2CHCFeHCHC4FeS2FeS2HFeSHSFeC2FeHSFeS2FeS2FeS2FeSFeS3FeS2FeS2FeSFeS3HFeCH2C2HC6H4C3H2CH2CHC4H2CHC6H4C6H4C6H5C6HC2HC3H2CHC3H2C3H2CHC5H2C5HC2HC6PC18H20C2PC2HPC11HC2HCHC2HPHCH6C5HCSHCH3C2HCH2C2HCSC3HCHC3HCH3CH2C10H4CHCSCH2CPCP2CH5C2HC2HC3HC3PCHC4HC2HCH4CH3PCH3CH2C4HC6HCHC5H7C2H5C2HCHC2H2CHC2HSC2HC2HCHCHCH2C4H2CH2CH2CH5C3HCHCHC4H3C2H2C2H4SHCSHFeS2HCFeSFeHS2FeS2C2HCSH5C2H4C6H6CHCSHFe3CH4CHCHC6PC7H4C7H3C2HCSC2FeS2FeSFeHS2FeS2CHC2SH2CHC3H2C2H2C7H4C2HC4H3CHCHC3H4SC3HCHCHSC2PHC2H2PCH6CHCHC4PCH2C2H2FeHC5HCHCHC2HCHSHFeH3C3H2CHC3HC2H2CHC2HC3H3CH4CH2CHC2H2FeS2FeS2FeSFeS3FeS2FeS2FeS2FeSFeS3FeS2FeS2FeSFeS4C5H2CHC2HC2HC4H2C6H4C6H4C6H4C6H4C6H4CH4PHCH2CHCHCHCHCH4C3H2C2HCHC3HC4HC6PC12H16C6H2C2HC3HCHCH2C2HC2HFeC2HCHC3HCH4C3HC2H2C2PCPHC11HC3H2CH3C4H4C2H4CH2CHCHCHCHCHC4H2CHCH5PC16H9CHC2HCH4SC2HCH2C4H4CH2C2H2CHCSHC2HCH2CH2PC2FeCHCHCHCHCHC3HCH2C3H4C5HCH2C2H2C3H5CH2C3H2PCHC3H2CHC3HCHCHC8HC2H4C2HCH4CFeS2FeS2FeSFeS3HFeS2FeS2FeSFeS3FeS2FeS2FeSFeS3HFeS2C5H4C9H4C3H2C6H4C6H4C6H4CHC3H2C3HCH3CHCHCH4C2H2C4HCHCHCH3CHC10PC18H20C2PC4H3C3HC7H3CHCPC2H5CHSHC3PC14SC4H13C3H2C2HCH2CHC2HCHC3H9C5HCHC3HCH2CH2C5PHCHFeSC5H2C6HCH2C3H3CSH8CHC3H5CHCH4CHPC2FeCH2CHC4SCHCHC7HC3HSH4C2H3C2H2CHCHC4H3CH3C2HCHCHCHC2HC5H2CHSHFeS2FeS2FeS2FeSFeS3FeSCFeS2FeSFeCS2FeS2FeS2FeSFeCS3C5H2C4H2CHC2HC7HC2HC8H4C6H4C6H5CH5CH2C7HCHC2H6CH6CPC18H12CH3CPC6HC2H10C2H2C2PHC6HC3HC5H6C2H2CH5C2HC2PC3HCHC3PCH3C6HCH6CHC2H2CH3CH2CH4CSC5H2CH2C3H2CHC2H3C4HCHC5H4C4H2C6PC3H4PC3H3CHC2PH2CHC5SHC4HCHPCHC2HC2H2CHC2H2CH3C3H3C2HC7H2C2HC2FeH2CHC9H2CH3CH4SC2SH2CH2CHFeS2FeS2FeS2FeSFeS3FeS2FeSCFeSFeHS2FeS2FeS2FeSFeS3CH2C2HC7H4C2H2SH2C7H4C6H4CHCH2CHCHC6HC6PC18H17PCH2CH2C2H2C2HC3H3C3HPCH2C3HC12HC4H9CHCHC2HCPC6HC2H2C7HC2H3CH2CHCH4C2HCHC4HCH2C5HPCH3CHCH2C3HC4H2C2HCHCHCHC3HCH5CH3C5H5C2H3CHC6H3CHC2PC2H3C4H2C3HCSH4CHCH3CH2C2H2CHSCH2CH
_chemical_formula_sum              "Fe192 S384 H2304 C2880 P96"
_cell_length_a       54.8612
_cell_length_b       54.7574
_cell_length_c       95.8397
_cell_angle_alpha    91.9057
_cell_angle_beta     91.7891
_cell_angle_gamma    113.981

_space_group_name_H-M_alt    "P 1"
_space_group_IT_number       1

loop_
  _space_group_symop_operation_xyz
  'x, y, z'

loop_
  _atom_site_type_symbol
  _atom_site_label
  _atom_site_symmetry_multiplicity
  _atom_site_fract_x
  _atom_site_fract_y
  _atom_site_fract_z
  _atom_site_occupancy
  Fe  Fe1       1.0  0.20698  0.01187  0.02710  1.0000
  S   S1        1.0  0.16459  0.00742  0.02659  1.0000
  H   H1        1.0  0.39417  0.19090  0.12696  1.0000
  Fe  Fe2       1.0  0.21543  0.02308  0.05909  1.0000
  S   S2        1.0  0.17282  0.01873  0.06050  1.0000
  S   S3        1.0  0.23973  0.03592  0.08047  1.0000
  Fe  Fe3       1.0  0.17974  0.04322  0.04164  1.0000
  S   S4        1.0  0.16058  0.07283  0.04061  1.0000
  S   S5        1.0  0.22288  0.04996  0.04089  1.0000
  Fe  Fe4       1.0  0.23221  0.27737  0.02174  1.0000
  S   S6        1.0  0.19580  0.24047  0.02558  1.0000
  S   S7        1.0  0.24692  0.29144  1.00000  1.0000
  Fe  Fe5       1.0  0.25021  0.28830  0.05411  1.0000
  S   S8        1.0  0.21402  0.25229  0.05968  1.0000
  S   S9        1.0  0.28723  0.31416  0.06867  1.0000
  Fe  Fe6       1.0  0.22240  0.23115  0.04096  1.0000
  S   S10       1.0  0.23470  0.19641  0.04015  1.0000
  Fe  Fe7       1.0  0.19011  0.26483  0.04379  1.0000
  S   S11       1.0  0.15185  0.27237  0.04589  1.0000
  S   S12       1.0  0.25917  0.26661  0.03601  1.0000
  S   S13       1.0  0.22614  0.30252  0.03929  1.0000
  Fe  Fe8       1.0  0.37985  0.15068  0.15526  1.0000
  S   S14       1.0  0.34736  0.10922  0.15606  1.0000
  S   S15       1.0  0.36508  0.18361  0.15400  1.0000
  Fe  Fe9       1.0  0.42436  0.13030  0.15486  1.0000
  S   S16       1.0  0.39457  0.08739  0.15499  1.0000
  C   C1        1.0  0.43311  0.45587  0.21050  1.0000
  Fe  Fe10      1.0  0.36905  0.09818  0.13917  1.0000
  S   S17       1.0  0.35013  0.07533  0.11800  1.0000
  Fe  Fe11      1.0  0.37526  0.10245  0.17185  1.0000
  S   S18       1.0  0.36262  0.08020  0.19209  1.0000
  S   S19       1.0  0.40082  0.14023  0.13786  1.0000
  S   S20       1.0  0.40574  0.14472  0.17221  1.0000
  Fe  Fe12      1.0  0.43343  0.39689  0.15809  1.0000
  S   S21       1.0  0.39033  0.38656  0.16358  1.0000
  H   H2        1.0  0.16771  0.17314  0.01343  1.0000
  Fe  Fe13      1.0  0.42323  0.33762  0.15545  1.0000
  S   S22       1.0  0.38078  0.32469  0.16089  1.0000
  S   S23       1.0  0.44138  0.30714  0.15264  1.0000
  Fe  Fe14      1.0  0.37873  0.35455  0.14582  1.0000
  S   S24       1.0  0.33928  0.33644  0.13185  1.0000
  Fe  Fe15      1.0  0.39585  0.35714  0.17799  1.0000
  S   S25       1.0  0.38248  0.34103  0.19957  1.0000
  S   S26       1.0  0.42145  0.36665  0.13964  1.0000
  S   S27       1.0  0.43871  0.36859  0.17322  1.0000
  Fe  Fe16      1.0  0.99103  0.23468  0.05026  1.0000
  S   S28       1.0  0.02650  0.22464  0.05716  1.0000
  H   H3        1.0  0.47077  0.04838  0.21069  1.0000
  C   C2        1.0  0.42729  0.34030  0.10641  1.0000
  C   C3        1.0  0.38444  0.35378  0.21714  1.0000
  C   C4        1.0  0.39252  0.38103  0.22079  1.0000
  C   C5        1.0  0.11593  0.01075  0.98504  1.0000
  H   H4        1.0  0.12849  0.09955  0.98873  1.0000
  H   H5        1.0  0.39823  0.39539  0.21273  1.0000
  C   C6        1.0  0.26256  0.98932  0.06017  1.0000
  C   C7        1.0  0.36948  0.09344  0.20979  1.0000
  C   C8        1.0  0.38449  0.12066  0.21322  1.0000
  C   C9        1.0  0.38841  0.13036  0.22733  1.0000
  H   H6        1.0  0.08672  0.25961  0.01262  1.0000
  H   H7        1.0  0.39267  0.13432  0.20500  1.0000
  H   H8        1.0  0.34742  0.05503  0.21824  1.0000
  H   H9        1.0  0.17387  0.37097  0.02079  1.0000
  C   C10       1.0  0.42020  0.27281  0.15365  1.0000
  C   C11       1.0  0.43127  0.25380  0.15451  1.0000
  C   C12       1.0  0.41464  0.22631  0.15486  1.0000
  C   C13       1.0  0.38689  0.21778  0.15445  1.0000
  C   C14       1.0  0.37591  0.23678  0.15388  1.0000
  C   C15       1.0  0.39244  0.26407  0.15329  1.0000
  H   H10       1.0  0.45273  0.26038  0.15489  1.0000
  H   H11       1.0  0.42314  0.21170  0.15543  1.0000
  H   H12       1.0  0.35447  0.23035  0.15358  1.0000
  H   H13       1.0  0.38355  0.27819  0.15227  1.0000
  C   C16       1.0  0.34237  0.17059  0.19823  1.0000
  C   C17       1.0  0.11646  0.25765  0.04783  1.0000
  C   C18       1.0  0.10264  0.23120  0.05159  1.0000
  C   C19       1.0  0.07503  0.22126  0.05399  1.0000
  C   C20       1.0  0.06055  0.23724  0.05227  1.0000
  C   C21       1.0  0.07414  0.26331  0.04791  1.0000
  C   C22       1.0  0.10189  0.27347  0.04586  1.0000
  H   H14       1.0  0.11330  0.21859  0.05302  1.0000
  H   H15       1.0  0.06486  0.20112  0.05740  1.0000
  H   H16       1.0  0.06352  0.27603  0.04666  1.0000
  H   H17       1.0  0.11222  0.29391  0.04289  1.0000
  C   C23       1.0  0.30175  0.31828  0.08622  1.0000
  C   C24       1.0  0.28707  0.30552  0.09757  1.0000
  C   C25       1.0  0.29901  0.31100  0.11132  1.0000
  C   C26       1.0  0.32598  0.32888  0.11402  1.0000
  C   C27       1.0  0.34094  0.34074  0.10259  1.0000
  C   C28       1.0  0.32886  0.33566  0.08889  1.0000
  H   H18       1.0  0.26627  0.29211  0.09583  1.0000
  H   H19       1.0  0.28714  0.30161  0.11999  1.0000
  H   H20       1.0  0.36162  0.35454  0.10437  1.0000
  H   H21       1.0  0.34058  0.34568  0.08028  1.0000
  C   C29       1.0  0.18106  0.10719  0.04027  1.0000
  C   C30       1.0  0.16999  0.12598  0.04253  1.0000
  C   C31       1.0  0.18607  0.15358  0.04241  1.0000
  C   C32       1.0  0.21316  0.16232  0.03985  1.0000
  C   C33       1.0  0.22399  0.14352  0.03727  1.0000
  C   C34       1.0  0.20809  0.11604  0.03761  1.0000
  H   H22       1.0  0.14901  0.11914  0.04453  1.0000
  H   H23       1.0  0.17759  0.16800  0.04438  1.0000
  H   H24       1.0  0.24477  0.15028  0.03496  1.0000
  H   H25       1.0  0.21671  0.10172  0.03569  1.0000
  C   C35       1.0  0.27112  0.04871  0.09050  1.0000
  C   C36       1.0  0.29544  0.05263  0.08462  1.0000
  C   C37       1.0  0.31935  0.06142  0.09311  1.0000
  C   C38       1.0  0.31970  0.06723  0.10759  1.0000
  C   C39       1.0  0.29558  0.06433  0.11339  1.0000
  C   C40       1.0  0.27155  0.05496  0.10494  1.0000
  H   H26       1.0  0.29586  0.04844  0.07356  1.0000
  H   H27       1.0  0.33772  0.06345  0.08844  1.0000
  H   H28       1.0  0.29526  0.06831  0.12449  1.0000
  H   H29       1.0  0.25303  0.05219  0.10969  1.0000
  C   C41       1.0  0.05815  0.27679  0.01110  1.0000
  C   C42       1.0  0.12995  0.22466  0.01367  1.0000
  C   C43       1.0  0.37979  0.21801  0.11756  1.0000
  H   H30       1.0  0.17633  0.00292  0.99467  1.0000
  C   C44       1.0  0.21672  0.01073  0.98975  1.0000
  C   C45       1.0  0.30663  0.22103  0.13461  1.0000
  H   H31       1.0  0.29943  0.01374  0.12377  1.0000
  C   C46       1.0  0.27803  0.11544  0.12411  1.0000
  C   C47       1.0  0.30510  0.13269  0.12523  1.0000
  C   C48       1.0  0.31585  0.15179  0.11529  1.0000
  C   C49       1.0  0.29947  0.15395  0.10434  1.0000
  C   C50       1.0  0.27210  0.13715  0.10334  1.0000
  C   C51       1.0  0.26161  0.11739  0.11311  1.0000
  P   P1        1.0  0.25167  0.13982  0.08880  1.0000
  C   C52       1.0  0.25113  0.17256  0.08866  1.0000
  C   C53       1.0  0.26536  0.13146  0.07341  1.0000
  C   C54       1.0  0.27360  0.14874  0.06236  1.0000
  C   C55       1.0  0.28454  0.14168  0.05070  1.0000
  C   C56       1.0  0.28699  0.11724  0.04993  1.0000
  C   C57       1.0  0.27891  0.10004  0.06093  1.0000
  C   C58       1.0  0.26832  0.10721  0.07265  1.0000
  C   C59       1.0  0.23642  0.17817  0.07796  1.0000
  C   C60       1.0  0.23511  0.20309  0.07784  1.0000
  C   C61       1.0  0.24793  0.22246  0.08856  1.0000
  C   C62       1.0  0.26203  0.21681  0.09948  1.0000
  C   C63       1.0  0.26348  0.19187  0.09959  1.0000
  C   C64       1.0  0.21707  0.11713  0.08978  1.0000
  C   C65       1.0  0.20338  0.09894  0.07859  1.0000
  C   C66       1.0  0.17625  0.08244  0.07932  1.0000
  C   C67       1.0  0.16256  0.08399  0.09112  1.0000
  C   C68       1.0  0.17592  0.10230  0.10220  1.0000
  C   C69       1.0  0.20303  0.11898  0.10148  1.0000
  H   H32       1.0  0.26992  0.10006  0.13157  1.0000
  H   H33       1.0  0.31792  0.13095  0.13365  1.0000
  H   H34       1.0  0.33697  0.16466  0.11605  1.0000
  H   H35       1.0  0.30816  0.16861  0.09659  1.0000
  H   H36       1.0  0.24101  0.10305  0.11215  1.0000
  H   H37       1.0  0.27145  0.16751  0.06258  1.0000
  H   H38       1.0  0.29068  0.15498  0.04215  1.0000
  H   H39       1.0  0.29496  0.11152  0.04079  1.0000
  H   H40       1.0  0.28051  0.08095  0.06037  1.0000
  H   H41       1.0  0.26211  0.09368  0.08110  1.0000
  H   H42       1.0  0.22610  0.16330  0.06962  1.0000
  H   H43       1.0  0.22427  0.20737  0.06933  1.0000
  H   H44       1.0  0.24713  0.24191  0.08831  1.0000
  H   H45       1.0  0.27206  0.23190  0.10778  1.0000
  H   H46       1.0  0.27393  0.18770  0.10828  1.0000
  H   H47       1.0  0.21330  0.09753  0.06920  1.0000
  H   H48       1.0  0.16575  0.06855  0.07064  1.0000
  H   H49       1.0  0.14154  0.07107  0.09160  1.0000
  H   H50       1.0  0.16523  0.10361  0.11131  1.0000
  H   H51       1.0  0.21309  0.13335  0.11005  1.0000
  H   H52       1.0  0.41803  0.08116  0.19352  1.0000
  H   H53       1.0  0.29054  0.22899  0.05732  1.0000
  C   C70       1.0  0.46257  0.43540  0.20318  1.0000
  H   H54       1.0  0.44384  0.09168  0.17207  1.0000
  H   H55       1.0  0.29286  0.20112  0.13706  1.0000
  H   H56       1.0  0.36993  0.31429  0.22507  1.0000
  C   C71       1.0  0.08925  0.30809  0.99048  1.0000
  H   H57       1.0  0.32270  0.10408  0.20352  1.0000
  H   H58       1.0  0.24694  0.23744  0.00393  1.0000
  H   H59       1.0  0.29604  0.24062  0.15182  1.0000
  H   H60       1.0  0.21441  0.13541  0.99498  1.0000
  C   C72       1.0  0.43506  0.07600  0.19251  1.0000
  H   H61       1.0  0.32455  0.27608  0.09529  1.0000
  H   H62       1.0  0.12609  0.13674  0.00312  1.0000
  C   C73       1.0  0.17558  0.35380  0.01572  1.0000
  H   H63       1.0  0.26680  0.00222  0.06951  1.0000
  C   C74       1.0  0.21320  0.07602  0.99420  1.0000
  C   C75       1.0  0.24069  0.33265  0.08636  1.0000
  C   C76       1.0  0.23576  0.34150  0.07352  1.0000
  C   C77       1.0  0.20966  0.33223  0.06779  1.0000
  C   C78       1.0  0.18852  0.31404  0.07487  1.0000
  C   C79       1.0  0.19325  0.30527  0.08786  1.0000
  C   C80       1.0  0.21961  0.31425  0.09341  1.0000
  P   P2        1.0  0.16634  0.28022  0.09653  1.0000
  C   C81       1.0  0.13422  0.27987  0.09132  1.0000
  C   C82       1.0  0.16814  0.24878  0.09193  1.0000
  C   C83       1.0  0.18245  0.23851  0.10061  1.0000
  C   C84       1.0  0.18392  0.21424  0.09685  1.0000
  C   C85       1.0  0.17152  0.20032  0.08431  1.0000
  C   C86       1.0  0.15790  0.21082  0.07544  1.0000
  C   C87       1.0  0.15652  0.23513  0.07916  1.0000
  C   C88       1.0  0.11134  0.25567  0.08996  1.0000
  C   C89       1.0  0.08660  0.25555  0.08586  1.0000
  C   C90       1.0  0.08441  0.27953  0.08326  1.0000
  C   C91       1.0  0.10687  0.30377  0.08507  1.0000
  C   C92       1.0  0.13163  0.30400  0.08925  1.0000
  C   C93       1.0  0.16962  0.28712  0.11519  1.0000
  C   C94       1.0  0.18384  0.31330  0.12088  1.0000
  C   C95       1.0  0.18604  0.31846  0.13536  1.0000
  C   C96       1.0  0.17364  0.29766  0.14424  1.0000
  C   C97       1.0  0.15882  0.27170  0.13862  1.0000
  C   C98       1.0  0.15665  0.26645  0.12414  1.0000
  H   H64       1.0  0.26104  0.33958  0.09064  1.0000
  H   H65       1.0  0.25230  0.35500  0.06786  1.0000
  H   H66       1.0  0.20582  0.33852  0.05765  1.0000
  H   H67       1.0  0.16861  0.30651  0.07002  1.0000
  H   H68       1.0  0.22399  0.30691  0.10311  1.0000
  H   H69       1.0  0.19270  0.24934  0.11020  1.0000
  H   H70       1.0  0.19497  0.20637  0.10357  1.0000
  H   H71       1.0  0.17290  0.18166  0.08131  1.0000
  H   H72       1.0  0.14890  0.20048  0.06553  1.0000
  H   H73       1.0  0.14669  0.24351  0.07200  1.0000
  H   H74       1.0  0.11250  0.23683  0.09193  1.0000
  H   H75       1.0  0.06910  0.23679  0.08436  1.0000
  H   H76       1.0  0.06530  0.27921  0.07972  1.0000
  H   H77       1.0  0.10511  0.32236  0.08309  1.0000
  H   H78       1.0  0.14880  0.32297  0.09068  1.0000
  H   H79       1.0  0.19315  0.32979  0.11418  1.0000
  H   H80       1.0  0.19729  0.33865  0.13971  1.0000
  H   H81       1.0  0.17536  0.30173  0.15546  1.0000
  H   H82       1.0  0.14892  0.25565  0.14550  1.0000
  H   H83       1.0  0.14479  0.24631  0.11992  1.0000
  H   H84       1.0  0.30910  0.24914  0.18834  1.0000
  H   H85       1.0  0.41615  0.31626  0.21752  1.0000
  C   C99       1.0  0.17987  0.30922  0.00295  1.0000
  H   H86       1.0  0.38971  0.24422  0.22828  1.0000
  C   C100      1.0  0.20616  0.08766  0.98279  1.0000
  C   C101      1.0  0.19976  0.35096  0.01678  1.0000
  C   C102      1.0  0.32337  0.26007  0.08794  1.0000
  H   H87       1.0  0.39882  0.24639  0.08641  1.0000
  H   H88       1.0  0.40528  0.34650  0.08889  1.0000
  H   H89       1.0  0.43278  0.43974  0.18957  1.0000
  C   C103      1.0  0.41037  0.20054  0.21658  1.0000
  H   H90       1.0  0.19883  0.06582  0.00181  1.0000
  H   H91       1.0  0.34776  0.21254  0.08234  1.0000
  H   H92       1.0  0.45043  0.07355  0.11742  1.0000
  H   H93       1.0  0.12700  0.18618  0.00598  1.0000
  C   C104      1.0  0.31922  0.21869  0.06886  1.0000
  C   C105      1.0  0.30623  0.25425  0.07602  1.0000
  C   C106      1.0  0.26230  0.20694  0.00351  1.0000
  H   H94       1.0  0.15664  0.07331  0.00927  1.0000
  C   C107      1.0  0.40629  0.33237  0.09630  1.0000
  C   C108      1.0  0.33123  0.16844  0.18462  1.0000
  C   C109      1.0  0.35578  0.20629  0.22443  1.0000
  C   C110      1.0  0.46983  0.23361  0.12618  1.0000
  H   H95       1.0  0.12413  0.03279  0.01919  1.0000
  H   H96       1.0  0.03253  0.29730  0.00750  1.0000
  C   C111      1.0  0.41223  0.21842  0.09558  1.0000
  C   C112      1.0  0.09705  0.28953  0.99693  1.0000
  C   C113      1.0  0.26291  0.98461  0.03496  1.0000
  H   H97       1.0  0.29449  0.26576  0.07415  1.0000
  H   H98       1.0  0.27512  0.17506  0.00003  1.0000
  C   C114      1.0  0.35904  0.07612  0.22072  1.0000
  H   H99       1.0  0.46917  0.42554  0.19505  1.0000
  H   H100      1.0  0.97830  0.16120  0.03680  1.0000
  H   H101      1.0  0.47128  0.01081  0.14215  1.0000
  C   C115      1.0  0.43922  0.13532  0.10550  1.0000
  P   P3        1.0  0.12734  0.28655  0.99198  1.0000
  H   H102      1.0  0.24416  0.06762  0.00451  1.0000
  C   C116      1.0  0.32464  0.12206  0.19836  1.0000
  P   P4        1.0  0.17295  0.08674  0.98067  1.0000
  C   C117      1.0  0.14924  0.05665  0.98790  1.0000
  H   H103      1.0  0.40427  0.07034  0.11298  1.0000
  H   H104      1.0  0.43568  0.15238  0.10226  1.0000
  H   H105      1.0  0.31567  0.21113  0.19842  1.0000
  C   C118      1.0  0.32905  0.24996  0.18991  1.0000
  C   C119      1.0  0.44198  0.44342  0.20007  1.0000
  H   H106      1.0  0.31766  0.20275  0.06142  1.0000
  C   C120      1.0  0.33287  0.22851  0.19558  1.0000
  H   H107      1.0  0.34813  0.28976  0.18253  1.0000
  C   C121      1.0  0.20192  0.32873  0.01033  1.0000
  H   H108      1.0  0.19257  0.25730  0.98834  1.0000
  H   H109      1.0  0.13242  0.22101  0.02456  1.0000
  C   C122      1.0  0.39662  0.20488  0.20501  1.0000
  H   H110      1.0  0.45945  0.31637  0.21090  1.0000
  C   C123      1.0  0.41085  0.20265  0.10695  1.0000
  H   H111      1.0  0.31898  0.17030  0.22394  1.0000
  C   C124      1.0  0.35104  0.27285  0.18659  1.0000
  H   H112      1.0  0.44442  0.32843  0.12410  1.0000
  H   H113      1.0  0.44255  0.36059  0.10690  1.0000
  H   H114      1.0  0.42255  0.19081  0.10739  1.0000
  H   H115      1.0  0.26793  0.20969  0.01460  1.0000
  C   C125      1.0  0.35875  0.22969  0.19780  1.0000
  H   H116      1.0  0.33455  0.18609  0.17885  1.0000
  H   H117      1.0  0.04593  0.26460  0.01905  1.0000
  H   H118      1.0  0.30886  0.14181  0.16736  1.0000
  C   C126      1.0  0.31668  0.14326  0.17801  1.0000
  C   C127      1.0  0.06602  0.31079  0.99425  1.0000
  C   C128      1.0  0.40807  0.20820  0.19195  1.0000
  H   H119      1.0  0.43166  0.05966  0.21281  1.0000
  H   H120      1.0  0.34871  0.14836  0.21522  1.0000
  C   C129      1.0  0.26637  0.18749  0.99528  1.0000
  H   H121      1.0  0.22067  0.32650  0.01107  1.0000
  H   H122      1.0  0.25017  0.99057  0.12473  1.0000
  C   C130      1.0  0.38042  0.23333  0.10602  1.0000
  C   C131      1.0  0.43332  0.20808  0.19058  1.0000
  C   C132      1.0  0.31331  0.12007  0.18489  1.0000
  H   H123      1.0  0.42509  0.21887  0.08716  1.0000
  H   H124      1.0  0.32129  0.20731  0.11684  1.0000
  C   C133      1.0  0.12681  0.03307  0.00801  1.0000
  H   H125      1.0  0.26766  0.99362  0.02493  1.0000
  C   C134      1.0  0.30846  0.24320  0.14294  1.0000
  H   H126      1.0  0.39718  0.21035  0.18279  1.0000
  C   C135      1.0  0.38636  0.30632  0.09582  1.0000
  C   C136      1.0  0.42137  0.08890  0.11145  1.0000
  H   H127      1.0  0.47029  0.17306  0.13236  1.0000
  H   H128      1.0  0.13288  0.26440  0.01829  1.0000
  C   C137      1.0  0.33922  0.24575  0.09020  1.0000
  H   H129      1.0  0.30263  0.10055  0.17966  1.0000
  C   C138      1.0  0.14533  0.13665  0.00102  1.0000
  H   H130      1.0  0.40102  0.25497  0.19671  1.0000
  C   C139      1.0  0.13017  0.24927  0.01013  1.0000
  C   C140      1.0  0.44277  0.06382  0.20337  1.0000
  C   C141      1.0  0.16868  0.15710  0.00683  1.0000
  C   C142      1.0  0.08133  0.27395  0.00733  1.0000
  C   C143      1.0  0.15557  0.31200  0.00167  1.0000
  C   C144      1.0  0.34294  0.27234  0.12858  1.0000
  H   H131      1.0  0.35665  0.29246  0.12641  1.0000
  H   H132      1.0  0.32179  0.00788  0.10274  1.0000
  H   H133      1.0  0.46604  0.00720  0.19821  1.0000
  C   C145      1.0  0.25992  0.98779  0.11553  1.0000
  C   C146      1.0  0.44490  0.46046  0.22405  1.0000
  H   H134      1.0  0.37055  0.30078  0.08780  1.0000
  C   C147      1.0  0.12394  0.21022  0.98919  1.0000
  C   C148      1.0  0.42834  0.32222  0.11611  1.0000
  C   C149      1.0  0.40825  0.29633  0.11582  1.0000
  C   C150      1.0  0.12680  0.25443  0.99615  1.0000
  C   C151      1.0  0.37688  0.27434  0.18891  1.0000
  C   C152      1.0  0.33657  0.22458  0.08070  1.0000
  C   C153      1.0  0.38080  0.25297  0.19463  1.0000
  C   C154      1.0  0.47448  0.44002  0.21669  1.0000
  C   C155      1.0  0.44703  0.20398  0.20218  1.0000
  C   C156      1.0  0.19342  0.15653  0.00451  1.0000
  C   C157      1.0  0.44941  0.08169  0.18038  1.0000
  C   C158      1.0  0.12693  0.20514  0.00320  1.0000
  C   C159      1.0  0.23904  0.07714  0.99583  1.0000
  H   H135      1.0  0.13507  0.33708  0.00754  1.0000
  H   H136      1.0  0.36809  0.21804  0.12639  1.0000
  C   C160      1.0  0.25798  0.08968  0.98606  1.0000
  C   C161      1.0  0.34146  0.25015  0.12027  1.0000
  S   S29       1.0  0.46331  0.44131  0.16043  1.0000
  C   C162      1.0  0.39725  0.23389  0.09517  1.0000
  P   P5        1.0  0.36199  0.25423  0.10542  1.0000
  H   H137      1.0  0.41684  0.46170  0.20810  1.0000
  C   C163      1.0  0.19499  0.13559  0.99637  1.0000
  C   C164      1.0  0.11230  0.01032  0.99941  1.0000
  H   H138      1.0  0.39724  0.10971  0.10523  1.0000
  H   H139      1.0  0.97658  0.17886  0.06063  1.0000
  H   H140      1.0  0.32771  0.28611  0.14620  1.0000
  S   S30       1.0  0.22837  0.00965  0.00723  1.0000
  C   C165      1.0  0.14528  0.05608  0.00232  1.0000
  C   C166      1.0  0.30406  0.23353  0.06650  1.0000
  H   H141      1.0  0.21134  0.17201  0.00941  1.0000
  H   H142      1.0  0.39385  0.29235  0.18648  1.0000
  C   C167      1.0  0.39481  0.20263  0.11797  1.0000
  C   C168      1.0  0.43555  0.20020  0.21519  1.0000
  C   C169      1.0  0.32285  0.22455  0.12322  1.0000
  H   H143      1.0  0.40914  0.28279  0.12363  1.0000
  C   C170      1.0  0.33935  0.14721  0.20496  1.0000
  C   C171      1.0  0.25035  0.22251  0.99753  1.0000
  C   C172      1.0  0.32646  0.26882  0.13986  1.0000
  P   P6        1.0  0.36318  0.20286  0.20642  1.0000
  C   C173      1.0  0.38711  0.28813  0.10566  1.0000
  H   H144      1.0  0.27774  0.08979  0.98716  1.0000
  C   C174      1.0  0.41737  0.11114  0.10713  1.0000
  H   H145      1.0  0.99279  0.06089  0.03346  1.0000
  H   H146      1.0  0.44186  0.21036  0.18040  1.0000
  H   H147      1.0  0.21683  0.36590  0.02262  1.0000
  C   C175      1.0  0.46928  0.11492  0.11228  1.0000
  C   C176      1.0  0.05054  0.29521  0.00459  1.0000
  C   C177      1.0  0.45179  0.30924  0.22096  1.0000
  S   S31       1.0  0.99030  0.27400  0.04440  1.0000
  H   H148      1.0  0.18190  0.29201  0.99819  1.0000
  C   C178      1.0  0.14677  0.11562  0.99290  1.0000
  C   C179      1.0  0.28767  0.00074  0.11503  1.0000
  C   C180      1.0  0.15356  0.33446  0.00817  1.0000
  C   C181      1.0  0.17162  0.11491  0.99050  1.0000
  H   H149      1.0  0.10114  0.32054  0.98254  1.0000
  C   C182      1.0  0.19015  0.00621  0.98643  1.0000
  H   H150      1.0  0.12172  0.19519  0.98107  1.0000
  H   H151      1.0  0.27965  0.02236  0.04680  1.0000
  C   C183      1.0  0.24286  0.21897  0.98328  1.0000
  C   C184      1.0  0.12383  0.23477  0.98565  1.0000
  H   H152      1.0  0.46819  0.02413  0.16666  1.0000
  H   H153      1.0  0.05985  0.32485  0.98914  1.0000
  C   C185      1.0  0.23200  0.28347  0.98267  1.0000
  C   C186      1.0  0.26969  0.00081  0.04728  1.0000
  H   H154      1.0  0.44571  0.19617  0.22411  1.0000
  H   H155      1.0  0.40120  0.19641  0.22652  1.0000
  C   C187      1.0  0.47331  0.19098  0.12686  1.0000
  H   H156      1.0  0.46620  0.20303  0.20096  1.0000
  C   C188      1.0  0.30029  0.99743  0.10314  1.0000
  H   H157      1.0  0.09840  0.99236  0.00393  1.0000
  C   C189      1.0  0.42736  0.30924  0.22469  1.0000
  C   C190      1.0  0.44731  0.09074  0.11394  1.0000
  H   H158      1.0  0.47008  0.15122  0.05502  1.0000
  C   C191      1.0  0.37679  0.33543  0.22779  1.0000
  H   H159      1.0  0.45783  0.20732  0.14330  1.0000
  S   S32       1.0  0.97977  0.25751  0.00207  1.0000
  C   C192      1.0  0.46615  0.21038  0.13309  1.0000
  C   C193      1.0  0.47126  0.07497  0.17902  1.0000
  H   H160      1.0  0.46697  0.09918  0.14276  1.0000
  H   H161      1.0  0.46406  0.24858  0.13097  1.0000
  C   C194      1.0  0.25906  0.18402  0.98098  1.0000
  C   C195      1.0  0.46537  0.13747  0.10812  1.0000
  H   H162      1.0  0.25504  0.01893  0.98123  1.0000
  H   H163      1.0  0.46090  0.14371  0.07982  1.0000
  C   C196      1.0  0.46475  0.05721  0.20207  1.0000
  C   C197      1.0  0.46572  0.45259  0.22725  1.0000
  S   S33       1.0  0.47003  0.14767  0.15827  1.0000
  S   S34       1.0  0.20176  0.98476  0.04526  1.0000
  C   C198      1.0  0.20502  0.26665  0.97984  1.0000
  Fe  Fe17      1.0  0.99252  0.24883  0.40061  1.0000
  S   S35       1.0  0.03805  0.26718  0.39916  1.0000
  H   H164      1.0  0.47554  0.25329  0.28147  1.0000
  Fe  Fe18      1.0  0.21869  0.26738  0.42103  1.0000
  S   S36       1.0  0.18764  0.22535  0.42001  1.0000
  S   S37       1.0  0.22984  0.29066  0.44227  1.0000
  Fe  Fe19      1.0  0.22858  0.26642  0.38902  1.0000
  S   S38       1.0  0.19685  0.22408  0.38639  1.0000
  S   S39       1.0  0.24844  0.28366  0.36824  1.0000
  Fe  Fe20      1.0  0.17158  0.23694  0.40060  1.0000
  S   S40       1.0  0.12590  0.21852  0.39738  1.0000
  Fe  Fe21      1.0  0.21530  0.21649  0.40602  1.0000
  S   S41       1.0  0.22826  0.18281  0.40940  1.0000
  S   S42       1.0  0.20160  0.27990  0.40204  1.0000
  S   S43       1.0  0.24803  0.25791  0.40826  1.0000
  Fe  Fe22      1.0  0.40345  0.09548  0.30226  1.0000
  S   S44       1.0  0.36617  0.07362  0.28838  1.0000
  S   S45       1.0  0.43309  0.07722  0.30779  1.0000
  Fe  Fe23      1.0  0.38996  0.14372  0.30688  1.0000
  S   S46       1.0  0.35222  0.12581  0.29338  1.0000
  S   S47       1.0  0.40538  0.18452  0.31816  1.0000
  Fe  Fe24      1.0  0.34477  0.08791  0.30469  1.0000
  S   S48       1.0  0.30275  0.06291  0.31266  1.0000
  Fe  Fe25      1.0  0.37649  0.11317  0.27832  1.0000
  S   S49       1.0  0.38281  0.12725  0.25575  1.0000
  S   S50       1.0  0.38140  0.10689  0.31899  1.0000
  S   S51       1.0  0.41481  0.13383  0.29147  1.0000
  Fe  Fe26      1.0  0.37816  0.34270  0.31285  1.0000
  S   S52       1.0  0.41446  0.33275  0.31274  1.0000
  S   S53       1.0  0.35716  0.33194  0.33405  1.0000
  Fe  Fe27      1.0  0.38828  0.36145  0.28222  1.0000
  S   S54       1.0  0.42361  0.35127  0.28074  1.0000
  S   S55       1.0  0.38201  0.38212  0.26291  1.0000
  Fe  Fe28      1.0  0.39878  0.31411  0.29138  1.0000
  S   S56       1.0  0.39464  0.27429  0.28180  1.0000
  Fe  Fe29      1.0  0.43611  0.37152  0.30207  1.0000
  H   H165      1.0  0.39747  0.41052  0.23749  1.0000
  S   S57       1.0  0.36200  0.32250  0.29151  1.0000
  S   S58       1.0  0.40137  0.38319  0.30357  1.0000
  Fe  Fe30      1.0  0.16892  0.03148  0.39102  1.0000
  S   S59       1.0  0.20772  0.03648  0.40162  1.0000
  S   S60       1.0  0.15318  0.06366  0.38903  1.0000
  C   C199      1.0  0.12022  0.21063  0.47463  1.0000
  C   C200      1.0  0.46915  0.17671  0.32204  1.0000
  Fe  Fe31      1.0  0.21132  0.01197  0.38285  1.0000
  S   S61       1.0  0.25286  0.03037  0.37297  1.0000
  H   H166      1.0  0.26322  0.10419  0.46507  1.0000
  S   S62       1.0  0.17297  0.00846  0.37207  1.0000
  C   C201      1.0  0.28892  0.05567  0.32960  1.0000
  C   C202      1.0  0.26143  0.03956  0.33053  1.0000
  C   C203      1.0  0.24978  0.03249  0.34362  1.0000
  C   C204      1.0  0.26548  0.04133  0.35610  1.0000
  C   C205      1.0  0.29277  0.05827  0.35516  1.0000
  C   C206      1.0  0.30441  0.06525  0.34208  1.0000
  H   H167      1.0  0.24906  0.03210  0.32101  1.0000
  H   H168      1.0  0.22879  0.01957  0.34402  1.0000
  H   H169      1.0  0.30518  0.06558  0.36466  1.0000
  H   H170      1.0  0.32547  0.07768  0.34162  1.0000
  C   C207      1.0  0.39717  0.24986  0.29248  1.0000
  C   C208      1.0  0.38839  0.22361  0.28686  1.0000
  C   C209      1.0  0.38987  0.20338  0.29495  1.0000
  C   C210      1.0  0.40133  0.20948  0.30850  1.0000
  C   C211      1.0  0.41019  0.23577  0.31421  1.0000
  C   C212      1.0  0.40785  0.25594  0.30625  1.0000
  H   H171      1.0  0.38032  0.21881  0.27622  1.0000
  H   H172      1.0  0.38280  0.18318  0.29051  1.0000
  H   H173      1.0  0.41888  0.24056  0.32477  1.0000
  H   H174      1.0  0.41454  0.27614  0.31069  1.0000
  H   H175      1.0  0.04475  0.25131  0.29107  1.0000
  C   C213      1.0  0.36311  0.08585  0.23485  1.0000
  C   C214      1.0  0.20716  0.15003  0.40341  1.0000
  C   C215      1.0  0.21580  0.12954  0.40533  1.0000
  C   C216      1.0  0.19948  0.10304  0.40089  1.0000
  C   C217      1.0  0.17424  0.09680  0.39457  1.0000
  C   C218      1.0  0.16543  0.11729  0.39273  1.0000
  C   C219      1.0  0.18187  0.14389  0.39713  1.0000
  H   H176      1.0  0.23524  0.13421  0.41026  1.0000
  H   H177      1.0  0.20644  0.08751  0.40244  1.0000
  H   H178      1.0  0.14586  0.11257  0.38789  1.0000
  H   H179      1.0  0.17490  0.15956  0.39577  1.0000
  C   C220      1.0  0.27900  0.29623  0.35891  1.0000
  C   C221      1.0  0.27790  0.30153  0.34462  1.0000
  C   C222      1.0  0.30129  0.31207  0.33686  1.0000
  C   C223      1.0  0.32653  0.31790  0.34324  1.0000
  C   C224      1.0  0.32762  0.31223  0.35747  1.0000
  C   C225      1.0  0.30419  0.30144  0.36520  1.0000
  H   H180      1.0  0.25874  0.29769  0.33953  1.0000
  H   H181      1.0  0.29979  0.31617  0.32598  1.0000
  H   H182      1.0  0.34682  0.31637  0.36261  1.0000
  H   H183      1.0  0.30569  0.29758  0.37611  1.0000
  C   C226      1.0  0.06193  0.25290  0.40025  1.0000
  C   C227      1.0  0.08919  0.26995  0.40242  1.0000
  C   C228      1.0  0.10905  0.25974  0.40220  1.0000
  C   C229      1.0  0.10186  0.23234  0.39954  1.0000
  C   C230      1.0  0.07455  0.21522  0.39782  1.0000
  C   C231      1.0  0.05469  0.22536  0.39830  1.0000
  H   H184      1.0  0.09503  0.29128  0.40398  1.0000
  H   H185      1.0  0.12994  0.27317  0.40359  1.0000
  H   H186      1.0  0.06874  0.19399  0.39581  1.0000
  H   H187      1.0  0.03385  0.21194  0.39680  1.0000
  H   H188      1.0  0.30504  0.01913  0.36501  1.0000
  C   C232      1.0  0.38448  0.37109  0.24549  1.0000
  H   H189      1.0  0.01482  0.23991  0.47926  1.0000
  H   H190      1.0  0.37095  0.32954  0.24988  1.0000
  C   C233      1.0  0.13577  0.02806  0.44120  1.0000
  C   C234      1.0  0.37759  0.11315  0.23824  1.0000
  C   C235      1.0  0.45926  0.23965  0.27470  1.0000
  C   C236      1.0  0.07248  0.19421  0.46998  1.0000
  C   C237      1.0  0.20292  0.25036  0.46028  1.0000
  C   C238      1.0  0.22000  0.27722  0.45890  1.0000
  C   C239      1.0  0.22966  0.29401  0.47109  1.0000
  H   H191      1.0  0.40475  0.05181  0.37581  1.0000
  H   H192      1.0  0.19544  0.23714  0.45107  1.0000
  H   H193      1.0  0.24287  0.31481  0.47017  1.0000
  H   H194      1.0  0.21519  0.15364  0.46220  1.0000
  Fe  Fe32      1.0  0.18438  0.99747  0.41152  1.0000
  H   H195      1.0  0.42243  0.10168  0.26473  1.0000
  H   H196      1.0  0.44745  0.04732  0.37912  1.0000
  C   C240      1.0  0.44041  0.44623  0.26339  1.0000
  H   H197      1.0  0.01834  0.25847  0.45667  1.0000
  H   H198      1.0  0.99818  0.18365  0.43409  1.0000
  C   C241      1.0  0.03644  0.27555  0.32291  1.0000
  C   C242      1.0  0.00964  0.27613  0.35330  1.0000
  H   H199      1.0  0.37833  0.03242  0.30665  1.0000
  C   C243      1.0  0.30767  0.00160  0.36819  1.0000
  H   H200      1.0  0.43390  0.12887  0.24391  1.0000
  C   C244      1.0  0.05769  0.26301  0.35728  1.0000
  C   C245      1.0  0.11018  0.03740  0.41764  1.0000
  C   C246      1.0  0.24417  0.21878  0.45400  1.0000
  H   H201      1.0  0.03213  0.31861  0.41403  1.0000
  C   C247      1.0  0.38881  0.02025  0.35950  1.0000
  H   H202      1.0  0.40087  0.18920  0.25086  1.0000
  H   H203      1.0  0.05406  0.36644  0.42219  1.0000
  H   H204      1.0  0.43564  0.42533  0.26080  1.0000
  H   H205      1.0  0.40924  0.43659  0.27799  1.0000
  H   H206      1.0  0.15471  0.16160  0.46629  1.0000
  C   C248      1.0  0.45282  0.24777  0.26187  1.0000
  H   H207      1.0  0.05515  0.22247  0.35769  1.0000
  H   H208      1.0  0.16126  0.18292  0.44338  1.0000
  H   H209      1.0  0.01993  0.22625  0.37511  1.0000
  H   H210      1.0  0.42438  0.28544  0.25715  1.0000
  C   C249      1.0  0.37730  0.34402  0.24188  1.0000
  C   C250      1.0  0.00403  0.21339  0.36786  1.0000
  C   C251      1.0  0.25454  0.23035  0.46727  1.0000
  H   H211      1.0  0.10295  0.18337  0.44143  1.0000
  H   H212      1.0  0.23428  0.04952  0.43132  1.0000
  H   H213      1.0  0.15727  0.11822  0.46841  1.0000
  C   C252      1.0  0.42402  0.19553  0.27010  1.0000
  H   H214      1.0  0.10109  0.04099  0.40816  1.0000
  H   H215      1.0  0.34642  0.04527  0.38314  1.0000
  H   H216      1.0  0.33076  0.01481  0.29817  1.0000
  H   H217      1.0  0.22200  0.18222  0.44185  1.0000
  C   C253      1.0  0.18414  0.06711  0.47296  1.0000
  H   H218      1.0  0.46755  0.12920  0.29769  1.0000
  H   H219      1.0  0.06776  0.30561  0.35763  1.0000
  C   C254      1.0  0.39211  0.38956  0.23485  1.0000
  P   P7        1.0  0.16769  0.08197  0.44776  1.0000
  C   C255      1.0  0.18464  0.16491  0.36117  1.0000
  C   C256      1.0  0.17701  0.17247  0.34856  1.0000
  C   C257      1.0  0.18337  0.16360  0.33591  1.0000
  C   C258      1.0  0.19782  0.14761  0.33590  1.0000
  C   C259      1.0  0.20685  0.14119  0.34856  1.0000
  C   C260      1.0  0.19924  0.14910  0.36119  1.0000
  P   P8        1.0  0.22506  0.12010  0.34839  1.0000
  C   C261      1.0  0.25146  0.13044  0.33620  1.0000
  C   C262      1.0  0.24167  0.12139  0.36513  1.0000
  C   C263      1.0  0.25473  0.14590  0.37278  1.0000
  C   C264      1.0  0.26863  0.14715  0.38544  1.0000
  C   C265      1.0  0.26987  0.12399  0.39047  1.0000
  C   C266      1.0  0.25720  0.09958  0.38284  1.0000
  C   C267      1.0  0.24318  0.09824  0.37020  1.0000
  C   C268      1.0  0.25957  0.15530  0.33005  1.0000
  C   C269      1.0  0.28022  0.16320  0.32076  1.0000
  C   C270      1.0  0.29354  0.14678  0.31785  1.0000
  C   C271      1.0  0.28614  0.12239  0.32422  1.0000
  C   C272      1.0  0.26531  0.11428  0.33343  1.0000
  C   C273      1.0  0.20015  0.08664  0.34453  1.0000
  C   C274      1.0  0.20046  0.07165  0.33240  1.0000
  C   C275      1.0  0.18076  0.04571  0.32979  1.0000
  C   C276      1.0  0.16036  0.03486  0.33907  1.0000
  C   C277      1.0  0.15958  0.04997  0.35095  1.0000
  C   C278      1.0  0.17948  0.07566  0.35372  1.0000
  H   H220      1.0  0.17898  0.17107  0.37095  1.0000
  H   H221      1.0  0.16580  0.18484  0.34863  1.0000
  H   H222      1.0  0.17689  0.16893  0.32612  1.0000
  H   H223      1.0  0.20201  0.14030  0.32601  1.0000
  H   H224      1.0  0.20419  0.14285  0.37107  1.0000
  H   H225      1.0  0.25408  0.16409  0.36903  1.0000
  H   H226      1.0  0.27790  0.16601  0.39149  1.0000
  H   H227      1.0  0.28027  0.12486  0.40039  1.0000
  H   H228      1.0  0.25799  0.08154  0.38674  1.0000
  H   H229      1.0  0.23367  0.07908  0.36444  1.0000
  H   H230      1.0  0.25024  0.16880  0.33246  1.0000
  H   H231      1.0  0.30974  0.15296  0.31075  1.0000
  H   H232      1.0  0.29671  0.10985  0.32209  1.0000
  H   H233      1.0  0.26013  0.09544  0.33842  1.0000
  H   H234      1.0  0.21569  0.07975  0.32491  1.0000
  H   H235      1.0  0.18136  0.03399  0.32058  1.0000
  H   H236      1.0  0.14522  0.01469  0.33715  1.0000
  H   H237      1.0  0.14387  0.04161  0.35823  1.0000
  H   H238      1.0  0.17877  0.08693  0.36310  1.0000
  H   H239      1.0  0.45023  0.28724  0.28127  1.0000
  H   H240      1.0  0.10054  0.23577  0.36831  1.0000
  C   C279      1.0  0.07451  0.29013  0.36004  1.0000
  C   C280      1.0  0.09328  0.25092  0.36588  1.0000
  H   H241      1.0  0.25288  0.02583  0.46897  1.0000
  H   H242      1.0  0.08520  0.37994  0.44318  1.0000
  H   H243      1.0  0.11309  0.31841  0.36828  1.0000
  C   C281      1.0  0.46112  0.10043  0.26715  1.0000
  S   S63       1.0  0.14525  0.99451  0.40200  1.0000
  C   C282      1.0  0.04153  0.27506  0.30871  1.0000
  C   C283      1.0  0.23138  0.01694  0.46731  1.0000
  C   C284      1.0  0.45624  0.29094  0.24321  1.0000
  H   H244      1.0  0.14601  0.02384  0.45002  1.0000
  H   H245      1.0  0.19027  0.04387  0.43923  1.0000
  H   H246      1.0  0.45700  0.46503  0.32039  1.0000
  C   C285      1.0  0.10968  0.27791  0.36886  1.0000
  H   H247      1.0  0.26981  0.09488  0.42911  1.0000
  H   H248      1.0  0.98700  0.18326  0.38285  1.0000
  H   H249      1.0  0.00497  0.31520  0.38067  1.0000
  C   C286      1.0  0.23040  0.19104  0.45214  1.0000
  H   H250      1.0  0.41253  0.17548  0.27335  1.0000
  C   C287      1.0  0.41815  0.99846  0.35355  1.0000
  H   H251      1.0  0.46633  0.43977  0.29510  1.0000
  C   C288      1.0  0.97639  0.27996  0.47956  1.0000
  C   C289      1.0  0.03872  0.21243  0.43266  1.0000
  C   C290      1.0  0.01295  0.20330  0.43752  1.0000
  C   C291      1.0  0.00591  0.22001  0.44630  1.0000
  C   C292      1.0  0.02475  0.24566  0.45040  1.0000
  C   C293      1.0  0.05107  0.25464  0.44607  1.0000
  C   C294      1.0  0.05762  0.23805  0.43676  1.0000
  P   P9        1.0  0.07553  0.28794  0.45137  1.0000
  C   C295      1.0  0.06820  0.31263  0.44226  1.0000
  H   H252      1.0  0.09453  0.34585  0.45588  1.0000
  C   C296      1.0  0.21992  0.00989  0.45357  1.0000
  C   C297      1.0  0.11663  0.00656  0.43326  1.0000
  C   C298      1.0  0.41743  0.20340  0.25735  1.0000
  C   C299      1.0  0.25642  0.10871  0.47492  1.0000
  C   C300      1.0  0.17608  0.99312  0.46292  1.0000
  C   C301      1.0  0.05040  0.30517  0.43053  1.0000
  C   C302      1.0  0.04549  0.32456  0.42328  1.0000
  C   C303      1.0  0.05797  0.35149  0.42784  1.0000
  C   C304      1.0  0.07551  0.35906  0.43965  1.0000
  C   C305      1.0  0.08069  0.33971  0.44683  1.0000
  C   C306      1.0  0.10826  0.28984  0.44722  1.0000
  C   C307      1.0  0.11727  0.27110  0.45244  1.0000
  C   C308      1.0  0.14215  0.27187  0.44896  1.0000
  C   C309      1.0  0.15797  0.29093  0.44001  1.0000
  C   C310      1.0  0.14894  0.30925  0.43452  1.0000
  C   C311      1.0  0.12419  0.30874  0.43807  1.0000
  H   H253      1.0  0.04394  0.19995  0.42538  1.0000
  C   C312      1.0  0.33588  0.01598  0.30926  1.0000
  C   C313      1.0  0.36923  0.02842  0.32836  1.0000
  C   C314      1.0  0.36263  0.02601  0.31404  1.0000
  H   H254      1.0  0.07704  0.24492  0.43231  1.0000
  C   C315      1.0  0.39387  0.00088  0.35161  1.0000
  C   C316      1.0  0.10032  0.29750  0.36593  1.0000
  C   C317      1.0  0.15789  0.15135  0.45713  1.0000
  P   P10       1.0  0.47445  0.27957  0.25555  1.0000
  C   C318      1.0  0.43189  0.22942  0.25318  1.0000
  H   H255      1.0  0.04040  0.28442  0.42688  1.0000
  H   H256      1.0  0.23259  0.01296  0.44481  1.0000
  C   C319      1.0  0.44222  0.10793  0.26070  1.0000
  H   H257      1.0  0.05786  0.17517  0.44954  1.0000
  C   C320      1.0  0.07532  0.18538  0.45650  1.0000
  H   H258      1.0  0.10486  0.25569  0.45905  1.0000
  H   H259      1.0  0.14923  0.25758  0.45304  1.0000
  H   H260      1.0  0.17713  0.29133  0.43719  1.0000
  H   H261      1.0  0.11746  0.32278  0.43342  1.0000
  C   C321      1.0  0.46820  0.09346  0.30590  1.0000
  H   H262      1.0  0.03479  0.21065  0.30451  1.0000
  C   C322      1.0  0.12304  0.20203  0.46112  1.0000
  H   H263      1.0  0.46404  0.32398  0.29930  1.0000
  C   C323      1.0  0.37858  0.10470  0.35921  1.0000
  C   C324      1.0  0.10374  0.01123  0.42152  1.0000
  H   H264      1.0  0.14268  0.20527  0.45772  1.0000
  C   C325      1.0  0.21525  0.01183  0.47893  1.0000
  C   C326      1.0  0.29410  0.23723  0.37953  1.0000
  C   C327      1.0  0.26831  0.22918  0.37356  1.0000
  C   C328      1.0  0.26314  0.22134  0.35939  1.0000
  C   C329      1.0  0.28378  0.22146  0.35116  1.0000
  C   C330      1.0  0.30989  0.22988  0.35702  1.0000
  C   C331      1.0  0.31485  0.23753  0.37131  1.0000
  P   P11       1.0  0.33602  0.22779  0.34664  1.0000
  C   C332      1.0  0.33605  0.19489  0.34801  1.0000
  C   C333      1.0  0.33087  0.23503  0.32877  1.0000
  C   C334      1.0  0.32133  0.25475  0.32610  1.0000
  C   C335      1.0  0.31888  0.26191  0.31244  1.0000
  C   C336      1.0  0.32535  0.24901  0.30127  1.0000
  C   C337      1.0  0.33417  0.22888  0.30378  1.0000
  C   C338      1.0  0.33739  0.22219  0.31747  1.0000
  C   C339      1.0  0.35744  0.18960  0.34322  1.0000
  C   C340      1.0  0.35757  0.16425  0.34450  1.0000
  C   C341      1.0  0.33661  0.14414  0.35074  1.0000
  C   C342      1.0  0.31561  0.14941  0.35584  1.0000
  C   C343      1.0  0.31521  0.17458  0.35440  1.0000
  C   C344      1.0  0.36779  0.25304  0.35332  1.0000
  C   C345      1.0  0.37710  0.27922  0.34870  1.0000
  C   C346      1.0  0.40131  0.29889  0.35411  1.0000
  C   C347      1.0  0.41649  0.29266  0.36421  1.0000
  C   C348      1.0  0.40738  0.26670  0.36894  1.0000
  C   C349      1.0  0.38308  0.24697  0.36356  1.0000
  H   H265      1.0  0.29798  0.24359  0.39051  1.0000
  H   H266      1.0  0.25241  0.22952  0.37988  1.0000
  H   H267      1.0  0.24317  0.21566  0.35479  1.0000
  H   H268      1.0  0.27939  0.21526  0.34021  1.0000
  H   H269      1.0  0.33468  0.24386  0.37614  1.0000
  H   H270      1.0  0.31662  0.26532  0.33463  1.0000
  H   H271      1.0  0.31257  0.27796  0.31060  1.0000
  H   H272      1.0  0.32403  0.25497  0.29070  1.0000
  H   H273      1.0  0.33921  0.21897  0.29509  1.0000
  H   H274      1.0  0.34512  0.20718  0.31909  1.0000
  H   H275      1.0  0.37397  0.20500  0.33841  1.0000
  H   H276      1.0  0.37385  0.16013  0.34056  1.0000
  H   H277      1.0  0.30617  0.00514  0.34026  1.0000
  H   H278      1.0  0.29937  0.13375  0.36066  1.0000
  H   H279      1.0  0.29853  0.17802  0.35822  1.0000
  H   H280      1.0  0.36575  0.28481  0.34101  1.0000
  H   H281      1.0  0.40801  0.31907  0.35050  1.0000
  H   H282      1.0  0.43516  0.30804  0.36845  1.0000
  H   H283      1.0  0.41903  0.26193  0.37687  1.0000
  H   H284      1.0  0.37612  0.22710  0.36752  1.0000
  H   H285      1.0  0.33645  0.12439  0.35150  1.0000
  C   C350      1.0  0.32717  0.19092  0.24403  1.0000
  C   C351      1.0  0.34402  0.21345  0.25218  1.0000
  P   P12       1.0  0.35774  0.02384  0.35661  1.0000
  H   H286      1.0  0.30956  0.17624  0.24843  1.0000
  H   H287      1.0  0.33951  0.21634  0.26289  1.0000
  C   C352      1.0  0.14228  0.05455  0.43746  1.0000
  C   C353      1.0  0.22044  0.11196  0.44052  1.0000
  C   C354      1.0  0.24550  0.11506  0.43605  1.0000
  C   C355      1.0  0.44872  0.12329  0.24894  1.0000
  H   H288      1.0  0.42688  0.23513  0.24316  1.0000
  H   H289      1.0  0.37367  0.12898  0.37612  1.0000
  C   C356      1.0  0.13953  0.06601  0.47184  1.0000
  C   C357      1.0  0.12928  0.05898  0.42556  1.0000
  H   H290      1.0  0.21695  0.12969  0.44260  1.0000
  H   H291      1.0  0.26078  0.13495  0.43483  1.0000
  H   H292      1.0  0.29504  0.00155  0.31511  1.0000
  C   C358      1.0  0.03494  0.22867  0.30961  1.0000
  C   C359      1.0  0.43244  0.03432  0.37146  1.0000
  H   H293      1.0  0.13402  0.07881  0.42205  1.0000
  C   C360      1.0  0.00150  0.30557  0.37030  1.0000
  C   C361      1.0  0.44464  0.21374  0.27888  1.0000
  C   C362      1.0  0.42532  0.45257  0.27320  1.0000
  H   H294      1.0  0.02608  0.21139  0.32961  1.0000
  C   C363      1.0  0.31573  0.00830  0.31881  1.0000
  C   C364      1.0  0.02980  0.22910  0.32380  1.0000
  H   H295      1.0  0.46063  0.18932  0.31728  1.0000
  C   C365      1.0  0.37445  0.07885  0.35441  1.0000
  H   H296      1.0  0.16108  0.32367  0.42736  1.0000
  C   C366      1.0  0.34905  0.02039  0.33807  1.0000
  H   H297      1.0  0.08956  0.99454  0.41509  1.0000
  H   H298      1.0  0.44886  0.20785  0.28904  1.0000
  C   C367      1.0  0.06744  0.24347  0.36002  1.0000
  C   C368      1.0  0.46127  0.46661  0.25707  1.0000
  C   C369      1.0  0.16378  0.11322  0.44642  1.0000
  C   C370      1.0  0.01468  0.28937  0.36655  1.0000
  H   H299      1.0  0.37913  0.98779  0.34386  1.0000
  C   C371      1.0  0.19214  0.99775  0.45130  1.0000
  C   C372      1.0  0.15913  0.12644  0.45823  1.0000
  C   C373      1.0  0.02981  0.25234  0.33045  1.0000
  C   C374      1.0  0.43205  0.29166  0.24699  1.0000
  H   H300      1.0  0.11224  0.29485  0.47610  1.0000
  C   C375      1.0  0.36656  0.23252  0.24649  1.0000
  H   H301      1.0  0.37925  0.25011  0.25284  1.0000
  H   H302      1.0  0.24621  0.23139  0.44521  1.0000
  C   C376      1.0  0.10067  0.18976  0.45197  1.0000
  C   C377      1.0  0.04065  0.25160  0.30205  1.0000
  C   C378      1.0  0.46939  0.30396  0.28065  1.0000
  H   H303      1.0  0.04642  0.29298  0.30291  1.0000
  P   P13       1.0  0.02493  0.25342  0.34893  1.0000
  C   C379      1.0  0.98532  0.18914  0.37230  1.0000
  C   C380      1.0  0.35908  0.08745  0.38101  1.0000
  H   H304      1.0  0.02831  0.28672  0.37412  1.0000
  H   H305      1.0  0.17246  0.11666  0.42452  1.0000
  C   C381      1.0  0.23058  0.06702  0.43406  1.0000
  H   H306      1.0  0.28591  0.18212  0.31584  1.0000
  C   C382      1.0  0.45230  0.15401  0.32861  1.0000
  C   C383      1.0  0.09513  0.20837  0.47885  1.0000
  H   H307      1.0  0.43126  0.14963  0.32900  1.0000
  C   C384      1.0  0.46351  0.40269  0.24409  1.0000
  C   C385      1.0  0.16150  0.16337  0.44429  1.0000
  C   C386      1.0  0.40820  0.03684  0.36953  1.0000
  H   H308      1.0  0.03787  0.29408  0.32800  1.0000
  C   C387      1.0  0.19588  0.24046  0.47365  1.0000
  C   C388      1.0  0.00160  0.22142  0.35433  1.0000
  H   H309      1.0  0.44914  0.11856  0.33893  1.0000
  H   H310      1.0  0.47588  0.06065  0.31370  1.0000
  C   C389      1.0  0.16629  0.15055  0.43256  1.0000
  C   C390      1.0  0.16762  0.12573  0.43362  1.0000
  C   C391      1.0  0.20018  0.08629  0.44185  1.0000
  C   C392      1.0  0.25056  0.09257  0.43279  1.0000
  H   H311      1.0  0.16963  0.16023  0.42270  1.0000
  H   H312      1.0  0.38780  0.12138  0.35259  1.0000
  H   H313      1.0  0.35467  0.07227  0.24308  1.0000
  H   H314      1.0  0.12956  0.28353  0.37359  1.0000
  C   C393      1.0  0.20550  0.06386  0.43851  1.0000
  H   H315      1.0  0.20266  0.06993  0.46821  1.0000
  C   C394      1.0  0.98322  0.30869  0.36084  1.0000
  H   H316      1.0  0.38079  0.07596  0.34415  1.0000
  H   H317      1.0  0.44652  0.35981  0.24496  1.0000
  C   C395      1.0  0.36212  0.05700  0.36277  1.0000
  H   H318      1.0  0.45635  0.01345  0.36487  1.0000
  H   H319      1.0  0.18308  0.21956  0.47456  1.0000
  H   H320      1.0  0.12334  0.06839  0.46612  1.0000
  C   C396      1.0  0.37070  0.10898  0.37246  1.0000
  C   C397      1.0  0.41765  0.30068  0.23777  1.0000
  H   H321      1.0  0.35306  0.09075  0.39132  1.0000
  H   H322      1.0  0.39016  0.03698  0.33178  1.0000
  C   C398      1.0  0.43087  0.47930  0.27678  1.0000
  C   C399      1.0  0.16389  0.07147  0.46556  1.0000
  H   H323      1.0  0.44908  0.40196  0.23595  1.0000
  C   C400      1.0  0.99074  0.27885  0.34397  1.0000
  C   C401      1.0  0.32222  0.01055  0.33315  1.0000
  C   C402      1.0  0.35510  0.06159  0.37627  1.0000
  C   C403      1.0  0.46244  0.13678  0.33438  1.0000
  C   C404      1.0  0.22703  0.17490  0.46357  1.0000
  H   H324      1.0  0.98560  0.21342  0.44963  1.0000
  H   H325      1.0  0.47206  0.17609  0.29396  1.0000
  H   H326      1.0  0.98560  0.26796  0.33392  1.0000
  C   C405      1.0  0.09840  0.98571  0.47814  1.0000
  H   H327      1.0  0.05260  0.18991  0.47340  1.0000
  H   H328      1.0  0.25276  0.14364  0.46777  1.0000
  C   C406      1.0  0.07391  0.29489  0.46988  1.0000
  C   C407      1.0  0.18749  0.00022  0.47662  1.0000
  H   H329      1.0  0.97739  0.28238  0.45701  1.0000
  H   H330      1.0  0.39900  0.30117  0.24085  1.0000
  H   H331      1.0  0.03653  0.29952  0.46760  1.0000
  C   C408      1.0  0.33127  0.99844  0.36551  1.0000
  C   C409      1.0  0.97966  0.20531  0.34546  1.0000
  C   C410      1.0  0.09448  0.29663  0.47952  1.0000
  H   H332      1.0  0.46584  0.16705  0.26863  1.0000
  C   C411      1.0  0.46181  0.37853  0.24926  1.0000
  H   H333      1.0  0.26422  0.25197  0.46878  1.0000
  C   C412      1.0  0.47404  0.13106  0.24357  1.0000
  H   H334      1.0  0.11255  0.98623  0.43590  1.0000
  H   H335      1.0  0.45585  0.08813  0.27615  1.0000
  H   H336      1.0  0.43755  0.46989  0.23200  1.0000
  C   C413      1.0  0.37241  0.22904  0.23265  1.0000
  H   H337      1.0  0.05697  0.23445  0.47600  1.0000
  C   C414      1.0  0.05207  0.29933  0.47479  1.0000
  C   C415      1.0  0.24997  0.13088  0.47645  1.0000
  H   H338      1.0  0.10075  0.00322  0.47243  1.0000
  C   C416      1.0  0.23849  0.18617  0.47681  1.0000
  S   S64       1.0  0.17631  0.98639  0.43439  1.0000
  C   C417      1.0  0.97787  0.29537  0.34767  1.0000
  H   H339      1.0  0.97679  0.21167  0.33519  1.0000
  C   C418      1.0  0.25166  0.21418  0.47865  1.0000
  C   C419      1.0  0.43746  0.01521  0.36345  1.0000
  C   C420      1.0  0.47561  0.47912  0.32544  1.0000
  H   H340      1.0  0.26891  0.98474  0.37689  1.0000
  H   H341      1.0  0.39983  0.15140  0.22984  1.0000
  C   C421      1.0  0.33282  0.18747  0.23015  1.0000
  C   C422      1.0  0.46639  0.30044  0.23024  1.0000
  Fe  Fe33      1.0  0.20784  0.00989  0.51616  1.0000
  S   S65       1.0  0.16606  0.00666  0.51677  1.0000
  S   S66       1.0  0.23059  0.01990  0.49608  1.0000
  C   C423      1.0  0.03034  0.23359  0.51303  1.0000
  C   C424      1.0  0.14762  0.40035  0.71827  1.0000
  C   C425      1.0  0.02694  0.44901  0.59801  1.0000
  Fe  Fe34      1.0  0.18001  0.03149  0.53705  1.0000
  S   S67       1.0  0.16455  0.06474  0.53713  1.0000
  S   S68       1.0  0.22269  0.03594  0.53605  1.0000
  Fe  Fe35      1.0  0.20527  0.22456  0.55152  1.0000
  S   S69       1.0  0.23826  0.25470  0.53982  1.0000
  S   S70       1.0  0.21027  0.18755  0.55931  1.0000
  Fe  Fe36      1.0  0.17310  0.25928  0.55083  1.0000
  S   S71       1.0  0.20346  0.29067  0.53860  1.0000
  S   S72       1.0  0.13996  0.27121  0.55720  1.0000
  Fe  Fe37      1.0  0.20511  0.25621  0.52567  1.0000
  S   S73       1.0  0.19556  0.24332  0.50232  1.0000
  Fe  Fe38      1.0  0.23338  0.28653  0.55399  1.0000
  S   S74       1.0  0.26694  0.32362  0.56513  1.0000
  S   S75       1.0  0.17247  0.22506  0.53716  1.0000
  S   S76       1.0  0.20291  0.25625  0.56652  1.0000
  Fe  Fe39      1.0  0.29701  0.42354  0.63899  1.0000
  S   S77       1.0  0.30987  0.46576  0.63190  1.0000
  S   S78       1.0  0.27583  0.38426  0.62524  1.0000
  Fe  Fe40      1.0  0.30195  0.44355  0.67080  1.0000
  H   H342      1.0  0.44460  0.08678  0.63183  1.0000
  S   S79       1.0  0.28802  0.43476  0.69314  1.0000
  C   C426      1.0  0.33180  0.04001  0.61465  1.0000
  H   H343      1.0  0.05912  0.42252  0.60235  1.0000
  H   H344      1.0  0.16334  0.33029  0.56797  1.0000
  H   H345      1.0  0.14145  0.10281  0.50386  1.0000
  S   S80       1.0  0.26848  0.42808  0.65426  1.0000
  S   S81       1.0  0.32963  0.43519  0.65628  1.0000
  H   H346      1.0  0.99803  0.23967  0.50284  1.0000
  S   S82       1.0  0.03220  0.44570  0.65542  1.0000
  Fe  Fe41      1.0  0.09766  0.43499  0.65661  1.0000
  S   S83       1.0  0.05753  0.40133  0.65921  1.0000
  S   S84       1.0  0.13187  0.42197  0.65756  1.0000
  Fe  Fe42      1.0  0.04324  0.41807  0.64110  1.0000
  S   S85       1.0  0.01867  0.39531  0.62093  1.0000
  Fe  Fe43      1.0  0.05033  0.43136  0.67332  1.0000
  S   S86       1.0  0.03099  0.42315  0.69452  1.0000
  S   S87       1.0  0.08398  0.45062  0.63807  1.0000
  S   S88       1.0  0.09143  0.46365  0.67192  1.0000
  H   H347      1.0  0.97956  0.33795  0.57800  1.0000
  S   S89       1.0  0.99976  0.26565  0.54501  1.0000
  S   S90       1.0  0.01619  0.20045  0.54644  1.0000
  C   C427      1.0  0.04753  0.42597  0.71122  1.0000
  C   C428      1.0  0.03291  0.42274  0.72335  1.0000
  H   H348      1.0  0.17476  0.99627  0.48541  1.0000
  C   C429      1.0  0.07458  0.43092  0.71268  1.0000
  H   H349      1.0  0.01190  0.41855  0.72231  1.0000
  H   H350      1.0  0.08614  0.43365  0.70349  1.0000
  C   C430      1.0  0.00990  0.36497  0.61022  1.0000
  H   H351      1.0  0.11434  0.37474  0.57828  1.0000
  H   H352      1.0  0.30745  0.00543  0.66220  1.0000
  C   C431      1.0  0.99712  0.36272  0.59693  1.0000
  C   C432      1.0  0.35393  0.00743  0.63892  1.0000
  H   H353      1.0  0.04529  0.14085  0.52264  1.0000
  C   C433      1.0  0.30461  0.43796  0.70980  1.0000
  H   H354      1.0  0.98061  0.44796  0.62105  1.0000
  C   C434      1.0  0.32775  0.43331  0.71167  1.0000
  C   C435      1.0  0.19760  0.15559  0.49516  1.0000
  H   H355      1.0  0.33702  0.42908  0.70264  1.0000
  Fe  Fe44      1.0  0.34117  0.47802  0.64983  1.0000
  C   C436      1.0  0.21194  0.44851  0.65648  1.0000
  C   C437      1.0  0.18515  0.43431  0.65956  1.0000
  C   C438      1.0  0.16551  0.44273  0.65489  1.0000
  C   C439      1.0  0.17293  0.46598  0.64740  1.0000
  C   C440      1.0  0.15962  0.29140  0.49547  1.0000
  H   H356      1.0  0.22672  0.44175  0.66023  1.0000
  H   H357      1.0  0.17959  0.41643  0.66541  1.0000
  C   C441      1.0  0.06943  0.46807  0.54860  1.0000
  C   C442      1.0  0.99388  0.31713  0.59251  1.0000
  C   C443      1.0  0.14653  0.28525  0.51938  1.0000
  C   C444      1.0  0.15652  0.05414  0.49298  1.0000
  C   C445      1.0  0.20564  0.25721  0.48584  1.0000
  C   C446      1.0  0.40249  0.48073  0.70996  1.0000
  C   C447      1.0  0.10603  0.25106  0.55310  1.0000
  C   C448      1.0  0.08798  0.26320  0.55327  1.0000
  C   C449      1.0  0.06046  0.24785  0.55116  1.0000
  C   C450      1.0  0.05076  0.22015  0.54883  1.0000
  C   C451      1.0  0.06888  0.20796  0.54832  1.0000
  C   C452      1.0  0.09654  0.22341  0.55037  1.0000
  H   H358      1.0  0.09534  0.28458  0.55507  1.0000
  H   H359      1.0  0.04674  0.25739  0.55158  1.0000
  H   H360      1.0  0.06146  0.18652  0.54643  1.0000
  H   H361      1.0  0.11038  0.21390  0.55013  1.0000
  C   C453      1.0  0.26879  0.34026  0.58187  1.0000
  C   C454      1.0  0.29281  0.36178  0.58649  1.0000
  C   C455      1.0  0.29518  0.37588  0.59949  1.0000
  C   C456      1.0  0.27364  0.36838  0.60825  1.0000
  C   C457      1.0  0.24966  0.34665  0.60369  1.0000
  C   C458      1.0  0.24713  0.33293  0.59057  1.0000
  H   H362      1.0  0.30975  0.36774  0.57992  1.0000
  H   H363      1.0  0.31384  0.39230  0.60281  1.0000
  H   H364      1.0  0.23291  0.34039  0.61038  1.0000
  H   H365      1.0  0.22855  0.31643  0.58724  1.0000
  S   S91       1.0  0.16743  0.99471  0.55011  1.0000
  C   C459      1.0  0.17944  0.09955  0.54229  1.0000
  C   C460      1.0  0.20206  0.11072  0.55141  1.0000
  C   C461      1.0  0.21155  0.13782  0.55623  1.0000
  C   C462      1.0  0.19903  0.15433  0.55175  1.0000
  C   C463      1.0  0.17706  0.14346  0.54218  1.0000
  C   C464      1.0  0.16714  0.11617  0.53767  1.0000
  H   H366      1.0  0.21170  0.09826  0.55513  1.0000
  H   H367      1.0  0.22851  0.14595  0.56364  1.0000
  H   H368      1.0  0.16710  0.15578  0.53868  1.0000
  H   H369      1.0  0.14946  0.10772  0.53077  1.0000
  H   H370      1.0  0.15858  0.39855  0.63587  1.0000
  C   C465      1.0  0.16409  0.30010  0.50954  1.0000
  C   C466      1.0  0.17711  0.99308  0.60237  1.0000
  C   C467      1.0  0.05582  0.31271  0.63574  1.0000
  H   H371      1.0  0.02859  0.43773  0.58887  1.0000
  H   H372      1.0  0.19585  0.05458  0.49222  1.0000
  C   C468      1.0  0.01484  0.34311  0.61452  1.0000
  H   H373      1.0  0.04435  0.47790  0.71180  1.0000
  H   H374      1.0  0.99301  0.37927  0.59341  1.0000
  C   C469      1.0  0.06452  0.15580  0.52000  1.0000
  S   S92       1.0  0.98419  0.28652  0.58189  1.0000
  H   H375      1.0  0.18565  0.37578  0.64557  1.0000
  C   C470      1.0  0.21729  0.39580  0.61531  1.0000
  H   H376      1.0  0.04731  0.17543  0.50639  1.0000
  C   C471      1.0  0.22477  0.38814  0.72239  1.0000
  C   C472      1.0  0.02182  0.47608  0.62223  1.0000
  C   C473      1.0  0.28117  0.19490  0.50551  1.0000
  C   C474      1.0  0.29791  0.20936  0.51692  1.0000
  C   C475      1.0  0.28694  0.21270  0.52943  1.0000
  C   C476      1.0  0.25926  0.20149  0.53053  1.0000
  P   P14       1.0  0.23231  0.16510  0.49162  1.0000
  H   H377      1.0  0.28991  0.19235  0.49588  1.0000
  C   C477      1.0  0.00663  0.31938  0.60582  1.0000
  H   H378      1.0  0.19530  0.33811  0.58821  1.0000
  C   C478      1.0  0.44392  0.06920  0.61131  1.0000
  H   H379      1.0  0.26425  0.42896  0.59290  1.0000
  C   C479      1.0  0.17476  0.39752  0.63003  1.0000
  H   H380      1.0  0.26094  0.37455  0.55893  1.0000
  H   H381      1.0  0.23397  0.39503  0.60989  1.0000
  C   C480      1.0  0.06004  0.30425  0.62245  1.0000
  H   H382      1.0  0.10213  0.26747  0.59155  1.0000
  H   H383      1.0  0.22104  0.17863  0.52032  1.0000
  C   C481      1.0  0.12967  0.32366  0.58064  1.0000
  H   H384      1.0  0.31938  0.21798  0.51608  1.0000
  H   H385      1.0  0.29982  0.22393  0.53829  1.0000
  H   H386      1.0  0.25082  0.20398  0.54025  1.0000
  H   H387      1.0  0.13779  0.21958  0.48166  1.0000
  H   H388      1.0  0.15686  0.38000  0.59010  1.0000
  C   C482      1.0  0.22258  0.28410  0.48449  1.0000
  H   H389      1.0  0.17925  0.33373  0.61228  1.0000
  Fe  Fe45      1.0  0.28268  0.47031  0.64808  1.0000
  H   H390      1.0  0.11619  0.32034  0.57164  1.0000
  C   C483      1.0  0.18995  0.38459  0.63549  1.0000
  H   H391      1.0  0.12629  0.41240  0.62056  1.0000
  C   C484      1.0  0.98938  0.33918  0.58812  1.0000
  C   C485      1.0  0.11016  0.39125  0.70184  1.0000
  C   C486      1.0  0.12531  0.41402  0.69481  1.0000
  C   C487      1.0  0.15156  0.43013  0.69951  1.0000
  C   C488      1.0  0.16291  0.42349  0.71135  1.0000
  C   C489      1.0  0.42759  0.02672  0.69006  1.0000
  P   P15       1.0  0.19555  0.44573  0.71867  1.0000
  C   C490      1.0  0.40500  0.03054  0.69398  1.0000
  C   C491      1.0  0.39261  0.03210  0.61703  1.0000
  H   H392      1.0  0.03263  0.30599  0.49288  1.0000
  H   H393      1.0  0.20669  0.03280  0.60790  1.0000
  C   C492      1.0  0.04939  0.23328  0.48634  1.0000
  C   C493      1.0  0.21481  0.46656  0.70524  1.0000
  Fe  Fe46      1.0  0.07399  0.47679  0.65346  1.0000
  H   H394      1.0  0.39196  0.01528  0.59619  1.0000
  H   H395      1.0  0.23754  0.44296  0.70050  1.0000
  H   H396      1.0  0.25903  0.22377  0.48890  1.0000
  C   C494      1.0  0.15654  0.32953  0.57852  1.0000
  H   H397      1.0  0.98512  0.42397  0.59960  1.0000
  C   C495      1.0  0.33694  0.01797  0.61014  1.0000
  C   C496      1.0  0.20218  0.40896  0.60980  1.0000
  C   C497      1.0  0.18930  0.02084  0.60122  1.0000
  H   H398      1.0  0.08965  0.37918  0.69828  1.0000
  H   H399      1.0  0.11653  0.41939  0.68577  1.0000
  H   H400      1.0  0.16266  0.44769  0.69386  1.0000
  C   C498      1.0  0.06575  0.17563  0.51088  1.0000
  C   C499      1.0  0.08654  0.43160  0.72603  1.0000
  H   H401      1.0  0.06802  0.30675  0.50973  1.0000
  H   H402      1.0  0.28672  0.40829  0.57768  1.0000
  C   C500      1.0  0.15555  0.39676  0.58496  1.0000
  H   H403      1.0  0.02443  0.34424  0.62470  1.0000
  H   H404      1.0  0.20222  0.39893  0.70694  1.0000
  C   C501      1.0  0.23341  0.46003  0.69799  1.0000
  C   C502      1.0  0.04949  0.47043  0.60411  1.0000
  C   C503      1.0  0.99963  0.45460  0.61617  1.0000
  H   H405      1.0  0.30177  0.00382  0.57869  1.0000
  H   H406      1.0  0.00343  0.23083  0.58496  1.0000
  H   H407      1.0  0.23263  0.12450  0.51045  1.0000
  H   H408      1.0  0.16987  0.42082  0.61354  1.0000
  C   C504      1.0  0.23105  0.19577  0.63774  1.0000
  C   C505      1.0  0.20567  0.18140  0.64265  1.0000
  C   C506      1.0  0.18414  0.18706  0.63812  1.0000
  C   C507      1.0  0.18791  0.20693  0.62858  1.0000
  C   C508      1.0  0.21319  0.22091  0.62330  1.0000
  C   C509      1.0  0.23487  0.21563  0.62820  1.0000
  P   P16       1.0  0.21859  0.24737  0.61149  1.0000
  C   C510      1.0  0.18798  0.24152  0.60164  1.0000
  C   C511      1.0  0.22995  0.27774  0.62248  1.0000
  C   C512      1.0  0.21142  0.28389  0.63001  1.0000
  C   C513      1.0  0.21992  0.30713  0.63871  1.0000
  C   C514      1.0  0.24703  0.32412  0.64017  1.0000
  C   C515      1.0  0.26567  0.31773  0.63307  1.0000
  C   C516      1.0  0.25726  0.29445  0.62440  1.0000
  C   C517      1.0  0.18037  0.26264  0.59909  1.0000
  C   C518      1.0  0.15698  0.25787  0.59109  1.0000
  C   C519      1.0  0.14135  0.23220  0.58536  1.0000
  C   C520      1.0  0.14911  0.21125  0.58757  1.0000
  C   C521      1.0  0.17240  0.21589  0.59562  1.0000
  C   C522      1.0  0.24168  0.24681  0.59856  1.0000
  C   C523      1.0  0.24210  0.22238  0.59392  1.0000
  C   C524      1.0  0.25912  0.22169  0.58350  1.0000
  C   C525      1.0  0.27547  0.24526  0.57744  1.0000
  C   C526      1.0  0.27488  0.26956  0.58184  1.0000
  C   C527      1.0  0.25782  0.27030  0.59223  1.0000
  H   H409      1.0  0.24781  0.19162  0.64138  1.0000
  H   H410      1.0  0.20273  0.16602  0.65005  1.0000
  H   H411      1.0  0.16453  0.17613  0.64205  1.0000
  H   H412      1.0  0.17111  0.21136  0.62537  1.0000
  H   H413      1.0  0.25472  0.22689  0.62463  1.0000
  H   H414      1.0  0.19037  0.27075  0.62912  1.0000
  H   H415      1.0  0.20556  0.31210  0.64430  1.0000
  H   H416      1.0  0.25367  0.34248  0.64666  1.0000
  H   H417      1.0  0.28664  0.33123  0.63408  1.0000
  H   H418      1.0  0.27215  0.28972  0.61922  1.0000
  H   H419      1.0  0.19287  0.28293  0.60281  1.0000
  H   H420      1.0  0.15150  0.27426  0.58878  1.0000
  H   H421      1.0  0.12379  0.22882  0.57874  1.0000
  H   H422      1.0  0.13749  0.19158  0.58269  1.0000
  H   H423      1.0  0.17858  0.19961  0.59686  1.0000
  H   H424      1.0  0.22877  0.20370  0.59801  1.0000
  H   H425      1.0  0.25874  0.20268  0.57968  1.0000
  H   H426      1.0  0.28806  0.24461  0.56908  1.0000
  H   H427      1.0  0.28715  0.28780  0.57694  1.0000
  H   H428      1.0  0.25695  0.28916  0.59508  1.0000
  C   C528      1.0  0.07093  0.32778  0.58480  1.0000
  C   C529      1.0  0.12044  0.25219  0.50116  1.0000
  C   C530      1.0  0.22533  0.40832  0.58223  1.0000
  H   H429      1.0  0.44335  0.04232  0.68492  1.0000
  C   C531      1.0  0.17447  0.33355  0.58991  1.0000
  H   H430      1.0  0.36684  0.01298  0.70338  1.0000
  H   H431      1.0  0.07667  0.22024  0.58368  1.0000
  C   C532      1.0  0.04763  0.35139  0.56599  1.0000
  C   C533      1.0  0.12919  0.41526  0.57184  1.0000
  C   C534      1.0  0.31525  0.04831  0.60648  1.0000
  H   H432      1.0  0.15786  0.47259  0.64375  1.0000
  C   C535      1.0  0.24241  0.18715  0.51912  1.0000
  C   C536      1.0  0.08059  0.25966  0.59054  1.0000
  H   H433      1.0  0.14992  0.29206  0.53029  1.0000
  C   C537      1.0  0.23906  0.12021  0.50042  1.0000
  H   H434      1.0  0.39379  0.43218  0.68475  1.0000
  C   C538      1.0  0.05388  0.36142  0.57983  1.0000
  C   C539      1.0  0.11407  0.19512  0.51365  1.0000
  C   C540      1.0  0.11275  0.17498  0.52261  1.0000
  C   C541      1.0  0.06288  0.22839  0.49791  1.0000
  H   H435      1.0  0.06629  0.46510  0.53733  1.0000
  H   H436      1.0  0.46382  0.08341  0.60913  1.0000
  C   C542      1.0  0.31026  0.01396  0.58873  1.0000
  C   C543      1.0  0.05350  0.22931  0.51130  1.0000
  C   C544      1.0  0.04998  0.30352  0.48910  1.0000
  C   C545      1.0  0.01624  0.23688  0.50144  1.0000
  H   H437      1.0  0.09298  0.00248  0.49789  1.0000
  H   H438      1.0  0.23104  0.00679  0.59032  1.0000
  C   C546      1.0  0.12134  0.38436  0.71355  1.0000
  H   H439      1.0  0.11203  0.24976  0.52313  1.0000
  H   H440      1.0  0.11031  0.41281  0.56681  1.0000
  C   C547      1.0  0.18112  0.41002  0.61737  1.0000
  H   H441      1.0  0.33974  0.99816  0.67838  1.0000
  C   C548      1.0  0.08036  0.43066  0.60482  1.0000
  H   H442      1.0  0.13343  0.21026  0.51133  1.0000
  H   H443      1.0  0.13092  0.17452  0.52710  1.0000
  C   C549      1.0  0.23202  0.47394  0.60797  1.0000
  H   H444      1.0  0.27501  0.44707  0.72039  1.0000
  H   H445      1.0  0.31540  0.00971  0.63715  1.0000
  P   P17       1.0  0.09214  0.22128  0.49604  1.0000
  C   C550      1.0  0.00215  0.44119  0.60402  1.0000
  C   C551      1.0  0.42902  0.04909  0.60128  1.0000
  C   C552      1.0  0.06624  0.23281  0.58609  1.0000
  C   C553      1.0  0.09302  0.35540  0.63365  1.0000
  H   H446      1.0  0.10721  0.43457  0.72690  1.0000
  C   C554      1.0  0.17944  0.03311  0.59130  1.0000
  C   C555      1.0  0.32589  0.00562  0.65836  1.0000
  C   C556      1.0  0.15720  0.01766  0.58260  1.0000
  C   C557      1.0  0.16540  0.33109  0.60346  1.0000
  C   C558      1.0  0.36724  0.00039  0.66238  1.0000
  H   H447      1.0  0.18914  0.05455  0.59025  1.0000
  H   H448      1.0  0.11739  0.05399  0.49044  1.0000
  C   C559      1.0  0.08856  0.46137  0.55547  1.0000
  H   H449      1.0  0.01003  0.30253  0.60948  1.0000
  C   C560      1.0  0.03916  0.26550  0.59114  1.0000
  C   C561      1.0  0.25273  0.41482  0.58449  1.0000
  C   C562      1.0  0.12420  0.46724  0.60582  1.0000
  H   H450      1.0  0.15611  0.45878  0.61501  1.0000
  C   C563      1.0  0.24680  0.47540  0.68704  1.0000
  C   C564      1.0  0.13841  0.32469  0.60562  1.0000
  C   C565      1.0  0.24060  0.13646  0.48913  1.0000
  C   C566      1.0  0.40746  0.05266  0.62696  1.0000
  C   C567      1.0  0.43311  0.07105  0.62411  1.0000
  C   C568      1.0  0.24682  0.47275  0.58449  1.0000
  C   C569      1.0  0.18037  0.05839  0.48660  1.0000
  H   H451      1.0  0.15391  0.04798  0.50367  1.0000
  C   C570      1.0  0.38935  0.46883  0.68140  1.0000
  C   C571      1.0  0.25104  0.38417  0.56531  1.0000
  C   C572      1.0  0.09113  0.41439  0.61113  1.0000
  H   H452      1.0  0.31081  0.06490  0.61016  1.0000
  H   H453      1.0  0.34048  0.05071  0.62452  1.0000
  C   C573      1.0  0.34414  0.00159  0.66749  1.0000
  H   H454      1.0  0.43733  0.04775  0.59132  1.0000
  C   C574      1.0  0.21182  0.40364  0.71732  1.0000
  H   H455      1.0  0.22332  0.37418  0.63253  1.0000
  C   C575      1.0  0.15142  0.43971  0.57171  1.0000
  H   H456      1.0  0.11312  0.36080  0.61441  1.0000
  H   H457      1.0  0.04732  0.32125  0.55089  1.0000
  H   H458      1.0  0.39928  0.05462  0.63685  1.0000
  H   H459      1.0  0.40553  0.44272  0.71013  1.0000
  H   H460      1.0  0.02743  0.20187  0.58014  1.0000
  C   C576      1.0  0.13601  0.05770  0.48555  1.0000
  H   H461      1.0  0.06379  0.22630  0.52045  1.0000
  C   C577      1.0  0.23111  0.45945  0.59547  1.0000
  C   C578      1.0  0.06520  0.34951  0.58922  1.0000
  C   C579      1.0  0.09654  0.45762  0.60282  1.0000
  H   H462      1.0  0.10555  0.37528  0.63802  1.0000
  H   H463      1.0  0.04874  0.37758  0.58349  1.0000
  Fe  Fe47      1.0  0.20952  0.99753  0.54787  1.0000
  C   C580      1.0  0.24564  0.09816  0.49887  1.0000
  C   C581      1.0  0.12036  0.32137  0.59422  1.0000
  C   C582      1.0  0.38458  0.01029  0.70047  1.0000
  H   H464      1.0  0.23025  0.29725  0.49374  1.0000
  H   H465      1.0  0.14977  0.02716  0.57477  1.0000
  C   C583      1.0  0.25409  0.09227  0.48609  1.0000
  H   H466      1.0  0.17341  0.30274  0.48783  1.0000
  H   H467      1.0  0.18811  0.11378  0.49862  1.0000
  C   C584      1.0  0.08801  0.15549  0.52588  1.0000
  H   H468      1.0  0.08706  0.14022  0.53302  1.0000
  H   H469      1.0  0.38968  0.00142  0.64431  1.0000
  H   H470      1.0  0.24627  0.46205  0.57469  1.0000
  H   H471      1.0  0.13170  0.32199  0.61619  1.0000
  C   C585      1.0  0.29283  0.44334  0.72168  1.0000
  C   C586      1.0  0.09249  0.46504  0.57002  1.0000
  C   C587      1.0  0.03846  0.22238  0.58410  1.0000
  H   H472      1.0  0.38458  0.46445  0.67029  1.0000
  P   P18       1.0  0.08518  0.31181  0.59689  1.0000
  C   C588      1.0  0.15409  0.12290  0.50109  1.0000
  H   H473      1.0  0.24394  0.08538  0.50753  1.0000
  C   C589      1.0  0.13135  0.39379  0.57840  1.0000
  C   C590      1.0  0.02493  0.23870  0.58672  1.0000
  C   C591      1.0  0.30434  0.03516  0.59357  1.0000
  H   H474      1.0  0.14988  0.45636  0.56655  1.0000
  H   H475      1.0  0.24505  0.00038  0.61442  1.0000
  C   C592      1.0  0.13502  0.45079  0.61197  1.0000
  C   C593      1.0  0.18081  0.12933  0.49825  1.0000
  C   C594      1.0  0.06709  0.27627  0.59304  1.0000
  H   H476      1.0  0.02839  0.27803  0.59271  1.0000
  C   C595      1.0  0.11836  0.42456  0.61491  1.0000
  H   H477      1.0  0.03771  0.35980  0.55888  1.0000
  C   C596      1.0  0.22370  0.37720  0.56313  1.0000
  H   H478      1.0  0.21249  0.36223  0.55500  1.0000
  H   H479      1.0  0.04679  0.28451  0.61832  1.0000
  C   C597      1.0  0.17804  0.42114  0.58478  1.0000
  C   C598      1.0  0.08069  0.32144  0.61458  1.0000
  H   H480      1.0  0.06752  0.30037  0.56731  1.0000
  C   C599      1.0  0.21121  0.38378  0.62815  1.0000
  H   H481      1.0  0.03947  0.29958  0.64164  1.0000
  C   C600      1.0  0.06996  0.30401  0.49862  1.0000
  C   C601      1.0  0.25331  0.18394  0.50648  1.0000
  C   C602      1.0  0.06456  0.31787  0.57085  1.0000
  H   H482      1.0  0.22547  0.37193  0.71587  1.0000
  H   H483      1.0  0.40318  0.04906  0.69186  1.0000
  H   H484      1.0  0.25881  0.07491  0.48488  1.0000
  H   H485      1.0  0.06841  0.35673  0.59999  1.0000
  H   H486      1.0  0.10026  0.45325  0.54951  1.0000
  C   C603      1.0  0.42993  0.00279  0.69278  1.0000
  H   H487      1.0  0.18131  0.31820  0.51284  1.0000
  C   C604      1.0  0.40338  0.03069  0.60408  1.0000
  H   H488      1.0  0.06870  0.34501  0.65153  1.0000
  C   C605      1.0  0.09727  0.34707  0.62034  1.0000
  H   H489      1.0  0.19273  0.46174  0.57783  1.0000
  C   C606      1.0  0.05300  0.32964  0.56149  1.0000
  P   P19       1.0  0.20928  0.42436  0.59315  1.0000
  H   H490      1.0  0.18981  0.38392  0.56944  1.0000
  C   C607      1.0  0.21089  0.38940  0.57147  1.0000
  H   H491      1.0  0.07792  0.39451  0.61394  1.0000
  C   C608      1.0  0.07223  0.33829  0.64132  1.0000
  C   C609      1.0  0.26555  0.40309  0.57592  1.0000
  H   H492      1.0  0.22037  0.46425  0.61667  1.0000
  C   C610      1.0  0.19992  0.48031  0.64437  1.0000
  C   C611      1.0  0.12498  0.26126  0.51526  1.0000
  H   H493      1.0  0.02307  0.23402  0.52337  1.0000
  C   C612      1.0  0.17579  0.44266  0.57812  1.0000
  H   H494      1.0  0.10811  0.30190  0.50122  1.0000
  C   C613      1.0  0.09239  0.30100  0.49382  1.0000
  C   C614      1.0  0.39473  0.45076  0.68954  1.0000
  C   C615      1.0  0.18718  0.17510  0.49485  1.0000
  C   C616      1.0  0.21950  0.47140  0.64876  1.0000
  C   C617      1.0  0.14387  0.14246  0.50069  1.0000
  H   H495      1.0  0.12322  0.13747  0.50298  1.0000
  C   C618      1.0  0.09054  0.19570  0.50782  1.0000
  H   H496      1.0  0.35542  0.42815  0.72663  1.0000
  C   C619      1.0  0.40136  0.45674  0.70382  1.0000
  Fe  Fe48      1.0  0.98799  0.22151  0.54606  1.0000
  C   C620      1.0  0.02576  0.23683  0.48811  1.0000
  C   C621      1.0  0.13766  0.26781  0.49126  1.0000
  H   H497      1.0  0.15287  0.18399  0.49737  1.0000
  H   H498      1.0  0.03076  0.47331  0.68678  1.0000
  H   H499      1.0  0.29120  0.04127  0.58729  1.0000
  H   H500      1.0  0.19988  0.19555  0.49268  1.0000
  C   C622      1.0  0.16045  0.16856  0.49755  1.0000
  C   C623      1.0  0.33060  0.00824  0.64410  1.0000
  H   H501      1.0  0.38074  0.99600  0.66931  1.0000
  C   C624      1.0  0.33808  0.43268  0.72530  1.0000
  H   H502      1.0  0.98977  0.30074  0.48157  1.0000
  C   C625      1.0  0.24601  0.98756  0.60582  1.0000
  H   H503      1.0  0.99940  0.45812  0.72574  1.0000
  H   H504      1.0  0.44762  0.00035  0.68966  1.0000
  H   H505      1.0  0.26055  0.46976  0.68123  1.0000
  C   C626      1.0  0.32673  0.00557  0.59689  1.0000
  C   C627      1.0  0.37215  0.00333  0.64817  1.0000
  C   C628      1.0  0.14497  0.98991  0.58370  1.0000
  C   C629      1.0  0.23786  0.99118  0.59214  1.0000
  P   P20       1.0  0.35947  0.00830  0.62043  1.0000
  C   C630      1.0  0.21202  0.42558  0.72543  1.0000
  H   H506      1.0  0.10944  0.36686  0.71909  1.0000
  H   H507      1.0  0.10733  0.45975  0.57519  1.0000
  C   C631      1.0  0.38682  0.98636  0.70317  1.0000
  H   H508      1.0  0.15581  0.39497  0.72748  1.0000
  C   C632      1.0  0.07721  0.47534  0.57778  1.0000
  P   P21       1.0  0.08174  0.47955  0.59657  1.0000
  H   H509      1.0  0.03945  0.48371  0.55093  1.0000
  H   H510      1.0  0.33136  0.98941  0.59277  1.0000
  C   C633      1.0  0.09401  0.98531  0.49244  1.0000
  C   C634      1.0  0.05431  0.47855  0.55626  1.0000
  H   H511      1.0  0.18533  0.98413  0.61005  1.0000
  C   C635      1.0  0.05820  0.48224  0.57080  1.0000
  C   C636      1.0  0.04663  0.48398  0.61626  1.0000
  H   H512      1.0  0.13444  0.26200  0.48028  1.0000
  Fe  Fe49      1.0  0.19155  0.04611  0.89759  1.0000
  S   S93       1.0  0.22646  0.04206  0.90872  1.0000
  S   S94       1.0  0.18116  0.08290  0.89841  1.0000
  H   H513      1.0  0.12092  0.42612  0.86072  1.0000
  Fe  Fe50      1.0  0.19566  0.00967  0.92062  1.0000
  S   S95       1.0  0.18822  0.01596  0.87999  1.0000
  S   S96       1.0  0.16102  0.01426  0.90965  1.0000
  Fe  Fe51      1.0  0.22481  0.23989  0.89307  1.0000
  S   S97       1.0  0.24639  0.28046  0.90442  1.0000
  S   S98       1.0  0.24275  0.20890  0.89073  1.0000
  Fe  Fe52      1.0  0.17511  0.24994  0.88723  1.0000
  S   S99       1.0  0.19236  0.29043  0.89829  1.0000
  S   S100      1.0  0.13341  0.23169  0.87706  1.0000
  Fe  Fe53      1.0  0.22974  0.29699  0.88668  1.0000
  S   S101      1.0  0.25156  0.33834  0.87686  1.0000
  Fe  Fe54      1.0  0.20751  0.27107  0.91500  1.0000
  S   S102      1.0  0.19423  0.26970  0.93761  1.0000
  S   S103      1.0  0.21121  0.25708  0.87475  1.0000
  S   S104      1.0  0.18736  0.23004  0.90441  1.0000
  Fe  Fe55      1.0  0.32167  0.44538  0.77398  1.0000
  S   S105      1.0  0.33801  0.43434  0.75419  1.0000
  Fe  Fe56      1.0  0.30049  0.42946  0.80391  1.0000
  C   C637      1.0  0.00223  0.33714  0.83466  1.0000
  S   S106      1.0  0.28315  0.39127  0.81696  1.0000
  Fe  Fe57      1.0  0.27756  0.46000  0.78498  1.0000
  C   C638      1.0  0.20792  0.38674  0.82066  1.0000
  S   S107      1.0  0.28152  0.42109  0.78201  1.0000
  S   S108      1.0  0.34197  0.45107  0.79550  1.0000
  S   S109      1.0  0.04068  0.43294  0.78723  1.0000
  Fe  Fe58      1.0  0.11182  0.45920  0.80397  1.0000
  S   S110      1.0  0.09042  0.41722  0.79503  1.0000
  Fe  Fe59      1.0  0.07820  0.43608  0.77696  1.0000
  S   S111      1.0  0.08756  0.42710  0.75463  1.0000
  Fe  Fe60      1.0  0.05479  0.41714  0.80618  1.0000
  S   S112      1.0  0.02742  0.37846  0.81695  1.0000
  S   S113      1.0  0.07711  0.45870  0.81609  1.0000
  Fe  Fe61      1.0  0.01199  0.25063  0.90758  1.0000
  S   S114      1.0  0.00927  0.29011  0.91122  1.0000
  S   S115      1.0  0.04933  0.24708  0.91616  1.0000
  C   C639      1.0  0.02277  0.36288  0.83355  1.0000
  C   C640      1.0  0.03897  0.37512  0.84555  1.0000
  C   C641      1.0  0.03476  0.36191  0.85832  1.0000
  H   H514      1.0  0.01469  0.28096  0.85609  1.0000
  H   H515      1.0  0.05488  0.39474  0.84493  1.0000
  H   H516      1.0  0.04750  0.37173  0.86745  1.0000
  H   H517      1.0  0.13426  0.99196  0.83637  1.0000
  H   H518      1.0  0.12629  0.38064  0.79308  1.0000
  H   H519      1.0  0.19440  0.38208  0.77106  1.0000
  H   H520      1.0  0.15548  0.34637  0.82640  1.0000
  C   C642      1.0  0.20982  0.27402  0.95470  1.0000
  C   C643      1.0  0.23696  0.29001  0.95747  1.0000
  C   C644      1.0  0.24788  0.29484  0.97135  1.0000
  C   C645      1.0  0.19396  0.26235  0.96599  1.0000
  H   H521      1.0  0.24937  0.29936  0.94896  1.0000
  H   H522      1.0  0.17291  0.25007  0.96402  1.0000
  C   C646      1.0  0.10916  0.23350  0.88815  1.0000
  C   C647      1.0  0.11576  0.24149  0.90225  1.0000
  C   C648      1.0  0.09676  0.24446  0.91081  1.0000
  C   C649      1.0  0.07140  0.24045  0.90524  1.0000
  C   C650      1.0  0.06448  0.23166  0.89122  1.0000
  C   C651      1.0  0.08321  0.22767  0.88277  1.0000
  H   H523      1.0  0.13559  0.24564  0.90656  1.0000
  H   H524      1.0  0.10202  0.25065  0.92170  1.0000
  H   H525      1.0  0.04477  0.22800  0.88692  1.0000
  H   H526      1.0  0.07776  0.22060  0.87200  1.0000
  C   C652      1.0  0.25993  0.35240  0.86001  1.0000
  C   C653      1.0  0.25597  0.33673  0.84758  1.0000
  C   C654      1.0  0.26335  0.34896  0.83463  1.0000
  C   C655      1.0  0.27481  0.37705  0.83379  1.0000
  C   C656      1.0  0.27890  0.39270  0.84623  1.0000
  C   C657      1.0  0.27152  0.38049  0.85915  1.0000
  H   H527      1.0  0.24733  0.31516  0.84794  1.0000
  H   H528      1.0  0.26014  0.33648  0.82518  1.0000
  H   H529      1.0  0.28762  0.41427  0.84592  1.0000
  H   H530      1.0  0.27508  0.39300  0.86861  1.0000
  H   H531      1.0  0.03343  0.42147  0.74595  1.0000
  H   H532      1.0  0.29406  0.44734  0.74427  1.0000
  C   C658      1.0  0.19886  0.00954  0.96142  1.0000
  P   P22       1.0  0.04610  0.45501  0.86162  1.0000
  C   C659      1.0  0.19965  0.11808  0.89718  1.0000
  C   C660      1.0  0.18728  0.13543  0.90058  1.0000
  C   C661      1.0  0.20029  0.16322  0.89889  1.0000
  C   C662      1.0  0.22603  0.17416  0.89386  1.0000
  C   C663      1.0  0.23878  0.15695  0.89094  1.0000
  C   C664      1.0  0.22570  0.12909  0.89257  1.0000
  H   H533      1.0  0.16733  0.12737  0.90436  1.0000
  H   H534      1.0  0.19019  0.17607  0.90123  1.0000
  H   H535      1.0  0.25873  0.16516  0.88712  1.0000
  H   H536      1.0  0.23558  0.11612  0.88997  1.0000
  H   H537      1.0  0.20024  0.14822  0.94004  1.0000
  C   C665      1.0  0.24877  0.12718  0.93237  1.0000
  C   C666      1.0  0.15066  0.18731  0.95478  1.0000
  C   C667      1.0  0.15962  0.17469  0.96490  1.0000
  C   C668      1.0  0.18594  0.17692  0.96508  1.0000
  H   H538      1.0  0.29027  0.14745  0.93899  1.0000
  H   H539      1.0  0.25150  0.11157  0.92621  1.0000
  H   H540      1.0  0.13052  0.18624  0.95480  1.0000
  C   C669      1.0  0.04507  0.42429  0.73677  1.0000
  H   H541      1.0  0.14639  0.16359  0.97277  1.0000
  C   C670      1.0  0.32732  0.33911  0.84299  1.0000
  C   C671      1.0  0.32110  0.34745  0.85582  1.0000
  C   C672      1.0  0.33116  0.37468  0.85972  1.0000
  C   C673      1.0  0.34318  0.35804  0.83394  1.0000
  H   H542      1.0  0.31968  0.31795  0.84005  1.0000
  H   H543      1.0  0.30834  0.33285  0.86274  1.0000
  H   H544      1.0  0.32628  0.38104  0.86969  1.0000
  H   H545      1.0  0.34811  0.35121  0.82413  1.0000
  H   H546      1.0  0.32282  0.37339  0.81118  1.0000
  C   C674      1.0  0.07834  0.05063  0.86225  1.0000
  C   C675      1.0  0.09103  0.03819  0.87047  1.0000
  C   C676      1.0  0.11133  0.05342  0.88029  1.0000
  C   C677      1.0  0.11892  0.08103  0.88191  1.0000
  C   C678      1.0  0.10657  0.09382  0.87360  1.0000
  C   C679      1.0  0.08610  0.07835  0.86376  1.0000
  P   P23       1.0  0.11751  0.12982  0.87550  1.0000
  C   C680      1.0  0.09553  0.14062  0.86546  1.0000
  C   C681      1.0  0.11731  0.14022  0.89361  1.0000
  C   C682      1.0  0.10375  0.12145  0.90341  1.0000
  C   C683      1.0  0.10145  0.12994  0.91705  1.0000
  C   C684      1.0  0.11210  0.15721  0.92092  1.0000
  C   C685      1.0  0.12533  0.17600  0.91122  1.0000
  C   C686      1.0  0.12811  0.16758  0.89767  1.0000
  C   C687      1.0  0.07731  0.14872  0.87207  1.0000
  C   C688      1.0  0.06143  0.15831  0.86423  1.0000
  C   C689      1.0  0.08126  0.15140  0.84308  1.0000
  C   C690      1.0  0.09730  0.14195  0.85090  1.0000
  C   C691      1.0  0.15061  0.14673  0.86902  1.0000
  C   C692      1.0  0.15954  0.17356  0.86540  1.0000
  C   C693      1.0  0.18510  0.18690  0.86048  1.0000
  C   C694      1.0  0.20208  0.17375  0.85922  1.0000
  C   C695      1.0  0.19325  0.14698  0.86252  1.0000
  C   C696      1.0  0.16762  0.13345  0.86732  1.0000
  C   C697      1.0  0.98388  0.43826  0.74441  1.0000
  H   H547      1.0  0.12152  0.04395  0.88658  1.0000
  H   H548      1.0  0.13475  0.09248  0.88954  1.0000
  H   H549      1.0  0.07605  0.08750  0.85725  1.0000
  H   H550      1.0  0.09424  0.10030  0.90053  1.0000
  H   H551      1.0  0.09080  0.11537  0.92450  1.0000
  H   H552      1.0  0.10963  0.16387  0.93132  1.0000
  H   H553      1.0  0.13298  0.19721  0.91409  1.0000
  H   H554      1.0  0.13785  0.18259  0.89026  1.0000
  H   H555      1.0  0.07551  0.14811  0.88327  1.0000
  H   H556      1.0  0.11134  0.13596  0.84562  1.0000
  H   H557      1.0  0.14687  0.18434  0.86642  1.0000
  H   H558      1.0  0.19196  0.20762  0.85788  1.0000
  H   H559      1.0  0.22229  0.18447  0.85599  1.0000
  H   H560      1.0  0.20660  0.13690  0.86180  1.0000
  H   H561      1.0  0.16176  0.11291  0.86997  1.0000
  H   H562      1.0  0.29875  0.29176  0.95205  1.0000
  H   H563      1.0  0.11080  0.39635  0.77209  1.0000
  H   H564      1.0  0.08524  0.01677  0.86922  1.0000
  C   C698      1.0  0.22108  0.40577  0.83149  1.0000
  S   S116      1.0  0.15328  0.47320  0.81416  1.0000
  H   H565      1.0  0.08689  0.28185  0.87485  1.0000
  H   H566      1.0  0.11560  0.31053  0.83521  1.0000
  H   H567      1.0  0.98071  0.22331  0.85535  1.0000
  C   C699      1.0  0.30351  0.44335  0.73526  1.0000
  Fe  Fe62      1.0  0.22104  0.00935  0.89174  1.0000
  H   H568      1.0  0.22446  0.44210  0.84238  1.0000
  H   H569      1.0  0.15003  0.44223  0.73551  1.0000
  S   S117      1.0  0.25372  0.00093  0.88017  1.0000
  C   C700      1.0  0.25823  0.22534  0.94701  1.0000
  C   C701      1.0  0.15583  0.28465  0.85126  1.0000
  C   C702      1.0  0.17699  0.29467  0.84236  1.0000
  C   C703      1.0  0.19020  0.32223  0.84104  1.0000
  C   C704      1.0  0.18266  0.33983  0.84884  1.0000
  C   C705      1.0  0.16150  0.32997  0.85785  1.0000
  C   C706      1.0  0.14791  0.30218  0.85888  1.0000
  P   P24       1.0  0.15145  0.35314  0.86735  1.0000
  C   C707      1.0  0.13261  0.33794  0.88222  1.0000
  C   C708      1.0  0.18100  0.38039  0.87482  1.0000
  C   C709      1.0  0.18076  0.40554  0.87789  1.0000
  C   C710      1.0  0.20359  0.42648  0.88390  1.0000
  C   C711      1.0  0.22657  0.42227  0.88715  1.0000
  C   C712      1.0  0.22667  0.39707  0.88449  1.0000
  C   C713      1.0  0.20398  0.37617  0.87842  1.0000
  C   C714      1.0  0.10985  0.34206  0.88581  1.0000
  C   C715      1.0  0.09510  0.32923  0.89709  1.0000
  C   C716      1.0  0.10352  0.31306  0.90517  1.0000
  C   C717      1.0  0.12693  0.31008  0.90210  1.0000
  C   C718      1.0  0.14146  0.32253  0.89074  1.0000
  C   C719      1.0  0.13268  0.36391  0.85498  1.0000
  C   C720      1.0  0.10530  0.34846  0.85219  1.0000
  C   C721      1.0  0.09065  0.35683  0.84278  1.0000
  C   C722      1.0  0.10323  0.38030  0.83576  1.0000
  C   C723      1.0  0.13061  0.39536  0.83809  1.0000
  C   C724      1.0  0.14540  0.38712  0.84757  1.0000
  H   H570      1.0  0.14587  0.26327  0.85246  1.0000
  H   H571      1.0  0.18341  0.28109  0.83665  1.0000
  H   H572      1.0  0.20664  0.33001  0.83417  1.0000
  H   H573      1.0  0.19346  0.36115  0.84790  1.0000
  H   H574      1.0  0.13160  0.29390  0.86574  1.0000
  H   H575      1.0  0.16291  0.40892  0.87575  1.0000
  H   H576      1.0  0.20340  0.44591  0.88620  1.0000
  H   H577      1.0  0.24421  0.43841  0.89190  1.0000
  H   H578      1.0  0.24425  0.39350  0.88725  1.0000
  H   H579      1.0  0.20449  0.35671  0.87670  1.0000
  H   H580      1.0  0.10331  0.35508  0.88000  1.0000
  H   H581      1.0  0.07708  0.33175  0.89960  1.0000
  H   H582      1.0  0.09195  0.30288  0.91383  1.0000
  H   H583      1.0  0.13377  0.29792  0.90844  1.0000
  H   H584      1.0  0.15952  0.31990  0.88853  1.0000
  H   H585      1.0  0.09516  0.32998  0.85733  1.0000
  H   H586      1.0  0.06941  0.34534  0.84109  1.0000
  H   H587      1.0  0.09171  0.38690  0.82856  1.0000
  H   H588      1.0  0.14017  0.41362  0.83262  1.0000
  H   H589      1.0  0.16666  0.39886  0.84911  1.0000
  H   H590      1.0  0.09126  0.25493  0.85448  1.0000
  C   C725      1.0  0.24157  0.16814  0.94775  1.0000
  H   H591      1.0  0.27206  0.25308  0.96519  1.0000
  C   C726      1.0  0.20359  0.19207  0.95523  1.0000
  C   C727      1.0  0.14331  0.39752  0.75991  1.0000
  C   C728      1.0  0.28807  0.27247  0.94658  1.0000
  C   C729      1.0  0.15361  0.10414  0.95725  1.0000
  C   C730      1.0  0.14773  0.10419  0.94293  1.0000
  C   C731      1.0  0.15313  0.08722  0.93350  1.0000
  C   C732      1.0  0.16473  0.07044  0.93835  1.0000
  C   C733      1.0  0.17088  0.07052  0.95262  1.0000
  C   C734      1.0  0.37121  0.44189  0.82844  1.0000
  H   H592      1.0  0.14927  0.11740  0.96433  1.0000
  H   H593      1.0  0.13926  0.11759  0.93909  1.0000
  H   H594      1.0  0.14889  0.08738  0.92237  1.0000
  H   H595      1.0  0.16946  0.05767  0.93102  1.0000
  C   C735      1.0  0.27055  0.14736  0.93959  1.0000
  C   C736      1.0  0.22353  0.12757  0.93270  1.0000
  C   C737      1.0  0.21983  0.14791  0.94035  1.0000
  C   C738      1.0  0.26704  0.16794  0.94711  1.0000
  C   C739      1.0  0.16791  0.20187  0.94475  1.0000
  H   H596      1.0  0.20701  0.11246  0.92661  1.0000
  C   C740      1.0  0.34696  0.39366  0.85068  1.0000
  C   C741      1.0  0.35227  0.38552  0.83748  1.0000
  C   C742      1.0  0.33732  0.38276  0.80351  1.0000
  H   H597      1.0  0.32971  0.42489  0.83359  1.0000
  C   C743      1.0  0.11638  0.31451  0.82421  1.0000
  C   C744      1.0  0.42188  0.42955  0.84114  1.0000
  H   H598      1.0  0.38667  0.41892  0.77526  1.0000
  C   C745      1.0  0.34712  0.44304  0.83209  1.0000
  C   C746      1.0  0.36346  0.40065  0.80764  1.0000
  H   H599      1.0  0.28430  0.18407  0.95217  1.0000
  C   C747      1.0  0.19431  0.20434  0.94497  1.0000
  P   P25       1.0  0.23803  0.19634  0.95633  1.0000
  C   C748      1.0  0.07462  0.26079  0.85468  1.0000
  H   H600      1.0  0.30880  0.36442  0.78628  1.0000
  H   H601      1.0  0.20743  0.21648  0.93733  1.0000
  C   C749      1.0  0.98486  0.43996  0.75901  1.0000
  C   C750      1.0  0.17594  0.38470  0.77149  1.0000
  C   C751      1.0  0.00248  0.40640  0.86596  1.0000
  H   H602      1.0  0.40568  0.38442  0.81331  1.0000
  C   C752      1.0  0.27267  0.25032  0.95403  1.0000
  H   H603      1.0  0.35478  0.41463  0.85400  1.0000
  P   P26       1.0  0.37321  0.40994  0.82588  1.0000
  C   C753      1.0  0.07231  0.27610  0.86611  1.0000
  C   C754      1.0  0.32923  0.37765  0.78934  1.0000
  C   C755      1.0  0.23741  0.39399  0.73573  1.0000
  H   H604      1.0  0.04881  0.29512  0.87540  1.0000
  S   S118      1.0  0.29464  0.46782  0.80711  1.0000
  C   C756      1.0  0.25963  0.22296  0.93242  1.0000
  H   H605      1.0  0.24850  0.20408  0.92664  1.0000
  H   H606      1.0  0.03325  0.32655  0.78925  1.0000
  C   C757      1.0  0.27521  0.24511  0.92505  1.0000
  C   C758      1.0  0.28931  0.26988  0.93211  1.0000
  H   H607      1.0  0.27606  0.24309  0.91381  1.0000
  H   H608      1.0  0.30097  0.28711  0.92631  1.0000
  C   C759      1.0  0.01425  0.33615  0.85943  1.0000
  C   C760      1.0  0.34714  0.39044  0.77918  1.0000
  H   H609      1.0  0.18008  0.05746  0.95613  1.0000
  C   C761      1.0  0.41736  0.39793  0.82187  1.0000
  C   C762      1.0  0.38132  0.41354  0.79735  1.0000
  C   C763      1.0  0.40672  0.41304  0.82973  1.0000
  C   C764      1.0  0.37318  0.40835  0.78317  1.0000
  C   C765      1.0  0.05076  0.28341  0.86648  1.0000
  C   C766      1.0  0.07191  0.42824  0.73818  1.0000
  H   H610      1.0  0.16124  0.21218  0.93706  1.0000
  C   C767      1.0  0.12890  0.39293  0.77198  1.0000
  H   H611      1.0  0.40123  0.42826  0.80028  1.0000
  H   H612      1.0  0.34063  0.38713  0.76821  1.0000
  C   C768      1.0  0.22564  0.01496  0.96475  1.0000
  C   C769      1.0  0.13907  0.33468  0.81918  1.0000
  H   H613      1.0  0.23944  0.01831  0.95647  1.0000
  C   C770      1.0  0.18112  0.41109  0.81469  1.0000
  C   C771      1.0  0.11084  0.28157  0.94976  1.0000
  C   C772      1.0  0.03129  0.27513  0.85554  1.0000
  C   C773      1.0  0.39297  0.46567  0.82561  1.0000
  C   C774      1.0  0.03298  0.25909  0.84419  1.0000
  C   C775      1.0  0.98565  0.19201  0.82654  1.0000
  C   C776      1.0  0.05498  0.25217  0.84379  1.0000
  H   H614      1.0  0.16583  0.41372  0.80830  1.0000
  C   C777      1.0  0.16116  0.37935  0.78358  1.0000
  C   C778      1.0  0.16692  0.39358  0.75969  1.0000
  C   C779      1.0  0.14050  0.33957  0.80490  1.0000
  C   C780      1.0  0.13782  0.38408  0.78382  1.0000
  C   C781      1.0  0.21414  0.42728  0.83403  1.0000
  C   C782      1.0  0.19389  0.42967  0.82579  1.0000
  H   H615      1.0  0.18813  0.44607  0.82796  1.0000
  C   C783      1.0  0.18819  0.38956  0.81195  1.0000
  P   P27       1.0  0.17051  0.36444  0.79824  1.0000
  H   H616      1.0  0.09321  0.27345  0.94270  1.0000
  C   C784      1.0  0.23442  0.01531  0.97882  1.0000
  C   C785      1.0  0.18127  0.00529  0.97236  1.0000
  C   C786      1.0  0.10818  0.28006  0.96421  1.0000
  H   H617      1.0  0.17859  0.31173  0.94927  1.0000
  H   H618      1.0  0.17844  0.39768  0.75046  1.0000
  C   C787      1.0  0.16515  0.08721  0.96222  1.0000
  C   C788      1.0  0.15889  0.30334  0.95347  1.0000
  H   H619      1.0  0.23677  0.40387  0.83786  1.0000
  H   H620      1.0  0.13845  0.29376  0.93323  1.0000
  H   H621      1.0  0.18362  0.44671  0.77089  1.0000
  H   H622      1.0  0.21353  0.37009  0.81908  1.0000
  C   C789      1.0  0.17754  0.47151  0.80298  1.0000
  C   C790      1.0  0.13622  0.29311  0.94440  1.0000
  C   C791      1.0  0.13090  0.29057  0.97341  1.0000
  C   C792      1.0  0.15631  0.30196  0.96791  1.0000
  H   H623      1.0  0.12163  0.23834  0.97474  1.0000
  C   C793      1.0  0.02064  0.43445  0.83553  1.0000
  C   C794      1.0  0.02996  0.45658  0.84513  1.0000
  S   S119      1.0  0.23899  0.45934  0.77559  1.0000
  C   C795      1.0  0.11391  0.44115  0.85779  1.0000
  S   S120      1.0  0.99440  0.24403  0.88562  1.0000
  H   H624      1.0  0.08292  0.15260  0.83187  1.0000
  C   C796      1.0  0.19183  0.34846  0.79248  1.0000
  C   C797      1.0  0.18935  0.45605  0.78126  1.0000
  H   H625      1.0  0.22777  0.38525  0.79331  1.0000
  C   C798      1.0  0.09579  0.30446  0.80084  1.0000
  C   C799      1.0  0.03887  0.31873  0.81069  1.0000
  H   H626      1.0  0.14668  0.46865  0.75591  1.0000
  H   H627      1.0  0.99286  0.40920  0.85653  1.0000
  H   H628      1.0  0.03947  0.30571  0.83148  1.0000
  H   H629      1.0  0.05130  0.33953  0.81360  1.0000
  H   H630      1.0  0.08838  0.27040  0.96816  1.0000
  C   C800      1.0  0.03225  0.29951  0.82079  1.0000
  Fe  Fe63      1.0  0.06585  0.47469  0.79659  1.0000
  S   S121      1.0  0.18582  0.00700  0.94389  1.0000
  C   C801      1.0  0.06340  0.15968  0.84976  1.0000
  H   H631      1.0  0.11944  0.32739  0.78463  1.0000
  C   C802      1.0  0.21926  0.36375  0.79120  1.0000
  S   S122      1.0  0.00995  0.32045  0.87597  1.0000
  C   C803      1.0  0.11871  0.32420  0.79573  1.0000
  C   C804      1.0  0.09540  0.47950  0.84985  1.0000
  C   C805      1.0  0.44770  0.43157  0.84436  1.0000
  H   H632      1.0  0.07890  0.29297  0.79375  1.0000
  C   C806      1.0  0.23610  0.35132  0.78754  1.0000
  C   C807      1.0  0.09471  0.29952  0.81507  1.0000
  P   P28       1.0  0.00729  0.24797  0.83025  1.0000
  C   C808      1.0  0.18144  0.32067  0.78960  1.0000
  C   C809      1.0  0.22565  0.32367  0.78480  1.0000
  C   C810      1.0  0.08867  0.43888  0.86155  1.0000
  H   H633      1.0  0.23344  0.23113  0.97886  1.0000
  H   H634      1.0  0.04786  0.16505  0.86947  1.0000
  H   H635      1.0  0.07651  0.42174  0.86719  1.0000
  H   H636      1.0  0.14957  0.45194  0.78567  1.0000
  H   H637      1.0  0.05121  0.16732  0.84375  1.0000
  C   C811      1.0  0.07918  0.45804  0.85760  1.0000
  C   C812      1.0  0.02510  0.39832  0.89098  1.0000
  H   H638      1.0  0.07707  0.28413  0.81901  1.0000
  C   C813      1.0  0.00978  0.43602  0.82238  1.0000
  H   H639      1.0  0.06259  0.03877  0.85464  1.0000
  H   H640      1.0  0.16040  0.30837  0.79039  1.0000
  C   C814      1.0  0.00031  0.46006  0.73703  1.0000
  H   H641      1.0  0.12632  0.98846  0.93349  1.0000
  C   C815      1.0  0.24778  0.20020  0.97479  1.0000
  H   H642      1.0  0.24703  0.42007  0.75431  1.0000
  H   H643      1.0  0.24792  0.38235  0.73956  1.0000
  H   H644      1.0  0.00276  0.41880  0.81504  1.0000
  H   H645      1.0  0.26592  0.11130  0.96717  1.0000
  C   C816      1.0  0.16745  0.45970  0.73913  1.0000
  H   H646      1.0  0.03382  0.39501  0.90065  1.0000
  H   H647      1.0  0.22517  0.44781  0.74546  1.0000
  H   H648      1.0  0.13627  0.40454  0.75085  1.0000
  C   C817      1.0  0.32573  0.43724  0.73718  1.0000
  H   H649      1.0  0.02223  0.41606  0.83808  1.0000
  H   H650      1.0  0.41371  0.44077  0.84757  1.0000
  H   H651      1.0  0.45135  0.38835  0.81900  1.0000
  C   C818      1.0  0.02772  0.42530  0.87095  1.0000
  C   C819      1.0  0.20440  0.48124  0.80780  1.0000
  H   H652      1.0  0.05744  0.43619  0.88808  1.0000
  C   C820      1.0  0.22476  0.43128  0.73883  1.0000
  H   H653      1.0  0.99040  0.25823  0.95128  1.0000
  H   H654      1.0  0.23881  0.31415  0.78199  1.0000
  C   C821      1.0  0.03846  0.42147  0.88377  1.0000
  C   C822      1.0  0.99804  0.32388  0.84742  1.0000
  H   H655      1.0  0.26210  0.16860  0.97493  1.0000
  C   C823      1.0  0.25129  0.10170  0.97479  1.0000
  H   H656      1.0  0.00311  0.46492  0.77759  1.0000
  C   C824      1.0  0.44319  0.39999  0.82513  1.0000
  C   C825      1.0  0.00063  0.37907  0.88560  1.0000
  C   C826      1.0  0.19831  0.30837  0.78574  1.0000
  H   H657      1.0  0.41138  0.46525  0.82213  1.0000
  C   C827      1.0  0.19188  0.46676  0.73269  1.0000
  H   H658      1.0  0.13685  0.03342  0.96817  1.0000
  Fe  Fe64      1.0  0.98992  0.28305  0.88937  1.0000
  H   H659      1.0  0.16050  0.00080  0.96989  1.0000
  C   C828      1.0  0.00556  0.26539  0.80329  1.0000
  C   C829      1.0  0.98922  0.38324  0.87318  1.0000
  H   H660      1.0  0.22083  0.11049  0.96446  1.0000
  C   C830      1.0  0.97896  0.26144  0.95959  1.0000
  H   H661      1.0  0.45937  0.44444  0.85314  1.0000
  C   C831      1.0  0.21589  0.46454  0.78633  1.0000
  C   C832      1.0  0.12975  0.46238  0.84992  1.0000
  H   H662      1.0  0.19023  0.28692  0.78358  1.0000
  H   H663      1.0  0.25736  0.36317  0.78704  1.0000
  C   C833      1.0  0.45839  0.41687  0.83633  1.0000
  C   C834      1.0  0.23712  0.41536  0.74399  1.0000
  H   H664      1.0  0.19271  0.16731  0.97308  1.0000
  H   H665      1.0  0.26877  0.30781  0.97337  1.0000
  C   C835      1.0  0.34511  0.46764  0.83347  1.0000
  C   C836      1.0  0.17013  0.45924  0.78958  1.0000
  C   C837      1.0  0.22346  0.47729  0.79961  1.0000
  H   H666      1.0  0.32636  0.46834  0.83616  1.0000
  H   H667      1.0  0.14897  0.46380  0.84658  1.0000
  C   C838      1.0  0.00210  0.46354  0.76626  1.0000
  C   C839      1.0  0.02867  0.31139  0.79693  1.0000
  C   C840      1.0  0.16539  0.47485  0.75070  1.0000
  H   H668      1.0  0.17428  0.30940  0.97463  1.0000
  H   H669      1.0  0.98206  0.30426  0.84800  1.0000
  C   C841      1.0  0.00476  0.21649  0.82236  1.0000
  H   H670      1.0  0.98942  0.32730  0.82554  1.0000
  S   S123      1.0  0.10238  0.47822  0.78539  1.0000
  H   H671      1.0  0.00543  0.47104  0.87208  1.0000
  C   C842      1.0  0.12053  0.48158  0.84600  1.0000
  H   H672      1.0  0.29334  0.98494  0.86852  1.0000
  C   C843      1.0  0.22556  0.10094  0.97322  1.0000
  H   H673      1.0  0.10465  0.99319  0.97833  1.0000
  C   C844      1.0  0.25532  0.98604  0.86327  1.0000
  C   C845      1.0  0.04814  0.48250  0.87319  1.0000
  H   H674      1.0  0.05694  0.23988  0.83522  1.0000
  C   C846      1.0  0.98489  0.25762  0.97358  1.0000
  C   C847      1.0  0.98440  0.16781  0.82061  1.0000
  C   C848      1.0  0.00919  0.46011  0.81845  1.0000
  H   H675      1.0  0.00180  0.46169  0.80804  1.0000
  H   H676      1.0  0.00098  0.25154  0.97589  1.0000
  H   H677      1.0  0.03799  0.23484  0.80907  1.0000
  C   C849      1.0  0.01585  0.27267  0.81714  1.0000
  C   C850      1.0  0.02966  0.48088  0.84100  1.0000
  C   C851      1.0  0.02283  0.21627  0.81232  1.0000
  C   C852      1.0  0.01201  0.28472  0.79323  1.0000
  H   H678      1.0  0.99064  0.36072  0.89096  1.0000
  H   H679      1.0  0.03538  0.19200  0.79861  1.0000
  C   C853      1.0  0.02151  0.19202  0.80642  1.0000
  H   H680      1.0  0.00373  0.27916  0.78260  1.0000
  C   C854      1.0  0.00227  0.16780  0.81055  1.0000
  H   H681      1.0  0.99218  0.24491  0.80032  1.0000
  H   H682      1.0  0.00117  0.14900  0.80594  1.0000
  C   C855      1.0  0.01796  0.48368  0.74425  1.0000
  S   S124      1.0  0.31652  0.48380  0.77549  1.0000
  Fe  Fe65      1.0  0.16114  0.98420  0.89346  1.0000
  C   C856      1.0  0.01929  0.48256  0.82771  1.0000
  C   C857      1.0  0.13430  0.03379  0.97929  1.0000
  C   C858      1.0  0.99366  0.69460  0.08410  1.0000
  C   C859      1.0  0.07295  0.67341  0.11630  1.0000
  H   H683      1.0  0.10046  0.66661  0.13056  1.0000
  C   C860      1.0  0.14875  0.93039  0.07630  1.0000
  H   H684      1.0  0.46747  0.96989  0.21144  1.0000
  C   C861      1.0  0.12148  0.94442  0.99972  1.0000
  Fe  Fe66      1.0  0.00537  0.80067  0.04702  1.0000
  S   S125      1.0  0.05087  0.82391  0.04865  1.0000
  S   S126      1.0  0.98856  0.75951  0.03592  1.0000
  S   S127      1.0  0.98043  0.81587  0.03406  1.0000
  S   S128      1.0  0.11716  0.95080  0.04759  1.0000
  H   H685      1.0  0.18903  0.89789  0.07099  1.0000
  H   H686      1.0  0.15000  0.90825  0.99499  1.0000
  H   H687      1.0  0.12779  0.92686  0.07558  1.0000
  C   C862      1.0  0.06871  0.85909  0.04723  1.0000
  C   C863      1.0  0.05603  0.87668  0.04784  1.0000
  C   C864      1.0  0.07119  0.90458  0.04775  1.0000
  C   C865      1.0  0.09914  0.91531  0.04684  1.0000
  C   C866      1.0  0.11169  0.89768  0.04561  1.0000
  C   C867      1.0  0.09659  0.86978  0.04594  1.0000
  H   H688      1.0  0.03463  0.86883  0.04880  1.0000
  H   H689      1.0  0.06120  0.91797  0.04864  1.0000
  H   H690      1.0  0.13309  0.90558  0.04470  1.0000
  H   H691      1.0  0.10659  0.85637  0.04537  1.0000
  H   H692      1.0  0.06755  0.78296  0.00490  1.0000
  H   H693      1.0  0.14048  0.96154  0.00138  1.0000
  C   C868      1.0  0.03779  0.65963  0.13806  1.0000
  C   C869      1.0  0.15644  0.90943  0.07340  1.0000
  C   C870      1.0  0.01591  0.87177  0.00432  1.0000
  H   H694      1.0  0.00718  0.90491  0.03319  1.0000
  C   C871      1.0  0.00774  0.69934  0.14715  1.0000
  C   C872      1.0  0.02975  0.66647  0.12524  1.0000
  H   H695      1.0  0.04239  0.90524  0.01790  1.0000
  C   C873      1.0  0.06242  0.79956  0.00255  1.0000
  C   C874      1.0  0.99384  0.67813  0.09492  1.0000
  P   P29       1.0  0.23818  0.94679  0.07737  1.0000
  C   C875      1.0  0.04754  0.67334  0.11436  1.0000
  C   C876      1.0  0.00126  0.70814  0.15982  1.0000
  H   H696      1.0  0.22423  0.86152  0.09866  1.0000
  C   C877      1.0  0.00212  0.89080  0.02425  1.0000
  H   H697      1.0  0.98434  0.83752  0.99359  1.0000
  C   C878      1.0  0.08078  0.66660  0.12908  1.0000
  C   C879      1.0  0.03953  0.82783  0.00849  1.0000
  C   C880      1.0  0.18352  0.91419  0.07383  1.0000
  H   H698      1.0  0.28210  0.88557  0.06703  1.0000
  C   C881      1.0  0.99649  0.72075  0.08717  1.0000
  C   C882      1.0  0.11176  0.92647  0.01028  1.0000
  C   C883      1.0  0.02216  0.89074  0.01558  1.0000
  C   C884      1.0  0.04879  0.84238  0.99654  1.0000
  C   C885      1.0  0.08250  0.91780  0.98487  1.0000
  C   C886      1.0  0.07232  0.89986  0.99551  1.0000
  H   H699      1.0  0.06923  0.65435  0.14987  1.0000
  H   H700      1.0  0.12319  0.92988  0.02013  1.0000
  C   C887      1.0  0.99928  0.73041  0.10107  1.0000
  H   H701      1.0  0.99579  0.73328  0.07876  1.0000
  C   C888      1.0  0.99912  0.71389  0.11193  1.0000
  C   C889      1.0  0.04629  0.80647  0.01143  1.0000
  P   P30       1.0  0.99681  0.66618  0.12289  1.0000
  H   H702      1.0  0.03922  0.79548  0.02073  1.0000
  H   H703      1.0  0.24311  0.94450  0.02594  1.0000
  H   H704      1.0  0.08035  0.89030  0.01647  1.0000
  C   C890      1.0  0.08744  0.90414  0.00817  1.0000
  C   C891      1.0  0.06320  0.65971  0.13996  1.0000
  C   C892      1.0  0.99624  0.68753  0.10895  1.0000
  H   H705      1.0  0.23035  0.92398  0.04869  1.0000
  P   P31       1.0  0.04105  0.87063  0.99291  1.0000
  H   H706      1.0  0.08658  0.67873  0.10786  1.0000
  C   C893      1.0  0.15684  0.91527  0.98479  1.0000
  C   C894      1.0  0.24186  0.94537  0.04843  1.0000
  C   C895      1.0  0.07210  0.81424  0.99077  1.0000
  C   C896      1.0  0.98942  0.85301  0.00187  1.0000
  H   H707      1.0  0.01630  0.72455  0.16603  1.0000
  H   H708      1.0  0.99232  0.61356  0.13204  1.0000
  H   H709      1.0  0.27433  0.92640  0.06398  1.0000
  H   H710      1.0  0.02436  0.65411  0.14659  1.0000
  H   H711      1.0  0.02745  0.83305  0.01572  1.0000
  H   H712      1.0  0.04195  0.67866  0.10437  1.0000
  C   C897      1.0  0.16812  0.95611  0.07967  1.0000
  C   C898      1.0  0.24371  0.91673  0.07917  1.0000
  C   C899      1.0  0.26743  0.88909  0.07313  1.0000
  H   H713      1.0  0.21612  0.90228  0.09570  1.0000
  H   H714      1.0  0.29531  0.97888  0.08257  1.0000
  C   C900      1.0  0.24897  0.96150  0.06086  1.0000
  H   H715      1.0  0.00101  0.75056  0.10340  1.0000
  H   H716      1.0  0.25706  0.85295  0.08429  1.0000
  C   C901      1.0  0.23020  0.89857  0.08920  1.0000
  C   C902      1.0  0.24473  0.97155  0.10411  1.0000
  C   C903      1.0  0.25339  0.87075  0.08288  1.0000
  C   C904      1.0  0.98813  0.77032  0.98384  1.0000
  H   H717      1.0  0.19540  0.94403  0.99287  1.0000
  C   C905      1.0  0.10704  0.93988  0.98694  1.0000
  C   C906      1.0  0.23486  0.87555  0.09096  1.0000
  H   H718      1.0  0.99083  0.68703  0.07331  1.0000
  C   C907      1.0  0.98831  0.67802  0.13908  1.0000
  C   C908      1.0  0.18241  0.93534  0.98362  1.0000
  C   C909      1.0  0.26279  0.91212  0.07134  1.0000
  C   C910      1.0  0.24899  0.95690  0.03554  1.0000
  C   C911      1.0  0.25724  0.96854  0.09200  1.0000
  H   H719      1.0  0.22332  0.96143  0.10482  1.0000
  C   C912      1.0  0.20309  0.93985  0.07764  1.0000
  H   H720      1.0  0.16217  0.97250  0.08154  1.0000
  C   C913      1.0  0.06554  0.83576  0.98783  1.0000
  H   H721      1.0  0.99173  0.65795  0.09233  1.0000
  H   H722      1.0  0.99844  0.76864  0.99333  1.0000
  H   H723      1.0  0.14132  0.88962  0.07050  1.0000
  H   H724      1.0  0.20994  0.98100  0.08263  1.0000
  H   H725      1.0  0.08476  0.80895  0.98398  1.0000
  H   H726      1.0  0.02785  0.70917  0.14364  1.0000
  H   H727      1.0  0.00088  0.72172  0.12258  1.0000
  C   C914      1.0  0.19517  0.96086  0.08027  1.0000
  C   C915      1.0  0.28519  0.98127  0.09169  1.0000
  Fe  Fe67      1.0  0.15977  0.98277  0.04546  1.0000
  S   S129      1.0  0.97626  0.78766  0.06441  1.0000
  H   H728      1.0  0.46825  0.51379  0.32082  1.0000
  H   H729      1.0  0.07507  0.90656  0.41188  1.0000
  H   H730      1.0  0.98655  0.71579  0.37180  1.0000
  C   C916      1.0  0.01895  0.78990  0.29223  1.0000
  C   C917      1.0  0.10034  0.96372  0.47121  1.0000
  H   H731      1.0  0.01668  0.76079  0.38205  1.0000
  S   S130      1.0  0.02839  0.82469  0.39377  1.0000
  C   C918      1.0  0.00961  0.75834  0.37119  1.0000
  H   H732      1.0  0.03407  0.76119  0.29876  1.0000
  C   C919      1.0  0.13873  0.92121  0.47290  1.0000
  S   S131      1.0  0.11418  0.93677  0.37425  1.0000
  C   C920      1.0  0.05148  0.85737  0.38953  1.0000
  C   C921      1.0  0.04352  0.87574  0.38312  1.0000
  C   C922      1.0  0.06285  0.90051  0.37908  1.0000
  C   C923      1.0  0.09038  0.90779  0.38185  1.0000
  C   C924      1.0  0.09824  0.88987  0.38879  1.0000
  C   C925      1.0  0.07897  0.86484  0.39250  1.0000
  H   H733      1.0  0.02253  0.87074  0.38107  1.0000
  H   H734      1.0  0.05646  0.91397  0.37356  1.0000
  H   H735      1.0  0.11927  0.89479  0.39077  1.0000
  H   H736      1.0  0.08547  0.85095  0.39750  1.0000
  H   H737      1.0  0.19110  0.91779  0.45593  1.0000
  C   C926      1.0  0.09667  0.87436  0.35234  1.0000
  H   H738      1.0  0.98117  0.75023  0.33295  1.0000
  C   C927      1.0  0.19393  0.93559  0.47662  1.0000
  H   H739      1.0  0.03560  0.86608  0.33902  1.0000
  H   H740      1.0  0.31525  0.93776  0.37970  1.0000
  H   H741      1.0  0.45571  0.52047  0.27322  1.0000
  C   C928      1.0  0.99270  0.73309  0.36543  1.0000
  H   H742      1.0  0.00811  0.84383  0.36039  1.0000
  H   H743      1.0  0.14258  0.90410  0.45276  1.0000
  H   H744      1.0  0.06501  0.80658  0.34966  1.0000
  Fe  Fe68      1.0  0.98285  0.79948  0.39221  1.0000
  C   C929      1.0  0.09460  0.91113  0.45162  1.0000
  C   C930      1.0  0.02543  0.78129  0.31640  1.0000
  H   H745      1.0  0.02006  0.78580  0.28118  1.0000
  C   C931      1.0  0.01572  0.80021  0.32084  1.0000
  H   H746      1.0  0.00180  0.82988  0.31408  1.0000
  C   C932      1.0  0.46648  0.49346  0.26056  1.0000
  H   H747      1.0  0.11415  0.86661  0.47602  1.0000
  H   H748      1.0  0.11817  0.94162  0.42135  1.0000
  C   C933      1.0  0.09790  0.94111  0.47854  1.0000
  C   C934      1.0  0.04668  0.83361  0.34425  1.0000
  C   C935      1.0  0.08425  0.88273  0.47805  1.0000
  C   C936      1.0  0.98742  0.81726  0.34265  1.0000
  H   H749      1.0  0.07938  0.90174  0.34673  1.0000
  C   C937      1.0  0.98991  0.83537  0.35386  1.0000
  H   H750      1.0  0.05662  0.87695  0.45280  1.0000
  C   C938      1.0  0.97827  0.76845  0.46682  1.0000
  C   C939      1.0  0.05127  0.86060  0.34299  1.0000
  H   H751      1.0  0.13058  0.94474  0.44643  1.0000
  C   C940      1.0  0.01677  0.78072  0.36308  1.0000
  H   H752      1.0  0.00414  0.82027  0.28892  1.0000
  C   C941      1.0  0.00742  0.77803  0.34908  1.0000
  C   C942      1.0  0.28980  0.95904  0.37910  1.0000
  H   H753      1.0  0.02916  0.80023  0.36785  1.0000
  C   C943      1.0  0.15271  0.91453  0.46245  1.0000
  P   P32       1.0  0.10360  0.91392  0.47015  1.0000
  C   C944      1.0  0.07026  0.89129  0.44614  1.0000
  C   C945      1.0  0.07612  0.88087  0.34715  1.0000
  P   P33       1.0  0.01437  0.80740  0.33921  1.0000
  H   H754      1.0  0.99522  0.76322  0.46784  1.0000
  C   C946      1.0  0.00990  0.80925  0.29659  1.0000
  H   H755      1.0  0.04479  0.87400  0.42757  1.0000
  C   C947      1.0  0.45141  0.49974  0.27044  1.0000
  C   C948      1.0  0.06336  0.88960  0.43184  1.0000
  H   H756      1.0  0.10428  0.96477  0.46023  1.0000
  H   H757      1.0  0.11565  0.89018  0.35594  1.0000
  C   C949      1.0  0.09256  0.84756  0.35318  1.0000
  S   S132      1.0  0.19070  0.97259  0.39371  1.0000
  C   C950      1.0  0.00844  0.81453  0.31085  1.0000
  C   C951      1.0  0.02681  0.77601  0.30213  1.0000
  C   C952      1.0  0.18025  0.92199  0.46426  1.0000
  C   C953      1.0  0.06777  0.82722  0.34899  1.0000
  C   C954      1.0  0.31318  0.95564  0.37650  1.0000
  C   C955      1.0  0.10468  0.92765  0.42828  1.0000
  H   H758      1.0  0.03201  0.77067  0.32394  1.0000
  C   C956      1.0  0.98290  0.73026  0.35156  1.0000
  H   H759      1.0  0.10851  0.84260  0.35728  1.0000
  Fe  Fe69      1.0  0.15189  0.97123  0.38411  1.0000
  C   C957      1.0  0.11168  0.92932  0.44254  1.0000
  C   C958      1.0  0.08048  0.90785  0.42294  1.0000
  H   H760      1.0  0.27374  0.94388  0.38431  1.0000
  H   H761      1.0  0.21540  0.94214  0.47786  1.0000
  C   C959      1.0  0.98987  0.75269  0.34347  1.0000
  H   H762      1.0  0.35168  0.97205  0.36780  1.0000
  C   C960      1.0  0.09452  0.86322  0.47951  1.0000
  C   C961      1.0  0.33385  0.97522  0.36972  1.0000
  C   C962      1.0  0.28707  0.98203  0.37494  1.0000
  H   H763      1.0  0.42209  0.98372  0.34730  1.0000
  H   H764      1.0  0.41913  0.48410  0.28442  1.0000
  H   H765      1.0  0.15464  0.98375  0.46136  1.0000
  H   H766      1.0  0.09030  0.76184  0.71160  1.0000
  C   C963      1.0  0.23989  0.97554  0.58075  1.0000
  H   H767      1.0  0.46075  0.70266  0.68165  1.0000
  H   H768      1.0  0.08736  0.82401  0.48654  1.0000
  S   S133      1.0  0.01114  0.87012  0.54836  1.0000
  S   S134      1.0  0.00685  0.80017  0.53451  1.0000
  H   H769      1.0  0.09986  0.79442  0.50728  1.0000
  S   S135      1.0  0.12511  0.92980  0.52328  1.0000
  S   S136      1.0  0.19866  0.97239  0.52761  1.0000
  Fe  Fe70      1.0  0.05917  0.69935  0.66973  1.0000
  S   S137      1.0  0.08629  0.67852  0.66586  1.0000
  S   S138      1.0  0.05296  0.71517  0.69118  1.0000
  Fe  Fe71      1.0  0.04683  0.70190  0.63767  1.0000
  S   S139      1.0  0.07267  0.68018  0.63182  1.0000
  S   S140      1.0  0.02554  0.72254  0.62408  1.0000
  Fe  Fe72      1.0  0.05497  0.65310  0.64959  1.0000
  S   S141      1.0  0.03703  0.60712  0.64945  1.0000
  Fe  Fe73      1.0  0.10198  0.70707  0.64861  1.0000
  S   S142      1.0  0.14629  0.72699  0.64476  1.0000
  S   S143      1.0  0.02666  0.67278  0.65431  1.0000
  S   S144      1.0  0.07727  0.72985  0.65363  1.0000
  Fe  Fe74      1.0  0.29395  0.92416  0.66869  1.0000
  S   S145      1.0  0.28516  0.88141  0.66242  1.0000
  S   S146      1.0  0.31452  0.93967  0.69048  1.0000
  Fe  Fe75      1.0  0.27808  0.93515  0.63822  1.0000
  S   S147      1.0  0.26977  0.89320  0.63042  1.0000
  S   S148      1.0  0.26738  0.96552  0.62590  1.0000
  Fe  Fe76      1.0  0.24903  0.88083  0.65051  1.0000
  S   S149      1.0  0.20550  0.85354  0.65254  1.0000
  Fe  Fe77      1.0  0.30745  0.89823  0.64312  1.0000
  S   S150      1.0  0.33955  0.88420  0.63621  1.0000
  S   S151      1.0  0.25620  0.92263  0.65808  1.0000
  S   S152      1.0  0.31719  0.94092  0.64958  1.0000
  S   S153      1.0  0.08969  0.52181  0.64989  1.0000
  C   C964      1.0  0.40559  0.53945  0.64810  1.0000
  C   C965      1.0  0.43317  0.55049  0.65180  1.0000
  C   C966      1.0  0.44954  0.57761  0.64966  1.0000
  C   C967      1.0  0.43858  0.59407  0.64364  1.0000
  C   C968      1.0  0.41099  0.58308  0.64003  1.0000
  C   C969      1.0  0.39456  0.55607  0.64235  1.0000
  H   H770      1.0  0.44198  0.53788  0.65625  1.0000
  H   H771      1.0  0.40226  0.59551  0.63530  1.0000
  H   H772      1.0  0.37347  0.54795  0.63938  1.0000
  C   C970      1.0  0.43101  0.92485  0.64642  1.0000
  C   C971      1.0  0.41871  0.89838  0.64098  1.0000
  C   C972      1.0  0.39088  0.88650  0.63771  1.0000
  C   C973      1.0  0.37485  0.90073  0.63994  1.0000
  C   C974      1.0  0.38718  0.92728  0.64531  1.0000
  C   C975      1.0  0.41501  0.93919  0.64852  1.0000
  H   H773      1.0  0.43065  0.88707  0.63924  1.0000
  H   H774      1.0  0.38169  0.86602  0.63354  1.0000
  H   H775      1.0  0.37525  0.93859  0.64704  1.0000
  H   H776      1.0  0.19587  0.49430  0.70683  1.0000
  C   C976      1.0  0.16291  0.76226  0.64658  1.0000
  C   C977      1.0  0.15019  0.77758  0.65218  1.0000
  C   C978      1.0  0.16381  0.80545  0.65383  1.0000
  C   C979      1.0  0.19043  0.81836  0.65032  1.0000
  C   C980      1.0  0.20342  0.80322  0.64474  1.0000
  C   C981      1.0  0.18955  0.77520  0.64276  1.0000
  H   H777      1.0  0.12989  0.76806  0.65528  1.0000
  H   H778      1.0  0.15369  0.81728  0.65777  1.0000
  H   H779      1.0  0.22393  0.81306  0.64184  1.0000
  H   H780      1.0  0.19958  0.76348  0.63842  1.0000
  C   C982      1.0  0.05244  0.58405  0.65033  1.0000
  C   C983      1.0  0.07974  0.59174  0.64853  1.0000
  C   C984      1.0  0.09077  0.57248  0.64861  1.0000
  C   C985      1.0  0.07475  0.54530  0.65054  1.0000
  C   C986      1.0  0.04757  0.53770  0.65264  1.0000
  C   C987      1.0  0.03651  0.55694  0.65248  1.0000
  H   H781      1.0  0.09225  0.61243  0.64681  1.0000
  H   H782      1.0  0.11182  0.57863  0.64701  1.0000
  H   H783      1.0  0.03500  0.51695  0.65418  1.0000
  H   H784      1.0  0.01538  0.55073  0.65388  1.0000
  C   C988      1.0  0.11700  0.53999  0.68483  1.0000
  P   P34       1.0  0.41273  0.95187  0.70370  1.0000
  C   C989      1.0  0.44907  0.87591  0.70151  1.0000
  C   C990      1.0  0.98302  0.60890  0.62634  1.0000
  S   S154      1.0  0.46612  0.94104  0.65065  1.0000
  C   C991      1.0  0.26349  0.50002  0.58609  1.0000
  C   C992      1.0  0.04160  0.88793  0.54035  1.0000
  C   C993      1.0  0.05892  0.91350  0.54586  1.0000
  C   C994      1.0  0.08457  0.92681  0.54071  1.0000
  C   C995      1.0  0.09279  0.91484  0.52979  1.0000
  C   C996      1.0  0.07502  0.88987  0.52386  1.0000
  C   C997      1.0  0.04966  0.87633  0.52919  1.0000
  H   H785      1.0  0.05267  0.92288  0.55430  1.0000
  H   H786      1.0  0.09799  0.94619  0.54524  1.0000
  H   H787      1.0  0.08094  0.88084  0.51516  1.0000
  H   H788      1.0  0.03647  0.85682  0.52475  1.0000
  C   C998      1.0  0.00581  0.73851  0.57850  1.0000
  C   C999      1.0  0.02029  0.72277  0.58101  1.0000
  C   C1000     1.0  0.02653  0.71768  0.59477  1.0000
  C   C1001     1.0  0.01819  0.72806  0.60634  1.0000
  C   C1002     1.0  0.00332  0.74341  0.60382  1.0000
  C   C1003     1.0  0.46902  0.89696  0.72407  1.0000
  H   H789      1.0  0.02675  0.71443  0.57222  1.0000
  H   H790      1.0  0.03770  0.70561  0.59643  1.0000
  H   H791      1.0  0.38572  0.50636  0.68104  1.0000
  C   C1004     1.0  0.05317  0.67485  0.70804  1.0000
  C   C1005     1.0  0.05243  0.70000  0.70738  1.0000
  C   C1006     1.0  0.05100  0.71345  0.71993  1.0000
  H   H792      1.0  0.04196  0.81517  0.49450  1.0000
  H   H793      1.0  0.05382  0.66403  0.69851  1.0000
  H   H794      1.0  0.04949  0.73249  0.71958  1.0000
  H   H795      1.0  0.45077  0.87355  0.69034  1.0000
  C   C1007     1.0  0.30120  0.93222  0.70735  1.0000
  C   C1008     1.0  0.31728  0.92979  0.71854  1.0000
  C   C1009     1.0  0.39645  0.49869  0.70188  1.0000
  H   H796      1.0  0.31266  0.95853  0.61318  1.0000
  H   H797      1.0  0.98927  0.70970  0.65850  1.0000
  H   H798      1.0  0.09169  0.92387  0.49881  1.0000
  H   H799      1.0  0.13221  0.54019  0.71939  1.0000
  H   H800      1.0  0.11188  0.61417  0.67409  1.0000
  C   C1010     1.0  0.45830  0.95522  0.69029  1.0000
  C   C1011     1.0  0.12945  0.54698  0.62009  1.0000
  H   H801      1.0  0.47070  0.58563  0.65246  1.0000
  C   C1012     1.0  0.03430  0.75240  0.50281  1.0000
  H   H802      1.0  0.37063  0.97083  0.70809  1.0000
  H   H803      1.0  0.19070  0.95227  0.49677  1.0000
  H   H804      1.0  0.99636  0.75126  0.61261  1.0000
  H   H805      1.0  0.21384  0.78081  0.72737  1.0000
  S   S155      1.0  0.45851  0.62794  0.63977  1.0000
  H   H806      1.0  0.15513  0.82715  0.53792  1.0000
  C   C1013     1.0  0.33033  0.95442  0.61255  1.0000
  H   H807      1.0  0.01943  0.74125  0.49463  1.0000
  C   C1014     1.0  0.11056  0.74150  0.61055  1.0000
  C   C1015     1.0  0.09870  0.73270  0.59717  1.0000
  C   C1016     1.0  0.09009  0.74905  0.58933  1.0000
  C   C1017     1.0  0.09301  0.77406  0.59493  1.0000
  C   C1018     1.0  0.10433  0.78271  0.60850  1.0000
  C   C1019     1.0  0.11356  0.76650  0.61615  1.0000
  P   P35       1.0  0.11020  0.81571  0.61539  1.0000
  C   C1020     1.0  0.08467  0.82626  0.60951  1.0000
  C   C1021     1.0  0.10662  0.81585  0.63402  1.0000
  C   C1022     1.0  0.08603  0.79434  0.63982  1.0000
  C   C1023     1.0  0.08055  0.79585  0.65390  1.0000
  C   C1024     1.0  0.09541  0.81886  0.66225  1.0000
  C   C1025     1.0  0.11600  0.84031  0.65658  1.0000
  C   C1026     1.0  0.12147  0.83891  0.64249  1.0000
  C   C1027     1.0  0.05800  0.80761  0.60792  1.0000
  C   C1028     1.0  0.03753  0.81623  0.60556  1.0000
  C   C1029     1.0  0.04351  0.84350  0.60496  1.0000
  C   C1030     1.0  0.06999  0.86218  0.60665  1.0000
  C   C1031     1.0  0.09051  0.85363  0.60896  1.0000
  C   C1032     1.0  0.14313  0.83751  0.61040  1.0000
  C   C1033     1.0  0.14669  0.85029  0.59769  1.0000
  C   C1034     1.0  0.17239  0.86694  0.59385  1.0000
  C   C1035     1.0  0.19464  0.87041  0.60251  1.0000
  C   C1036     1.0  0.19126  0.85698  0.61491  1.0000
  C   C1037     1.0  0.16564  0.84042  0.61877  1.0000
  H   H808      1.0  0.11751  0.72901  0.61664  1.0000
  H   H809      1.0  0.09614  0.71318  0.59292  1.0000
  H   H810      1.0  0.08087  0.74222  0.57895  1.0000
  H   H811      1.0  0.08635  0.78651  0.58869  1.0000
  H   H812      1.0  0.12314  0.77315  0.62645  1.0000
  H   H813      1.0  0.07373  0.77660  0.63341  1.0000
  H   H814      1.0  0.06450  0.77920  0.65826  1.0000
  H   H815      1.0  0.09098  0.81998  0.67314  1.0000
  H   H816      1.0  0.12774  0.85804  0.66309  1.0000
  H   H817      1.0  0.13709  0.85592  0.63820  1.0000
  H   H818      1.0  0.05292  0.78649  0.60900  1.0000
  H   H819      1.0  0.01694  0.80176  0.60444  1.0000
  H   H820      1.0  0.02757  0.85014  0.60326  1.0000
  H   H821      1.0  0.07448  0.88328  0.60654  1.0000
  H   H822      1.0  0.11079  0.86835  0.61083  1.0000
  H   H823      1.0  0.12965  0.84725  0.59076  1.0000
  H   H824      1.0  0.17524  0.87725  0.58418  1.0000
  H   H825      1.0  0.21454  0.88346  0.59961  1.0000
  H   H826      1.0  0.20848  0.85935  0.62159  1.0000
  H   H827      1.0  0.16343  0.82983  0.62829  1.0000
  H   H828      1.0  0.30777  0.91268  0.60667  1.0000
  C   C1038     1.0  0.09247  0.52843  0.72670  1.0000
  H   H829      1.0  0.15867  0.56502  0.68895  1.0000
  H   H830      1.0  0.39220  0.86653  0.67701  1.0000
  C   C1039     1.0  0.99743  0.74886  0.59007  1.0000
  H   H831      1.0  0.11055  0.50489  0.62306  1.0000
  C   C1040     1.0  0.13515  0.66436  0.69953  1.0000
  C   C1041     1.0  0.21365  0.86683  0.71548  1.0000
  H   H832      1.0  0.07448  0.52018  0.68125  1.0000
  H   H833      1.0  0.02787  0.91857  0.59678  1.0000
  H   H834      1.0  0.45501  0.55022  0.71588  1.0000
  H   H835      1.0  0.21970  0.52122  0.68741  1.0000
  C   C1042     1.0  0.19399  0.76809  0.67924  1.0000
  C   C1043     1.0  0.16875  0.75491  0.68450  1.0000
  C   C1044     1.0  0.16343  0.76267  0.69768  1.0000
  C   C1045     1.0  0.18316  0.78407  0.70544  1.0000
  C   C1046     1.0  0.20850  0.79765  0.70013  1.0000
  C   C1047     1.0  0.21362  0.78974  0.68685  1.0000
  P   P36       1.0  0.23261  0.82747  0.70928  1.0000
  C   C1048     1.0  0.22255  0.85406  0.70515  1.0000
  Fe  Fe78      1.0  0.15746  0.97086  0.52961  1.0000
  H   H836      1.0  0.01060  0.58424  0.72041  1.0000
  C   C1049     1.0  0.47092  0.89385  0.70966  1.0000
  S   S156      1.0  0.31494  0.48633  0.66515  1.0000
  H   H837      1.0  0.98156  0.59184  0.63225  1.0000
  H   H838      1.0  0.42422  0.95967  0.65268  1.0000
  C   C1050     1.0  0.22269  0.86152  0.69126  1.0000
  C   C1051     1.0  0.21442  0.88171  0.68785  1.0000
  C   C1052     1.0  0.06697  0.93848  0.60707  1.0000
  C   C1053     1.0  0.42504  0.86143  0.70774  1.0000
  H   H839      1.0  0.00940  0.50152  0.67700  1.0000
  C   C1054     1.0  0.26583  0.83518  0.70362  1.0000
  C   C1055     1.0  0.28305  0.86163  0.70120  1.0000
  C   C1056     1.0  0.30947  0.86786  0.69792  1.0000
  C   C1057     1.0  0.31892  0.84773  0.69703  1.0000
  C   C1058     1.0  0.30192  0.82133  0.69946  1.0000
  C   C1059     1.0  0.27550  0.81508  0.70286  1.0000
  H   H840      1.0  0.19814  0.76193  0.66906  1.0000
  H   H841      1.0  0.15323  0.73892  0.67825  1.0000
  C   C1060     1.0  0.04894  0.92279  0.59638  1.0000
  C   C1061     1.0  0.09314  0.94080  0.49285  1.0000
  H   H842      1.0  0.23249  0.80059  0.68216  1.0000
  H   H843      1.0  0.09891  0.53032  0.58212  1.0000
  H   H844      1.0  0.40799  0.48503  0.72099  1.0000
  C   C1062     1.0  0.38405  0.91593  0.72352  1.0000
  H   H845      1.0  0.10719  0.73730  0.72313  1.0000
  H   H846      1.0  0.04990  0.89196  0.48121  1.0000
  H   H847      1.0  0.22927  0.85185  0.68305  1.0000
  H   H848      1.0  0.21493  0.88763  0.67716  1.0000
  H   H849      1.0  0.02778  0.65797  0.60801  1.0000
  H   H850      1.0  0.18832  0.86517  0.52637  1.0000
  H   H851      1.0  0.19048  0.93918  0.59974  1.0000
  C   C1063     1.0  0.39011  0.49266  0.68753  1.0000
  H   H852      1.0  0.32256  0.88840  0.69611  1.0000
  H   H853      1.0  0.33940  0.85262  0.69450  1.0000
  H   H854      1.0  0.30926  0.80573  0.69879  1.0000
  H   H855      1.0  0.26268  0.79466  0.70502  1.0000
  C   C1064     1.0  0.12247  0.63397  0.67904  1.0000
  C   C1065     1.0  0.46339  0.96173  0.71552  1.0000
  H   H856      1.0  0.45599  0.80471  0.70233  1.0000
  H   H857      1.0  0.02334  0.61771  0.62074  1.0000
  H   H858      1.0  0.15050  0.60262  0.69959  1.0000
  H   H859      1.0  0.37989  0.90011  0.71556  1.0000
  H   H860      1.0  0.14534  0.58807  0.61443  1.0000
  C   C1066     1.0  0.09418  0.94413  0.60645  1.0000
  H   H861      1.0  0.39248  0.93749  0.61233  1.0000
  C   C1067     1.0  0.46997  0.59523  0.69047  1.0000
  H   H862      1.0  0.40799  0.84774  0.70136  1.0000
  H   H863      1.0  0.17361  0.89276  0.51099  1.0000
  S   S157      1.0  0.99873  0.74431  0.56078  1.0000
  H   H864      1.0  0.00634  0.74048  0.51915  1.0000
  C   C1068     1.0  0.14849  0.82222  0.69748  1.0000
  C   C1069     1.0  0.26435  0.51428  0.59858  1.0000
  H   H865      1.0  0.12059  0.52387  0.67973  1.0000
  H   H866      1.0  0.34115  0.90626  0.66733  1.0000
  H   H867      1.0  0.33704  0.93102  0.71662  1.0000
  C   C1070     1.0  0.07193  0.78349  0.52389  1.0000
  C   C1071     1.0  0.04567  0.76721  0.52716  1.0000
  P   P37       1.0  0.09589  0.80465  0.53729  1.0000
  C   C1072     1.0  0.07881  0.81662  0.54987  1.0000
  C   C1073     1.0  0.11113  0.78599  0.54665  1.0000
  C   C1074     1.0  0.10931  0.76114  0.54124  1.0000
  C   C1075     1.0  0.12110  0.74687  0.54869  1.0000
  C   C1076     1.0  0.13481  0.75734  0.56154  1.0000
  C   C1077     1.0  0.13675  0.78210  0.56697  1.0000
  C   C1078     1.0  0.12490  0.79636  0.55958  1.0000
  C   C1079     1.0  0.07996  0.84272  0.54972  1.0000
  C   C1080     1.0  0.06650  0.85140  0.55950  1.0000
  C   C1081     1.0  0.05101  0.83399  0.56917  1.0000
  C   C1082     1.0  0.05011  0.80821  0.56959  1.0000
  C   C1083     1.0  0.06412  0.79959  0.56009  1.0000
  C   C1084     1.0  0.12085  0.83238  0.52894  1.0000
  C   C1085     1.0  0.14824  0.83868  0.53115  1.0000
  H   H868      1.0  0.45895  0.66189  0.69294  1.0000
  C   C1086     1.0  0.40079  0.90361  0.68879  1.0000
  C   C1087     1.0  0.13179  0.86920  0.51338  1.0000
  C   C1088     1.0  0.11279  0.84746  0.51974  1.0000
  C   C1089     1.0  0.09087  0.53787  0.68576  1.0000
  C   C1090     1.0  0.36434  0.88352  0.67150  1.0000
  H   H869      1.0  0.03920  0.76658  0.53773  1.0000
  H   H870      1.0  0.09877  0.75270  0.53131  1.0000
  H   H871      1.0  0.11959  0.72765  0.54450  1.0000
  H   H872      1.0  0.14389  0.74623  0.56733  1.0000
  H   H873      1.0  0.14726  0.79012  0.57698  1.0000
  H   H874      1.0  0.12647  0.81547  0.56394  1.0000
  H   H875      1.0  0.09125  0.85670  0.54223  1.0000
  H   H876      1.0  0.06745  0.87148  0.55933  1.0000
  H   H877      1.0  0.03924  0.84035  0.57607  1.0000
  H   H878      1.0  0.03781  0.79454  0.57697  1.0000
  H   H879      1.0  0.06263  0.77927  0.56045  1.0000
  C   C1091     1.0  0.14927  0.91217  0.63226  1.0000
  H   H880      1.0  0.12547  0.88147  0.50676  1.0000
  H   H881      1.0  0.09176  0.84264  0.51769  1.0000
  C   C1092     1.0  0.25592  0.96797  0.60843  1.0000
  S   S158      1.0  0.25316  0.48930  0.64457  1.0000
  C   C1093     1.0  0.47373  0.58117  0.70165  1.0000
  H   H882      1.0  0.27748  0.53534  0.59993  1.0000
  S   S159      1.0  0.38632  0.50465  0.65032  1.0000
  C   C1094     1.0  0.34260  0.50894  0.70285  1.0000
  H   H883      1.0  0.09435  0.76627  0.68632  1.0000
  H   H884      1.0  0.13180  0.80424  0.67717  1.0000
  C   C1095     1.0  0.14532  0.92512  0.57941  1.0000
  C   C1096     1.0  0.08602  0.55894  0.69182  1.0000
  H   H885      1.0  0.99067  0.67218  0.60683  1.0000
  C   C1097     1.0  0.39978  0.94273  0.72081  1.0000
  H   H886      1.0  0.41774  0.90296  0.69452  1.0000
  H   H887      1.0  0.16202  0.69721  0.67042  1.0000
  H   H888      1.0  0.01365  0.53847  0.71758  1.0000
  C   C1098     1.0  0.31716  0.53573  0.69972  1.0000
  H   H889      1.0  0.16106  0.83492  0.71882  1.0000
  C   C1099     1.0  0.00920  0.64617  0.61271  1.0000
  C   C1100     1.0  0.37210  0.92612  0.68319  1.0000
  C   C1101     1.0  0.10696  0.77856  0.70788  1.0000
  C   C1102     1.0  0.39394  0.92549  0.69088  1.0000
  C   C1103     1.0  0.13380  0.56742  0.61088  1.0000
  C   C1104     1.0  0.13368  0.58441  0.69600  1.0000
  H   H890      1.0  0.18394  0.90667  0.64020  1.0000
  H   H891      1.0  0.20562  0.49815  0.63849  1.0000
  C   C1105     1.0  0.06696  0.60430  0.70183  1.0000
  C   C1106     1.0  0.22379  0.50437  0.69053  1.0000
  C   C1107     1.0  0.35583  0.97485  0.61549  1.0000
  H   H892      1.0  0.34756  0.90210  0.60626  1.0000
  H   H893      1.0  0.19818  0.89646  0.72005  1.0000
  H   H894      1.0  0.27590  0.51006  0.57769  1.0000
  C   C1108     1.0  0.04999  0.59434  0.71290  1.0000
  C   C1109     1.0  0.02325  0.59074  0.71161  1.0000
  C   C1110     1.0  0.01304  0.59622  0.69914  1.0000
  C   C1111     1.0  0.02952  0.60518  0.68793  1.0000
  C   C1112     1.0  0.05636  0.60924  0.68923  1.0000
  C   C1113     1.0  0.42220  0.56897  0.69048  1.0000
  C   C1114     1.0  0.15897  0.87564  0.51581  1.0000
  H   H895      1.0  0.36645  0.94278  0.68441  1.0000
  C   C1115     1.0  0.06070  0.76749  0.49955  1.0000
  C   C1116     1.0  0.37525  0.94247  0.61199  1.0000
  H   H896      1.0  0.43939  0.62701  0.72693  1.0000
  H   H897      1.0  0.99243  0.59377  0.69820  1.0000
  H   H898      1.0  0.02162  0.60942  0.67823  1.0000
  H   H899      1.0  0.06861  0.61640  0.68038  1.0000
  C   C1117     1.0  0.12113  0.63843  0.69347  1.0000
  C   C1118     1.0  0.38624  0.88284  0.67901  1.0000
  H   H900      1.0  0.06337  0.50039  0.62138  1.0000
  H   H901      1.0  0.40265  0.56351  0.68541  1.0000
  C   C1119     1.0  0.34990  0.92248  0.60858  1.0000
  C   C1120     1.0  0.03013  0.50867  0.71668  1.0000
  H   H902      1.0  0.21003  0.92433  0.61949  1.0000
  H   H903      1.0  0.05988  0.94657  0.61575  1.0000
  C   C1121     1.0  0.11420  0.52037  0.61563  1.0000
  H   H904      1.0  0.05743  0.58999  0.72268  1.0000
  H   H905      1.0  0.25188  0.50883  0.67450  1.0000
  P   P38       1.0  0.10198  0.61073  0.70391  1.0000
  H   H906      1.0  0.06564  0.55707  0.69204  1.0000
  C   C1122     1.0  0.13718  0.65510  0.67080  1.0000
  H   H907      1.0  0.98367  0.68099  0.63738  1.0000
  H   H908      1.0  0.46604  0.76916  0.71308  1.0000
  C   C1123     1.0  0.44422  0.58899  0.68484  1.0000
  H   H909      1.0  0.33972  0.57843  0.70157  1.0000
  C   C1124     1.0  0.37825  0.96856  0.61549  1.0000
  C   C1125     1.0  0.02689  0.75202  0.51663  1.0000
  H   H910      1.0  0.21343  0.86170  0.72624  1.0000
  C   C1126     1.0  0.01510  0.50351  0.68805  1.0000
  C   C1127     1.0  0.18985  0.92317  0.61990  1.0000
  P   P39       1.0  0.13884  0.94148  0.59459  1.0000
  C   C1128     1.0  0.12576  0.60498  0.72936  1.0000
  H   H911      1.0  0.35319  0.86768  0.66374  1.0000
  C   C1129     1.0  0.11213  0.61816  0.72230  1.0000
  C   C1130     1.0  0.40964  0.98248  0.69948  1.0000
  C   C1131     1.0  0.03487  0.49034  0.70777  1.0000
  H   H912      1.0  0.13479  0.66855  0.71059  1.0000
  H   H913      1.0  0.00108  0.53423  0.69251  1.0000
  C   C1132     1.0  0.10744  0.58234  0.69706  1.0000
  H   H914      1.0  0.44642  0.95150  0.68055  1.0000
  H   H915      1.0  0.25121  0.94346  0.57472  1.0000
  C   C1133     1.0  0.07953  0.78282  0.51005  1.0000
  C   C1134     1.0  0.10896  0.78118  0.69348  1.0000
  C   C1135     1.0  0.12998  0.80273  0.68830  1.0000
  H   H916      1.0  0.11794  0.91934  0.62188  1.0000
  H   H917      1.0  0.19929  0.90999  0.69552  1.0000
  Fe  Fe79      1.0  0.98673  0.82624  0.54178  1.0000
  S   S160      1.0  0.98370  0.77565  0.49561  1.0000
  C   C1136     1.0  0.25708  0.95170  0.59710  1.0000
  C   C1137     1.0  0.24939  0.95566  0.58340  1.0000
  H   H918      1.0  0.26467  0.93659  0.59882  1.0000
  H   H919      1.0  0.38283  0.57548  0.70685  1.0000
  H   H920      1.0  0.14379  0.75246  0.70172  1.0000
  C   C1138     1.0  0.16938  0.92660  0.55844  1.0000
  C   C1139     1.0  0.45169  0.56136  0.70744  1.0000
  C   C1140     1.0  0.34055  0.55904  0.70200  1.0000
  C   C1141     1.0  0.46904  0.68134  0.69835  1.0000
  C   C1142     1.0  0.10745  0.53458  0.59270  1.0000
  H   H921      1.0  0.16082  0.70529  0.69604  1.0000
  H   H922      1.0  0.12617  0.57711  0.59007  1.0000
  H   H923      1.0  0.24935  0.51236  0.61917  1.0000
  C   C1143     1.0  0.05216  0.66328  0.72105  1.0000
  C   C1144     1.0  0.46989  0.70428  0.69203  1.0000
  C   C1145     1.0  0.13841  0.56323  0.68997  1.0000
  C   C1146     1.0  0.98802  0.65409  0.61198  1.0000
  C   C1147     1.0  0.24849  0.50130  0.60945  1.0000
  H   H924      1.0  0.16453  0.83907  0.69334  1.0000
  H   H925      1.0  0.43814  0.70258  0.71854  1.0000
  C   C1148     1.0  0.09130  0.96281  0.49977  1.0000
  H   H926      1.0  0.34289  0.48931  0.70317  1.0000
  C   C1149     1.0  0.04340  0.85320  0.48843  1.0000
  H   H927      1.0  0.29821  0.53694  0.69747  1.0000
  H   H928      1.0  0.11791  0.88556  0.58464  1.0000
  C   C1150     1.0  0.32745  0.92842  0.60891  1.0000
  C   C1151     1.0  0.05845  0.87743  0.48244  1.0000
  C   C1152     1.0  0.12620  0.79731  0.71726  1.0000
  C   C1153     1.0  0.42564  0.55572  0.70221  1.0000
  C   C1154     1.0  0.16448  0.93966  0.57008  1.0000
  C   C1155     1.0  0.12292  0.56121  0.59717  1.0000
  C   C1156     1.0  0.01767  0.52429  0.71107  1.0000
  H   H929      1.0  0.40406  0.85344  0.72661  1.0000
  S   S161      1.0  0.23264  0.98103  0.56299  1.0000
  C   C1157     1.0  0.35741  0.90521  0.67356  1.0000
  C   C1158     1.0  0.16719  0.86018  0.52455  1.0000
  H   H930      1.0  0.13762  0.65161  0.65963  1.0000
  H   H931      1.0  0.09201  0.91234  0.57491  1.0000
  H   H932      1.0  0.05151  0.64342  0.72141  1.0000
  C   C1159     1.0  0.15092  0.68083  0.67690  1.0000
  H   H933      1.0  0.24734  0.92674  0.72589  1.0000
  C   C1160     1.0  0.20545  0.89421  0.69818  1.0000
  C   C1161     1.0  0.27569  0.93049  0.71008  1.0000
  C   C1162     1.0  0.42294  0.86467  0.72214  1.0000
  H   H934      1.0  0.02350  0.84914  0.49183  1.0000
  C   C1163     1.0  0.15004  0.68540  0.69128  1.0000
  C   C1164     1.0  0.15570  0.89898  0.55619  1.0000
  H   H935      1.0  0.26327  0.93284  0.70171  1.0000
  C   C1165     1.0  0.15273  0.93067  0.60931  1.0000
  H   H936      1.0  0.13730  0.55171  0.63083  1.0000
  H   H937      1.0  0.15945  0.88918  0.54705  1.0000
  C   C1166     1.0  0.01037  0.52185  0.69680  1.0000
  C   C1167     1.0  0.44732  0.95675  0.70318  1.0000
  H   H938      1.0  0.12750  0.86271  0.56423  1.0000
  C   C1168     1.0  0.23577  0.82401  0.72785  1.0000
  H   H939      1.0  0.27631  0.87761  0.70203  1.0000
  C   C1169     1.0  0.10287  0.51393  0.60193  1.0000
  C   C1170     1.0  0.36621  0.53220  0.70503  1.0000
  C   C1171     1.0  0.00671  0.62356  0.61989  1.0000
  C   C1172     1.0  0.13806  0.92079  0.62116  1.0000
  H   H940      1.0  0.17844  0.79035  0.71545  1.0000
  H   H941      1.0  0.44140  0.59919  0.67582  1.0000
  H   H942      1.0  0.30017  0.49256  0.69862  1.0000
  H   H943      1.0  0.04631  0.49036  0.57661  1.0000
  H   H944      1.0  0.18400  0.93794  0.55118  1.0000
  H   H945      1.0  0.06640  0.76758  0.48882  1.0000
  H   H946      1.0  0.10800  0.95684  0.61465  1.0000
  C   C1173     1.0  0.05815  0.91313  0.58494  1.0000
  C   C1174     1.0  0.10352  0.93371  0.59525  1.0000
  C   C1175     1.0  0.36497  0.55730  0.70483  1.0000
  P   P40       1.0  0.39723  0.52959  0.70949  1.0000
  C   C1176     1.0  0.20481  0.88656  0.71197  1.0000
  C   C1177     1.0  0.26664  0.92691  0.72381  1.0000
  H   H947      1.0  0.13793  0.90463  0.64140  1.0000
  C   C1178     1.0  0.17868  0.93162  0.60875  1.0000
  C   C1179     1.0  0.13228  0.89720  0.57736  1.0000
  C   C1180     1.0  0.05384  0.83400  0.48996  1.0000
  C   C1181     1.0  0.14655  0.81963  0.71192  1.0000
  H   H948      1.0  0.39153  0.69201  0.71025  1.0000
  H   H949      1.0  0.17589  0.96101  0.57177  1.0000
  H   H950      1.0  0.14238  0.93934  0.49379  1.0000
  C   C1182     1.0  0.13748  0.88420  0.56577  1.0000
  C   C1183     1.0  0.31821  0.51072  0.70029  1.0000
  C   C1184     1.0  0.17514  0.91332  0.63162  1.0000
  C   C1185     1.0  0.24194  0.49747  0.68327  1.0000
  H   H951      1.0  0.45548  0.96321  0.72551  1.0000
  H   H952      1.0  0.35391  0.65573  0.72081  1.0000
  C   C1186     1.0  0.39549  0.68045  0.71829  1.0000
  C   C1187     1.0  0.42176  0.68633  0.72292  1.0000
  H   H953      1.0  0.08839  0.96253  0.51092  1.0000
  C   C1188     1.0  0.37431  0.65993  0.72419  1.0000
  C   C1189     1.0  0.08537  0.91897  0.58422  1.0000
  H   H954      1.0  0.09457  0.64688  0.72472  1.0000
  H   H955      1.0  0.08719  0.54020  0.71931  1.0000
  C   C1190     1.0  0.07937  0.83899  0.48547  1.0000
  C   C1191     1.0  0.15252  0.93412  0.48547  1.0000
  H   H956      1.0  0.11674  0.69899  0.72898  1.0000
  H   H957      1.0  0.04418  0.90145  0.57649  1.0000
  C   C1192     1.0  0.18000  0.94129  0.48729  1.0000
  Fe  Fe80      1.0  0.98042  0.76980  0.54896  1.0000
  H   H958      1.0  0.12802  0.97819  0.57668  1.0000
  H   H959      1.0  0.02000  0.48631  0.63175  1.0000
  C   C1193     1.0  0.39862  0.52939  0.72836  1.0000
  C   C1194     1.0  0.15492  0.97738  0.59353  1.0000
  C   C1195     1.0  0.02721  0.48767  0.69355  1.0000
  C   C1196     1.0  0.11802  0.52855  0.72676  1.0000
  H   H960      1.0  0.13733  0.48768  0.60393  1.0000
  H   H961      1.0  0.13063  0.59000  0.72401  1.0000
  C   C1197     1.0  0.21034  0.48906  0.70151  1.0000
  H   H962      1.0  0.08070  0.80369  0.72414  1.0000
  H   H963      1.0  0.98599  0.76068  0.58840  1.0000
  H   H964      1.0  0.36404  0.49161  0.72885  1.0000
  H   H965      1.0  0.41645  0.98353  0.72957  1.0000
  H   H966      1.0  0.39801  0.98355  0.61845  1.0000
  C   C1198     1.0  0.18112  0.89735  0.81983  1.0000
  S   S162      1.0  0.02247  0.76678  0.87407  1.0000
  C   C1199     1.0  0.98558  0.70779  0.91976  1.0000
  C   C1200     1.0  0.00493  0.71076  0.89296  1.0000
  S   S163      1.0  0.02075  0.87484  0.91110  1.0000
  S   S164      1.0  0.02050  0.80403  0.90770  1.0000
  C   C1201     1.0  0.37252  0.58385  0.74128  1.0000
  H   H967      1.0  0.43247  0.56646  0.75761  1.0000
  S   S165      1.0  0.12770  0.94775  0.88294  1.0000
  Fe  Fe81      1.0  0.28565  0.93054  0.80569  1.0000
  S   S166      1.0  0.30863  0.90573  0.81149  1.0000
  S   S167      1.0  0.26108  0.94661  0.82003  1.0000
  Fe  Fe82      1.0  0.28739  0.91667  0.77349  1.0000
  S   S168      1.0  0.30938  0.89070  0.77769  1.0000
  S   S169      1.0  0.26898  0.91862  0.75187  1.0000
  Fe  Fe83      1.0  0.28155  0.87522  0.79520  1.0000
  S   S170      1.0  0.26105  0.83097  0.79934  1.0000
  Fe  Fe84      1.0  0.33489  0.92344  0.79336  1.0000
  S   S171      1.0  0.38065  0.94065  0.79105  1.0000
  S   S172      1.0  0.25787  0.89886  0.79009  1.0000
  S   S173      1.0  0.31361  0.95052  0.78846  1.0000
  Fe  Fe85      1.0  0.06334  0.68001  0.77166  1.0000
  S   S174      1.0  0.10560  0.68696  0.77757  1.0000
  S   S175      1.0  0.04985  0.66084  0.74959  1.0000
  Fe  Fe86      1.0  0.05443  0.69832  0.80181  1.0000
  S   S176      1.0  0.09611  0.70538  0.80928  1.0000
  S   S177      1.0  0.02511  0.71030  0.81425  1.0000
  Fe  Fe87      1.0  0.10878  0.72481  0.78884  1.0000
  S   S178      1.0  0.13674  0.76746  0.78460  1.0000
  Fe  Fe88      1.0  0.08872  0.66622  0.79719  1.0000
  S   S179      1.0  0.10324  0.63471  0.80463  1.0000
  S   S180      1.0  0.06734  0.71907  0.78171  1.0000
  S   S181      1.0  0.04611  0.65784  0.79099  1.0000
  S   S182      1.0  0.04872  0.50658  0.79493  1.0000
  C   C1202     1.0  0.45291  0.58658  0.79813  1.0000
  C   C1203     1.0  0.43485  0.59743  0.80203  1.0000
  C   C1204     1.0  0.40771  0.58049  0.80367  1.0000
  C   C1205     1.0  0.39802  0.55252  0.80121  1.0000
  C   C1206     1.0  0.41595  0.54175  0.79700  1.0000
  C   C1207     1.0  0.44315  0.55865  0.79551  1.0000
  H   H968      1.0  0.44190  0.61880  0.80412  1.0000
  H   H969      1.0  0.39415  0.58912  0.80703  1.0000
  H   H970      1.0  0.40899  0.52033  0.79518  1.0000
  C   C1208     1.0  0.25524  0.84440  0.75069  1.0000
  H   H971      1.0  0.04936  0.75287  0.76661  1.0000
  C   C1209     1.0  0.02143  0.72688  0.90403  1.0000
  C   C1210     1.0  0.08818  0.59921  0.80111  1.0000
  C   C1211     1.0  0.06245  0.58593  0.79487  1.0000
  C   C1212     1.0  0.05093  0.55771  0.79288  1.0000
  C   C1213     1.0  0.06497  0.54230  0.79694  1.0000
  C   C1214     1.0  0.09091  0.55562  0.80289  1.0000
  C   C1215     1.0  0.10232  0.58382  0.80502  1.0000
  H   H972      1.0  0.05123  0.59734  0.79181  1.0000
  H   H973      1.0  0.03089  0.54774  0.78824  1.0000
  H   H974      1.0  0.10201  0.54418  0.80610  1.0000
  H   H975      1.0  0.12221  0.59376  0.80985  1.0000
  H   H976      1.0  0.03479  0.79209  0.73134  1.0000
  H   H977      1.0  0.25482  0.86208  0.85045  1.0000
  H   H978      1.0  0.45683  0.54994  0.79249  1.0000
  C   C1216     1.0  0.97942  0.66932  0.84076  1.0000
  H   H979      1.0  0.39909  0.52797  0.76893  1.0000
  C   C1217     1.0  0.22640  0.81329  0.79534  1.0000
  C   C1218     1.0  0.21288  0.78737  0.80007  1.0000
  C   C1219     1.0  0.18531  0.77285  0.79692  1.0000
  C   C1220     1.0  0.17122  0.78425  0.78897  1.0000
  C   C1221     1.0  0.18476  0.81004  0.78421  1.0000
  C   C1222     1.0  0.21219  0.82446  0.78732  1.0000
  H   H980      1.0  0.22378  0.77854  0.80621  1.0000
  H   H981      1.0  0.17502  0.75297  0.80065  1.0000
  H   H982      1.0  0.17397  0.81883  0.77796  1.0000
  H   H983      1.0  0.22237  0.84411  0.78337  1.0000
  C   C1223     1.0  0.40640  0.92933  0.79493  1.0000
  C   C1224     1.0  0.43266  0.94476  0.79105  1.0000
  C   C1225     1.0  0.45367  0.93661  0.79381  1.0000
  C   C1226     1.0  0.44878  0.91286  0.80053  1.0000
  C   C1227     1.0  0.42252  0.89739  0.80432  1.0000
  C   C1228     1.0  0.40150  0.90549  0.80155  1.0000
  H   H984      1.0  0.43680  0.96322  0.78591  1.0000
  H   H985      1.0  0.22947  0.52146  0.75383  1.0000
  H   H986      1.0  0.41839  0.87901  0.80955  1.0000
  H   H987      1.0  0.38153  0.89334  0.80462  1.0000
  H   H988      1.0  0.22189  0.96346  0.83152  1.0000
  C   C1229     1.0  0.41740  0.55085  0.73662  1.0000
  C   C1230     1.0  0.01035  0.66109  0.85644  1.0000
  C   C1231     1.0  0.21410  0.48953  0.73787  1.0000
  C   C1232     1.0  0.25963  0.96183  0.83686  1.0000
  C   C1233     1.0  0.11291  0.79796  0.84141  1.0000
  H   H989      1.0  0.01307  0.66213  0.83403  1.0000
  S   S183      1.0  0.19351  0.97695  0.90497  1.0000
  H   H990      1.0  0.05991  0.82247  0.86926  1.0000
  H   H991      1.0  0.22003  0.77740  0.75270  1.0000
  H   H992      1.0  0.05020  0.71286  0.74253  1.0000
  C   C1234     1.0  0.05104  0.89440  0.90352  1.0000
  C   C1235     1.0  0.06572  0.92083  0.90874  1.0000
  C   C1236     1.0  0.08963  0.93724  0.90276  1.0000
  C   C1237     1.0  0.09869  0.92745  0.89130  1.0000
  C   C1238     1.0  0.08404  0.90100  0.88607  1.0000
  C   C1239     1.0  0.06045  0.88440  0.89226  1.0000
  H   H993      1.0  0.05834  0.92872  0.91731  1.0000
  H   H994      1.0  0.10069  0.95764  0.90676  1.0000
  H   H995      1.0  0.09090  0.89332  0.87719  1.0000
  H   H996      1.0  0.04923  0.86410  0.88813  1.0000
  C   C1240     1.0  0.02592  0.72734  0.83073  1.0000
  C   C1241     1.0  0.04527  0.73133  0.84148  1.0000
  C   C1242     1.0  0.04396  0.74355  0.85455  1.0000
  C   C1243     1.0  0.02339  0.75210  0.85713  1.0000
  C   C1244     1.0  0.00446  0.74869  0.84625  1.0000
  C   C1245     1.0  0.00560  0.73623  0.83326  1.0000
  H   H997      1.0  0.06105  0.72468  0.83978  1.0000
  H   H998      1.0  0.05891  0.74619  0.86276  1.0000
  C   C1246     1.0  0.01565  0.54391  0.74507  1.0000
  H   H999      1.0  0.05387  0.84068  0.84673  1.0000
  C   C1247     1.0  0.13664  0.97335  0.83716  1.0000
  H   H1000     1.0  0.24400  0.48429  0.80352  1.0000
  H   H1001     1.0  0.36867  0.92440  0.75706  1.0000
  Fe  Fe89      1.0  0.98662  0.78005  0.92089  1.0000
  C   C1248     1.0  0.19858  0.89595  0.85293  1.0000
  C   C1249     1.0  0.40582  0.65011  0.73887  1.0000
  C   C1250     1.0  0.06336  0.56112  0.75024  1.0000
  C   C1251     1.0  0.37972  0.50745  0.74952  1.0000
  C   C1252     1.0  0.05127  0.70233  0.73299  1.0000
  H   H1002     1.0  0.36524  0.51028  0.83165  1.0000
  C   C1253     1.0  0.10149  0.77722  0.81379  1.0000
  C   C1254     1.0  0.15837  0.94449  0.83025  1.0000
  C   C1255     1.0  0.03838  0.58630  0.75812  1.0000
  H   H1003     1.0  0.11974  0.84776  0.82435  1.0000
  C   C1256     1.0  0.12705  0.71790  0.73485  1.0000
  C   C1257     1.0  0.45738  0.62268  0.76087  1.0000
  H   H1004     1.0  0.26692  0.86211  0.75722  1.0000
  C   C1258     1.0  0.07408  0.79219  0.73331  1.0000
  C   C1259     1.0  0.05027  0.52483  0.89123  1.0000
  C   C1260     1.0  0.27967  0.96811  0.84750  1.0000
  C   C1261     1.0  0.07381  0.84641  0.85140  1.0000
  H   H1005     1.0  0.44587  0.86698  0.77766  1.0000
  H   H1006     1.0  0.17595  0.82251  0.81724  1.0000
  H   H1007     1.0  0.08012  0.59796  0.76297  1.0000
  H   H1008     1.0  0.11501  0.91770  0.85590  1.0000
  H   H1009     1.0  0.14456  0.86781  0.86890  1.0000
  C   C1262     1.0  0.19256  0.83141  0.82481  1.0000
  C   C1263     1.0  0.22450  0.92327  0.87299  1.0000
  C   C1264     1.0  0.13379  0.76431  0.73943  1.0000
  C   C1265     1.0  0.21201  0.50459  0.74950  1.0000
  C   C1266     1.0  0.18257  0.92497  0.86573  1.0000
  C   C1267     1.0  0.14473  0.71995  0.74607  1.0000
  H   H1010     1.0  0.98880  0.75554  0.84784  1.0000
  H   H1011     1.0  0.13256  0.49763  0.83957  1.0000
  Fe  Fe90      1.0  0.99899  0.83061  0.90501  1.0000
  H   H1012     1.0  0.17296  0.94148  0.82398  1.0000
  H   H1013     1.0  0.45836  0.67751  0.76465  1.0000
  C   C1268     1.0  0.47374  0.62041  0.73369  1.0000
  C   C1269     1.0  0.00790  0.84244  0.95342  1.0000
  H   H1014     1.0  0.09281  0.53633  0.89262  1.0000
  H   H1015     1.0  0.02785  0.65686  0.85805  1.0000
  C   C1270     1.0  0.17406  0.93452  0.95859  1.0000
  C   C1271     1.0  0.14863  0.91382  0.95962  1.0000
  H   H1016     1.0  0.03787  0.60374  0.76362  1.0000
  P   P41       1.0  0.12635  0.90128  0.94429  1.0000
  C   C1272     1.0  0.11060  0.92429  0.94248  1.0000
  C   C1273     1.0  0.14453  0.90068  0.92902  1.0000
  C   C1274     1.0  0.13466  0.90345  0.91576  1.0000
  C   C1275     1.0  0.14832  0.90233  0.90384  1.0000
  C   C1276     1.0  0.17180  0.89822  0.90508  1.0000
  C   C1277     1.0  0.18148  0.89492  0.91822  1.0000
  C   C1278     1.0  0.16777  0.89587  0.93015  1.0000
  C   C1279     1.0  0.08488  0.91834  0.94714  1.0000
  C   C1280     1.0  0.07401  0.93743  0.94663  1.0000
  C   C1281     1.0  0.36699  0.49125  0.83091  1.0000
  C   C1282     1.0  0.39330  0.95604  0.74442  1.0000
  C   C1283     1.0  0.12534  0.94969  0.93752  1.0000
  C   C1284     1.0  0.10363  0.86682  0.94586  1.0000
  C   C1285     1.0  0.11214  0.84952  0.95308  1.0000
  C   C1286     1.0  0.09486  0.82267  0.95418  1.0000
  C   C1287     1.0  0.06905  0.81288  0.94805  1.0000
  C   C1288     1.0  0.06083  0.82972  0.94044  1.0000
  C   C1289     1.0  0.07819  0.85643  0.93905  1.0000
  C   C1290     1.0  0.97866  0.69288  0.89521  1.0000
  H   H1017     1.0  0.37737  0.59233  0.73118  1.0000
  C   C1291     1.0  0.39084  0.49026  0.82688  1.0000
  H   H1018     1.0  0.18076  0.94304  0.94863  1.0000
  P   P42       1.0  0.12495  0.79213  0.73585  1.0000
  H   H1019     1.0  0.11639  0.90646  0.91462  1.0000
  H   H1020     1.0  0.14083  0.90498  0.89366  1.0000
  H   H1021     1.0  0.18252  0.89773  0.89586  1.0000
  H   H1022     1.0  0.19974  0.89182  0.91916  1.0000
  H   H1023     1.0  0.17538  0.89296  0.94023  1.0000
  H   H1024     1.0  0.07321  0.89915  0.95127  1.0000
  H   H1025     1.0  0.05395  0.93255  0.94991  1.0000
  H   H1026     1.0  0.36486  0.49086  0.75454  1.0000
  C   C1292     1.0  0.07365  0.51273  0.73592  1.0000
  H   H1027     1.0  0.14536  0.95489  0.93403  1.0000
  C   C1293     1.0  0.41781  0.55013  0.75121  1.0000
  H   H1028     1.0  0.47371  0.94888  0.79091  1.0000
  H   H1029     1.0  0.05550  0.79211  0.94895  1.0000
  H   H1030     1.0  0.04100  0.82192  0.93546  1.0000
  H   H1031     1.0  0.07170  0.86875  0.93256  1.0000
  C   C1294     1.0  0.14608  0.71480  0.83436  1.0000
  C   C1295     1.0  0.17068  0.71562  0.83043  1.0000
  C   C1296     1.0  0.19295  0.74008  0.83068  1.0000
  C   C1297     1.0  0.19063  0.76376  0.83481  1.0000
  C   C1298     1.0  0.16586  0.76315  0.83863  1.0000
  C   C1299     1.0  0.14360  0.73845  0.83838  1.0000
  P   P43       1.0  0.16216  0.79368  0.84339  1.0000
  C   C1300     1.0  0.15925  0.79725  0.86201  1.0000
  C   C1301     1.0  0.15125  0.77501  0.87037  1.0000
  C   C1302     1.0  0.14816  0.77807  0.88468  1.0000
  C   C1303     1.0  0.15304  0.80332  0.89072  1.0000
  C   C1304     1.0  0.16108  0.82557  0.88248  1.0000
  C   C1305     1.0  0.16411  0.82255  0.86818  1.0000
  C   C1306     1.0  0.22122  0.90457  0.86204  1.0000
  C   C1307     1.0  0.19136  0.82176  0.83826  1.0000
  C   C1308     1.0  0.23726  0.85374  0.84341  1.0000
  H   H1032     1.0  0.07321  0.79706  0.84039  1.0000
  H   H1033     1.0  0.12876  0.69581  0.83396  1.0000
  H   H1034     1.0  0.17235  0.69730  0.82701  1.0000
  H   H1035     1.0  0.21198  0.74076  0.82746  1.0000
  H   H1036     1.0  0.20812  0.78244  0.83465  1.0000
  H   H1037     1.0  0.12418  0.73750  0.84104  1.0000
  H   H1038     1.0  0.14723  0.75527  0.86592  1.0000
  H   H1039     1.0  0.14184  0.76080  0.89106  1.0000
  H   H1040     1.0  0.15051  0.80561  0.90179  1.0000
  H   H1041     1.0  0.16482  0.84512  0.88717  1.0000
  H   H1042     1.0  0.17001  0.83990  0.86187  1.0000
  H   H1043     1.0  0.11637  0.80525  0.85221  1.0000
  H   H1044     1.0  0.13172  0.63396  0.76207  1.0000
  H   H1045     1.0  0.17139  0.85731  0.79048  1.0000
  C   C1309     1.0  0.01181  0.72532  0.91744  1.0000
  H   H1046     1.0  0.29696  0.96388  0.84569  1.0000
  C   C1310     1.0  0.36075  0.56035  0.76705  1.0000
  C   C1311     1.0  0.38113  0.58594  0.76633  1.0000
  C   C1312     1.0  0.38634  0.59838  0.75351  1.0000
  C   C1313     1.0  0.12505  0.51324  0.73615  1.0000
  P   P44       1.0  0.41267  0.63140  0.75247  1.0000
  C   C1314     1.0  0.36877  0.83198  0.75818  1.0000
  C   C1315     1.0  0.41703  0.65221  0.76813  1.0000
  C   C1316     1.0  0.39557  0.64850  0.77667  1.0000
  C   C1317     1.0  0.39930  0.66517  0.78866  1.0000
  C   C1318     1.0  0.42423  0.68602  0.79198  1.0000
  C   C1319     1.0  0.44530  0.69040  0.78322  1.0000
  C   C1320     1.0  0.44174  0.67366  0.77132  1.0000
  H   H1047     1.0  0.00237  0.90198  0.95372  1.0000
  C   C1321     1.0  0.10656  0.49789  0.74549  1.0000
  C   C1322     1.0  0.46387  0.96479  0.75501  1.0000
  H   H1048     1.0  0.03212  0.50330  0.76476  1.0000
  C   C1323     1.0  0.13666  0.83799  0.75340  1.0000
  C   C1324     1.0  0.44266  0.62643  0.74952  1.0000
  C   C1325     1.0  0.01984  0.84444  0.96676  1.0000
  C   C1326     1.0  0.12574  0.93114  0.84803  1.0000
  C   C1327     1.0  0.27755  0.98015  0.86051  1.0000
  H   H1049     1.0  0.21036  0.49119  0.81806  1.0000
  H   H1050     1.0  0.09306  0.87227  0.83503  1.0000
  H   H1051     1.0  0.09677  0.76860  0.80320  1.0000
  C   C1328     1.0  0.19102  0.94479  0.97052  1.0000
  H   H1052     1.0  0.35651  0.55097  0.77700  1.0000
  H   H1053     1.0  0.39276  0.59585  0.77579  1.0000
  C   C1329     1.0  0.12652  0.62972  0.75096  1.0000
  H   H1054     1.0  0.37598  0.63283  0.77412  1.0000
  H   H1055     1.0  0.38288  0.66193  0.79540  1.0000
  C   C1330     1.0  0.13823  0.85947  0.81962  1.0000
  C   C1331     1.0  0.14391  0.92570  0.83983  1.0000
  H   H1056     1.0  0.00746  0.50847  0.88790  1.0000
  H   H1057     1.0  0.02433  0.73838  0.92594  1.0000
  H   H1058     1.0  0.09118  0.49908  0.87698  1.0000
  H   H1059     1.0  0.14340  0.60057  0.74904  1.0000
  H   H1060     1.0  0.10873  0.95910  0.85345  1.0000
  C   C1332     1.0  0.22861  0.79673  0.74811  1.0000
  C   C1333     1.0  0.46177  0.91955  0.75450  1.0000
  C   C1334     1.0  0.05169  0.67702  0.73361  1.0000
  C   C1335     1.0  0.16723  0.86468  0.80034  1.0000
  H   H1061     1.0  0.16009  0.78386  0.75753  1.0000
  H   H1062     1.0  0.14471  0.51301  0.73613  1.0000
  H   H1063     1.0  0.10522  0.83611  0.88027  1.0000
  S   S184      1.0  0.99858  0.76803  0.94186  1.0000
  C   C1336     1.0  0.23743  0.96780  0.83960  1.0000
  C   C1337     1.0  0.15382  0.86146  0.76084  1.0000
  P   P45       1.0  0.44426  0.88445  0.74937  1.0000
  C   C1338     1.0  0.46071  0.86513  0.75711  1.0000
  C   C1339     1.0  0.42694  0.67136  0.73323  1.0000
  C   C1340     1.0  0.45051  0.93758  0.75109  1.0000
  C   C1341     1.0  0.46931  0.84374  0.77739  1.0000
  H   H1064     1.0  0.44743  0.67650  0.73686  1.0000
  H   H1065     1.0  0.33058  0.52665  0.75546  1.0000
  H   H1066     1.0  0.08044  0.97743  0.94120  1.0000
  C   C1342     1.0  0.37748  0.92940  0.74698  1.0000
  C   C1343     1.0  0.37292  0.90934  0.73655  1.0000
  H   H1067     1.0  0.12918  0.83149  0.80180  1.0000
  H   H1068     1.0  0.13222  0.85666  0.95772  1.0000
  C   C1344     1.0  0.45737  0.85924  0.77125  1.0000
  C   C1345     1.0  0.41060  0.87067  0.75555  1.0000
  H   H1069     1.0  0.11978  0.88997  0.97406  1.0000
  H   H1070     1.0  0.39662  0.97149  0.75254  1.0000
  C   C1346     1.0  0.35904  0.84792  0.76588  1.0000
  C   C1347     1.0  0.37522  0.87496  0.76877  1.0000
  C   C1348     1.0  0.40099  0.88624  0.76382  1.0000
  H   H1071     1.0  0.01899  0.76661  0.75258  1.0000
  C   C1349     1.0  0.12504  0.86163  0.86374  1.0000
  P   P46       1.0  0.04030  0.51169  0.73506  1.0000
  H   H1072     1.0  0.43122  0.93044  0.74558  1.0000
  H   H1073     1.0  0.02292  0.90561  0.97752  1.0000
  H   H1074     1.0  0.05111  0.54125  0.89815  1.0000
  H   H1075     1.0  0.20802  0.94828  0.88314  1.0000
  H   H1076     1.0  0.01987  0.50151  0.82436  1.0000
  S   S185      1.0  0.47455  0.90180  0.80476  1.0000
  H   H1077     1.0  0.19651  0.88148  0.84451  1.0000
  H   H1078     1.0  0.00294  0.82450  0.94678  1.0000
  H   H1079     1.0  0.10638  0.65628  0.74987  1.0000
  H   H1080     1.0  0.40209  0.83039  0.74765  1.0000
  H   H1081     1.0  0.33922  0.83926  0.76993  1.0000
  H   H1082     1.0  0.36800  0.88714  0.77515  1.0000
  H   H1083     1.0  0.41332  0.90687  0.76688  1.0000
  C   C1350     1.0  0.14345  0.85015  0.80676  1.0000
  C   C1351     1.0  0.13197  0.79184  0.83434  1.0000
  H   H1084     1.0  0.02341  0.82756  0.97026  1.0000
  C   C1352     1.0  0.13303  0.61088  0.74361  1.0000
  H   H1085     1.0  0.16634  0.98274  0.82170  1.0000
  C   C1353     1.0  0.21406  0.83286  0.84747  1.0000
  H   H1086     1.0  0.35650  0.81081  0.75632  1.0000
  H   H1087     1.0  0.40742  0.50859  0.82444  1.0000
  C   C1354     1.0  0.14706  0.82241  0.74569  1.0000
  C   C1355     1.0  0.17492  0.83078  0.74563  1.0000
  C   C1356     1.0  0.19198  0.85422  0.75313  1.0000
  C   C1357     1.0  0.18147  0.86960  0.76067  1.0000
  C   C1358     1.0  0.08888  0.96269  0.94170  1.0000
  H   H1088     1.0  0.19651  0.91518  0.82491  1.0000
  H   H1089     1.0  0.08836  0.49426  0.84642  1.0000
  H   H1090     1.0  0.21070  0.96057  0.96963  1.0000
  H   H1091     1.0  0.32042  0.92356  0.74067  1.0000
  C   C1359     1.0  0.15690  0.74402  0.75401  1.0000
  C   C1360     1.0  0.15141  0.76603  0.75075  1.0000
  C   C1361     1.0  0.11459  0.96884  0.93723  1.0000
  C   C1362     1.0  0.08226  0.76966  0.75311  1.0000
  H   H1092     1.0  0.21410  0.82504  0.85769  1.0000
  H   H1093     1.0  0.06315  0.77864  0.81593  1.0000
  H   H1094     1.0  0.20479  0.89941  0.80209  1.0000
  C   C1363     1.0  0.09603  0.86414  0.84478  1.0000
  H   H1095     1.0  0.00311  0.66190  0.87830  1.0000
  H   H1096     1.0  0.18344  0.81910  0.73984  1.0000
  H   H1097     1.0  0.21346  0.86067  0.75314  1.0000
  H   H1098     1.0  0.19485  0.88779  0.76643  1.0000
  C   C1364     1.0  0.00743  0.88604  0.95738  1.0000
  C   C1365     1.0  0.07719  0.83615  0.86411  1.0000
  C   C1366     1.0  0.03999  0.54141  0.74376  1.0000
  C   C1367     1.0  0.23522  0.97968  0.85263  1.0000
  C   C1368     1.0  0.18600  0.88832  0.80686  1.0000
  C   C1369     1.0  0.04807  0.78589  0.73743  1.0000
  C   C1370     1.0  0.12604  0.78150  0.82045  1.0000
  H   H1099     1.0  0.09530  0.76335  0.75937  1.0000
  C   C1371     1.0  0.39453  0.84322  0.75318  1.0000
  H   H1100     1.0  0.99716  0.52828  0.74081  1.0000
  H   H1101     1.0  0.46453  0.70669  0.78571  1.0000
  C   C1372     1.0  0.01496  0.56652  0.75198  1.0000
  C   C1373     1.0  0.11242  0.64242  0.74410  1.0000
  H   H1102     1.0  0.36046  0.88872  0.73856  1.0000
  C   C1374     1.0  0.01924  0.88808  0.97077  1.0000
  C   C1375     1.0  0.15690  0.88339  0.82621  1.0000
  H   H1103     1.0  0.04131  0.74135  0.90206  1.0000
  P   P47       1.0  0.15030  0.89622  0.84271  1.0000
  C   C1376     1.0  0.18768  0.49721  0.75593  1.0000
  C   C1377     1.0  0.45079  0.62492  0.73588  1.0000
  C   C1378     1.0  0.03917  0.77159  0.74939  1.0000
  C   C1379     1.0  0.21584  0.85231  0.82082  1.0000
  C   C1380     1.0  0.06240  0.58330  0.75749  1.0000
  C   C1381     1.0  0.20504  0.93321  0.87490  1.0000
  C   C1382     1.0  0.23805  0.86363  0.83012  1.0000
  C   C1383     1.0  0.34618  0.54659  0.75492  1.0000
  C   C1384     1.0  0.24385  0.81948  0.75656  1.0000
  C   C1385     1.0  0.00194  0.66383  0.84290  1.0000
  C   C1386     1.0  0.13985  0.90480  0.97287  1.0000
  C   C1387     1.0  0.10278  0.84378  0.87029  1.0000
  C   C1388     1.0  0.37935  0.50800  0.73496  1.0000
  C   C1389     1.0  0.09121  0.78369  0.74099  1.0000
  C   C1390     1.0  0.07376  0.52206  0.88811  1.0000
  H   H1104     1.0  0.24255  0.93087  0.87971  1.0000
  C   C1391     1.0  0.05632  0.76372  0.75728  1.0000
  C   C1392     1.0  0.08833  0.79350  0.83472  1.0000
  H   H1105     1.0  0.21706  0.85940  0.81037  1.0000
  H   H1106     1.0  0.14568  0.87334  0.76678  1.0000
  S   S186      1.0  0.36382  0.53206  0.80427  1.0000
  C   C1393     1.0  0.17944  0.90668  0.85449  1.0000
  C   C1394     1.0  0.12187  0.87179  0.85086  1.0000
  Fe  Fe91      1.0  0.99630  0.77992  0.88866  1.0000
  C   C1395     1.0  0.39905  0.52839  0.75764  1.0000
  H   H1107     1.0  0.16803  0.93340  0.86730  1.0000
  H   H1108     1.0  0.24714  0.81781  0.76764  1.0000
  H   H1109     1.0  0.01242  0.71323  0.88255  1.0000
  H   H1110     1.0  0.99325  0.86186  0.93818  1.0000
  H   H1111     1.0  0.42731  0.69889  0.80131  1.0000
  H   H1112     1.0  0.16971  0.74538  0.76312  1.0000
  H   H1113     1.0  0.18628  0.50832  0.76523  1.0000
  C   C1396     1.0  0.00211  0.86337  0.94864  1.0000
  H   H1114     1.0  0.08219  0.55916  0.75009  1.0000
  C   C1397     1.0  0.35232  0.55815  0.74201  1.0000
  H   H1115     1.0  0.36274  0.62973  0.73931  1.0000
  H   H1116     1.0  0.01717  0.76654  0.97019  1.0000
  H   H1117     1.0  0.23671  0.89748  0.86036  1.0000
  C   C1398     1.0  0.99867  0.76909  0.97070  1.0000
  H   H1118     1.0  0.45126  0.62323  0.77149  1.0000
  H   H1119     1.0  0.26089  0.86614  0.73203  1.0000
  H   H1120     1.0  0.45466  0.97845  0.75278  1.0000
  C   C1399     1.0  0.08259  0.78306  0.82094  1.0000
  H   H1121     1.0  0.14005  0.77594  0.81489  1.0000
  H   H1122     1.0  0.25603  0.87973  0.82689  1.0000
  H   H1123     1.0  0.47049  0.77437  0.76240  1.0000
  C   C1400     1.0  0.25147  0.84665  0.73640  1.0000
  C   C1401     1.0  0.99640  0.66415  0.86788  1.0000
  C   C1402     1.0  0.98531  0.77089  0.95823  1.0000
  C   C1403     1.0  0.22484  0.79886  0.73376  1.0000
  Fe  Fe92      1.0  0.33485  0.48891  0.79729  1.0000
  C   C1404     1.0  0.08091  0.49749  0.74536  1.0000
  C   C1405     1.0  0.12214  0.95481  0.84669  1.0000
  H   H1124     1.0  0.03813  0.49880  0.84779  1.0000
  C   C1406     1.0  0.37942  0.64500  0.73457  1.0000
  H   H1125     1.0  0.10152  0.80936  0.95969  1.0000
  H   H1126     1.0  0.14839  0.70271  0.74890  1.0000
  C   C1407     1.0  0.30792  0.92556  0.73222  1.0000
  H   H1127     1.0  0.99622  0.56857  0.75283  1.0000
  C   C1408     1.0  0.15469  0.96815  0.82892  1.0000
  C   C1409     1.0  0.02569  0.50639  0.88546  1.0000
  H   H1128     1.0  0.23329  0.49499  0.73327  1.0000
  H   H1129     1.0  0.11515  0.95326  0.97856  1.0000
  H   H1130     1.0  0.11535  0.83214  0.75374  1.0000
  C   C1410     1.0  0.28250  0.92425  0.73496  1.0000
  H   H1131     1.0  0.34155  0.54696  0.73260  1.0000
  H   H1132     1.0  0.99049  0.73335  0.82509  1.0000
  C   C1411     1.0  0.07275  0.50092  0.87916  1.0000
  H   H1133     1.0  0.07332  0.84710  0.97873  1.0000
  C   C1412     1.0  0.02633  0.86766  0.97542  1.0000
  C   C1413     1.0  0.12161  0.73992  0.73155  1.0000
  H   H1134     1.0  0.07184  0.91472  0.97491  1.0000
  C   C1414     1.0  0.01855  0.48534  0.75892  1.0000
  H   H1135     1.0  0.43159  0.56817  0.73190  1.0000
  H   H1136     1.0  0.46712  0.83990  0.78841  1.0000
  C   C1415     1.0  0.40447  0.96272  0.73141  1.0000
  C   C1416     1.0  0.02461  0.48524  0.87650  1.0000
  H   H1137     1.0  0.97789  0.70753  0.93007  1.0000
  H   H1138     1.0  0.11182  0.48580  0.75270  1.0000
  S   S187      1.0  0.97645  0.80850  0.88511  1.0000
  H   H1139     1.0  0.06688  0.48490  0.75251  1.0000
  H   H1140     1.0  0.21796  0.98397  0.85443  1.0000
  C   C1417     1.0  0.10542  0.63679  0.72985  1.0000
  C   C1418     1.0  0.44509  0.88217  0.73049  1.0000
  C   C1419     1.0  0.87485  0.22535  0.13497  1.0000
  C   C1420     1.0  0.61786  0.46967  0.19280  1.0000
  H   H1141     1.0  0.86970  0.01074  0.09205  1.0000
  Fe  Fe93      1.0  0.95041  0.26002  0.05508  1.0000
  C   C1421     1.0  0.84211  0.02851  0.98811  1.0000
  S   S188      1.0  0.93039  0.28352  0.06774  1.0000
  Fe  Fe94      1.0  0.93114  0.20366  0.04156  1.0000
  S   S189      1.0  0.89517  0.16522  0.03541  1.0000
  S   S190      1.0  0.92748  0.24074  0.03465  1.0000
  Fe  Fe95      1.0  0.75045  0.03385  0.03324  1.0000
  S   S191      1.0  0.77464  0.01612  0.04532  1.0000
  S   S192      1.0  0.76426  0.03491  0.01085  1.0000
  Fe  Fe96      1.0  0.72290  0.04078  0.06039  1.0000
  S   S193      1.0  0.74479  0.02229  0.07349  1.0000
  S   S194      1.0  0.69426  0.05763  0.06971  1.0000
  Fe  Fe97      1.0  0.78059  0.04822  0.06185  1.0000
  S   S195      1.0  0.82079  0.07359  0.07276  1.0000
  H   H1142     1.0  0.94650  0.38028  0.13025  1.0000
  S   S196      1.0  0.75909  0.06784  0.04930  1.0000
  S   S197      1.0  0.71207  0.00838  0.04297  1.0000
  Fe  Fe98      1.0  0.81605  0.30423  0.14215  1.0000
  S   S198      1.0  0.84489  0.29263  0.15422  1.0000
  S   S199      1.0  0.77958  0.27299  0.13053  1.0000
  Fe  Fe99      1.0  0.85131  0.36488  0.14703  1.0000
  S   S200      1.0  0.88315  0.35668  0.15895  1.0000
  S   S201      1.0  0.84339  0.40304  0.14696  1.0000
  Fe  Fe100     1.0  0.87608  0.32382  0.14185  1.0000
  S   S202      1.0  0.90645  0.31088  0.13084  1.0000
  Fe  Fe101     1.0  0.84926  0.32599  0.16999  1.0000
  S   S203      1.0  0.83829  0.32328  0.19304  1.0000
  S   S204      1.0  0.84664  0.33431  0.12945  1.0000
  S   S205      1.0  0.81786  0.33500  0.15842  1.0000
  Fe  Fe102     1.0  0.65253  0.10834  0.14502  1.0000
  S   S206      1.0  0.64063  0.14141  0.13848  1.0000
  S   S207      1.0  0.67767  0.09017  0.13288  1.0000
  Fe  Fe103     1.0  0.63044  0.10851  0.17497  1.0000
  S   S208      1.0  0.61741  0.14126  0.17012  1.0000
  S   S209      1.0  0.62085  0.08740  0.19569  1.0000
  Fe  Fe104     1.0  0.60207  0.11944  0.14932  1.0000
  S   S210      1.0  0.55983  0.10843  0.13976  1.0000
  Fe  Fe105     1.0  0.65678  0.16021  0.15994  1.0000
  S   S211      1.0  0.68309  0.20308  0.16677  1.0000
  S   S212      1.0  0.61300  0.08511  0.15456  1.0000
  S   S213      1.0  0.67087  0.12875  0.16606  1.0000
  C   C1422     1.0  0.75328  0.25318  0.14082  1.0000
  C   C1423     1.0  0.73056  0.23268  0.13433  1.0000
  C   C1424     1.0  0.70937  0.21650  0.14225  1.0000
  C   C1425     1.0  0.71028  0.22153  0.15669  1.0000
  C   C1426     1.0  0.73283  0.24227  0.16320  1.0000
  C   C1427     1.0  0.75447  0.25781  0.15532  1.0000
  H   H1143     1.0  0.72909  0.22957  0.12312  1.0000
  H   H1144     1.0  0.69196  0.20076  0.13713  1.0000
  H   H1145     1.0  0.73366  0.24628  0.17437  1.0000
  H   H1146     1.0  0.77185  0.27361  0.16044  1.0000
  C   C1428     1.0  0.69038  0.06706  0.08735  1.0000
  C   C1429     1.0  0.70452  0.06295  0.09881  1.0000
  C   C1430     1.0  0.70021  0.07007  0.11255  1.0000
  C   C1431     1.0  0.68204  0.08176  0.11515  1.0000
  C   C1432     1.0  0.66813  0.08617  0.10369  1.0000
  C   C1433     1.0  0.67223  0.07880  0.08994  1.0000
  H   H1147     1.0  0.71838  0.05378  0.09710  1.0000
  H   H1148     1.0  0.71076  0.06620  0.12130  1.0000
  H   H1149     1.0  0.65404  0.09504  0.10543  1.0000
  H   H1150     1.0  0.66114  0.08212  0.08122  1.0000
  C   C1434     1.0  0.87373  0.14298  0.04702  1.0000
  C   C1435     1.0  0.84865  0.12475  0.04166  1.0000
  C   C1436     1.0  0.83249  0.10361  0.04954  1.0000
  C   C1437     1.0  0.84077  0.10097  0.06310  1.0000
  C   C1438     1.0  0.86528  0.12010  0.06885  1.0000
  C   C1439     1.0  0.88171  0.14121  0.06083  1.0000
  H   H1151     1.0  0.84199  0.12643  0.03115  1.0000
  H   H1152     1.0  0.81398  0.08891  0.04487  1.0000
  H   H1153     1.0  0.87174  0.11838  0.07941  1.0000
  H   H1154     1.0  0.90080  0.15557  0.06515  1.0000
  C   C1440     1.0  0.92329  0.29000  0.08542  1.0000
  C   C1441     1.0  0.93537  0.28412  0.09718  1.0000
  C   C1442     1.0  0.92977  0.29043  0.11086  1.0000
  C   C1443     1.0  0.91183  0.30256  0.11315  1.0000
  C   C1444     1.0  0.89946  0.30815  0.10139  1.0000
  C   C1445     1.0  0.90521  0.30202  0.08770  1.0000
  C   C1446     1.0  0.49618  0.46128  0.15498  1.0000
  H   H1155     1.0  0.88568  0.31750  0.10285  1.0000
  H   H1156     1.0  0.89567  0.30676  0.07878  1.0000
  C   C1447     1.0  0.88118  0.33429  0.21236  1.0000
  C   C1448     1.0  0.85427  0.32948  0.21006  1.0000
  C   C1449     1.0  0.83901  0.32887  0.22169  1.0000
  H   H1157     1.0  0.89314  0.33465  0.20355  1.0000
  H   H1158     1.0  0.81811  0.32484  0.22005  1.0000
  H   H1159     1.0  0.83443  0.39799  0.11729  1.0000
  C   C1450     1.0  0.63906  0.13062  0.21530  1.0000
  C   C1451     1.0  0.62719  0.10280  0.21289  1.0000
  C   C1452     1.0  0.51546  0.25108  0.22939  1.0000
  H   H1160     1.0  0.79345  0.36877  0.12807  1.0000
  H   H1161     1.0  0.64463  0.14337  0.20652  1.0000
  H   H1162     1.0  0.91225  0.37609  0.08911  1.0000
  C   C1453     1.0  0.49427  0.13529  0.15371  1.0000
  C   C1454     1.0  0.91031  0.03693  0.06528  1.0000
  C   C1455     1.0  0.50785  0.10307  0.14189  1.0000
  C   C1456     1.0  0.53486  0.11852  0.14590  1.0000
  C   C1457     1.0  0.54135  0.14210  0.15412  1.0000
  C   C1458     1.0  0.52121  0.15047  0.15793  1.0000
  C   C1459     1.0  0.81909  0.34148  0.09648  1.0000
  H   H1163     1.0  0.50258  0.08472  0.13559  1.0000
  H   H1164     1.0  0.56205  0.15434  0.15712  1.0000
  C   C1460     1.0  0.51048  0.45098  0.14650  1.0000
  H   H1165     1.0  0.50136  0.43023  0.14274  1.0000
  C   C1461     1.0  0.84511  0.45343  0.14407  1.0000
  C   C1462     1.0  0.86007  0.43776  0.14403  1.0000
  C   C1463     1.0  0.88742  0.45015  0.14183  1.0000
  C   C1464     1.0  0.92907  0.17867  0.99160  1.0000
  H   H1166     1.0  0.82391  0.44409  0.14564  1.0000
  H   H1167     1.0  0.89930  0.43852  0.14192  1.0000
  C   C1465     1.0  0.80023  0.36127  0.11904  1.0000
  H   H1168     1.0  0.85874  0.46372  0.17662  1.0000
  H   H1169     1.0  0.78492  0.30429  0.09897  1.0000
  H   H1170     1.0  0.71618  0.04092  0.00018  1.0000
  C   C1466     1.0  0.52378  0.14369  0.22509  1.0000
  C   C1467     1.0  0.57900  0.47698  0.21691  1.0000
  C   C1468     1.0  0.78514  0.99909  0.09114  1.0000
  C   C1469     1.0  0.75971  0.45905  0.15762  1.0000
  C   C1470     1.0  0.86831  0.38873  0.05200  1.0000
  H   H1171     1.0  0.91005  0.44040  0.10390  1.0000
  C   C1471     1.0  0.48762  0.03056  0.16224  1.0000
  H   H1172     1.0  0.90132  0.47335  0.21388  1.0000
  C   C1472     1.0  0.86550  0.02745  0.99366  1.0000
  C   C1473     1.0  0.91894  0.15513  0.99881  1.0000
  H   H1173     1.0  0.51341  0.18555  0.04822  1.0000
  C   C1474     1.0  0.89034  0.04762  0.99104  1.0000
  C   C1475     1.0  0.56402  0.13327  0.18896  1.0000
  C   C1476     1.0  0.54338  0.10864  0.18479  1.0000
  C   C1477     1.0  0.51003  0.40990  0.17684  1.0000
  C   C1478     1.0  0.87423  0.05166  0.06539  1.0000
  C   C1479     1.0  0.77145  0.10035  0.11980  1.0000
  C   C1480     1.0  0.79488  0.18910  0.16563  1.0000
  C   C1481     1.0  0.85723  0.48110  0.14198  1.0000
  H   H1174     1.0  0.82747  0.41361  0.08945  1.0000
  H   H1175     1.0  0.55667  0.05183  0.14604  1.0000
  H   H1176     1.0  0.85946  0.42894  0.20892  1.0000
  H   H1177     1.0  0.52953  0.45238  0.17534  1.0000
  C   C1482     1.0  0.64372  0.14198  0.22909  1.0000
  P   P48       1.0  0.50857  0.05585  0.18825  1.0000
  H   H1178     1.0  0.49662  0.22154  0.09664  1.0000
  H   H1179     1.0  0.94555  0.37055  0.10477  1.0000
  H   H1180     1.0  0.61068  0.06506  0.22275  1.0000
  C   C1483     1.0  0.51073  0.12702  0.21332  1.0000
  C   C1484     1.0  0.50796  0.13807  0.20072  1.0000
  C   C1485     1.0  0.70192  0.17927  0.20173  1.0000
  H   H1181     1.0  0.91333  0.34174  0.22780  1.0000
  C   C1486     1.0  0.66428  0.99890  0.09985  1.0000
  H   H1182     1.0  0.56970  0.14974  0.18206  1.0000
  H   H1183     1.0  0.53310  0.10631  0.17470  1.0000
  C   C1487     1.0  0.85771  0.23719  0.13881  1.0000
  S   S214      1.0  0.96891  0.21268  0.03053  1.0000
  C   C1488     1.0  0.87664  0.19127  0.00126  1.0000
  C   C1489     1.0  0.48763  0.11126  0.14588  1.0000
  P   P49       1.0  0.78432  0.17403  0.13721  1.0000
  H   H1184     1.0  0.65442  0.46605  0.18799  1.0000
  C   C1490     1.0  0.53610  0.08711  0.19357  1.0000
  C   C1491     1.0  0.56118  0.46195  0.22674  1.0000
  C   C1492     1.0  0.52610  0.39119  0.19570  1.0000
  H   H1185     1.0  0.85679  0.02721  0.03701  1.0000
  H   H1186     1.0  0.86597  0.25844  0.14155  1.0000
  H   H1187     1.0  0.89399  0.11331  0.99770  1.0000
  P   P50       1.0  0.90940  0.07058  0.04407  1.0000
  C   C1493     1.0  0.89713  0.05162  0.05931  1.0000
  H   H1188     1.0  0.81722  0.23136  0.14224  1.0000
  H   H1189     1.0  0.83297  0.09674  0.99061  1.0000
  C   C1494     1.0  0.57060  0.11518  0.21070  1.0000
  C   C1495     1.0  0.79827  0.09827  0.98046  1.0000
  H   H1190     1.0  0.65689  0.01090  0.10624  1.0000
  C   C1496     1.0  0.88121  0.06865  0.03304  1.0000
  C   C1497     1.0  0.88897  0.21547  0.99479  1.0000
  H   H1191     1.0  0.92450  0.15561  0.00982  1.0000
  C   C1498     1.0  0.83672  0.06574  0.01662  1.0000
  C   C1499     1.0  0.85964  0.08953  0.01797  1.0000
  C   C1500     1.0  0.88179  0.09110  0.02616  1.0000
  H   H1192     1.0  0.52744  0.14156  0.09922  1.0000
  C   C1501     1.0  0.79559  0.32500  0.10265  1.0000
  C   C1502     1.0  0.86455  0.19795  0.13149  1.0000
  C   C1503     1.0  0.93164  0.38269  0.12339  1.0000
  C   C1504     1.0  0.86846  0.42344  0.09641  1.0000
  H   H1193     1.0  0.90854  0.04674  0.99518  1.0000
  C   C1505     1.0  0.48083  0.23748  0.11305  1.0000
  H   H1194     1.0  0.94878  0.11443  0.02939  1.0000
  C   C1506     1.0  0.89257  0.33832  0.22613  1.0000
  H   H1195     1.0  0.81937  0.06489  0.01058  1.0000
  H   H1196     1.0  0.85983  0.10728  0.01324  1.0000
  H   H1197     1.0  0.89880  0.11019  0.02745  1.0000
  H   H1198     1.0  0.88257  0.18953  0.01194  1.0000
  H   H1199     1.0  0.78194  0.22208  0.21670  1.0000
  C   C1507     1.0  0.54956  0.09073  0.20669  1.0000
  C   C1508     1.0  0.53741  0.04569  0.15063  1.0000
  C   C1509     1.0  0.96365  0.15832  0.05748  1.0000
  C   C1510     1.0  0.86685  0.37941  0.07668  1.0000
  C   C1511     1.0  0.93157  0.02292  0.01813  1.0000
  H   H1200     1.0  0.54141  0.44741  0.22345  1.0000
  C   C1512     1.0  0.81049  0.43975  0.19193  1.0000
  C   C1513     1.0  0.80463  0.42795  0.20490  1.0000
  C   C1514     1.0  0.80099  0.40131  0.20623  1.0000
  C   C1515     1.0  0.80360  0.38635  0.19471  1.0000
  C   C1516     1.0  0.80914  0.39783  0.18176  1.0000
  C   C1517     1.0  0.81238  0.42428  0.18034  1.0000
  H   H1201     1.0  0.86828  0.40182  0.04377  1.0000
  H   H1202     1.0  0.52548  0.37391  0.20110  1.0000
  C   C1518     1.0  0.90893  0.41055  0.22004  1.0000
  C   C1519     1.0  0.86664  0.39617  0.06593  1.0000
  C   C1520     1.0  0.63872  0.47169  0.18422  1.0000
  C   C1521     1.0  0.76261  0.19286  0.18127  1.0000
  H   H1203     1.0  0.72995  0.24259  0.21620  1.0000
  H   H1204     1.0  0.94266  0.19730  0.99693  1.0000
  C   C1522     1.0  0.71050  0.16619  0.21178  1.0000
  C   C1523     1.0  0.89251  0.44417  0.10155  1.0000
  C   C1524     1.0  0.84620  0.42926  0.09342  1.0000
  C   C1525     1.0  0.53663  0.46761  0.14278  1.0000
  H   H1205     1.0  0.76847  0.13004  0.15674  1.0000
  C   C1526     1.0  0.86865  0.35505  0.07321  1.0000
  C   C1527     1.0  0.77806  0.12776  0.12177  1.0000
  H   H1206     1.0  0.78252  0.02852  0.98409  1.0000
  H   H1207     1.0  0.80286  0.43916  0.21403  1.0000
  C   C1528     1.0  0.77515  0.45560  0.16867  1.0000
  H   H1208     1.0  0.80140  0.36587  0.19577  1.0000
  H   H1209     1.0  0.81111  0.38623  0.17278  1.0000
  H   H1210     1.0  0.81643  0.43260  0.17014  1.0000
  P   P51       1.0  0.81548  0.47433  0.19016  1.0000
  H   H1211     1.0  0.58168  0.11744  0.22056  1.0000
  H   H1212     1.0  0.86528  0.40762  0.18682  1.0000
  H   H1213     1.0  0.68361  0.98917  0.11718  1.0000
  H   H1214     1.0  0.49794  0.12525  0.19163  1.0000
  H   H1215     1.0  0.82948  0.24400  0.21158  1.0000
  C   C1529     1.0  0.53419  0.00536  0.20851  1.0000
  H   H1216     1.0  0.81391  0.03840  0.09813  1.0000
  H   H1217     1.0  0.86540  0.41510  0.06823  1.0000
  H   H1218     1.0  0.48561  0.30140  0.22731  1.0000
  C   C1530     1.0  0.78629  0.33482  0.11398  1.0000
  C   C1531     1.0  0.54446  0.41689  0.20021  1.0000
  C   C1532     1.0  0.83706  0.18241  0.13168  1.0000
  C   C1533     1.0  0.79473  0.02238  0.09984  1.0000
  H   H1219     1.0  0.49460  0.36783  0.18050  1.0000
  H   H1220     1.0  0.55833  0.41913  0.20893  1.0000
  H   H1221     1.0  0.54772  0.21255  0.06650  1.0000
  H   H1222     1.0  0.48367  0.25554  0.10773  1.0000
  C   C1534     1.0  0.52372  0.17025  0.11418  1.0000
  C   C1535     1.0  0.53584  0.18734  0.12599  1.0000
  C   C1536     1.0  0.56017  0.18893  0.13181  1.0000
  C   C1537     1.0  0.57234  0.17317  0.12607  1.0000
  C   C1538     1.0  0.56038  0.15608  0.11437  1.0000
  C   C1539     1.0  0.53635  0.15484  0.10833  1.0000
  H   H1223     1.0  0.76255  0.22735  0.10204  1.0000
  H   H1224     1.0  0.84666  0.03717  0.08168  1.0000
  P   P52       1.0  0.56948  0.47251  0.19848  1.0000
  C   C1540     1.0  0.53586  0.05375  0.16446  1.0000
  C   C1541     1.0  0.77240  0.20414  0.11710  1.0000
  C   C1542     1.0  0.73755  0.16047  0.12072  1.0000
  H   H1225     1.0  0.91057  0.01083  0.08160  1.0000
  C   C1543     1.0  0.76448  0.03157  0.98229  1.0000
  C   C1544     1.0  0.57789  0.13643  0.20182  1.0000
  C   C1545     1.0  0.52872  0.19766  0.06947  1.0000
  C   C1546     1.0  0.52365  0.19356  0.08361  1.0000
  C   C1547     1.0  0.82366  0.37779  0.11291  1.0000
  H   H1226     1.0  0.49693  0.40728  0.16768  1.0000
  C   C1548     1.0  0.91148  0.37964  0.10019  1.0000
  H   H1227     1.0  0.78331  0.14026  0.11287  1.0000
  C   C1549     1.0  0.89159  0.38659  0.10575  1.0000
  H   H1228     1.0  0.52667  0.19941  0.13081  1.0000
  H   H1229     1.0  0.56927  0.20179  0.14104  1.0000
  H   H1230     1.0  0.59066  0.17359  0.13091  1.0000
  H   H1231     1.0  0.56954  0.14335  0.11020  1.0000
  C   C1550     1.0  0.48593  0.98599  0.20875  1.0000
  H   H1232     1.0  0.89851  0.38782  0.18599  1.0000
  H   H1233     1.0  0.70093  0.14968  0.10838  1.0000
  C   C1551     1.0  0.77736  0.13888  0.13511  1.0000
  H   H1234     1.0  0.78641  0.04379  0.11691  1.0000
  C   C1552     1.0  0.76313  0.09473  0.14440  1.0000
  H   H1235     1.0  0.79184  0.21996  0.11966  1.0000
  C   C1553     1.0  0.90141  0.13118  0.99191  1.0000
  C   C1554     1.0  0.88173  0.21770  0.98092  1.0000
  H   H1236     1.0  0.59459  0.15517  0.20481  1.0000
  H   H1237     1.0  0.53888  0.20546  0.09147  1.0000
  C   C1555     1.0  0.53108  0.18256  0.21140  1.0000
  C   C1556     1.0  0.51824  0.16576  0.19972  1.0000
  C   C1557     1.0  0.94981  0.26988  0.98143  1.0000
  H   H1238     1.0  0.55218  0.04188  0.19791  1.0000
  C   C1558     1.0  0.63926  0.48092  0.17075  1.0000
  H   H1239     1.0  0.51175  0.24048  0.21926  1.0000
  H   H1240     1.0  0.82976  0.16118  0.12918  1.0000
  H   H1241     1.0  0.70471  0.14477  0.21050  1.0000
  H   H1242     1.0  0.90460  0.23234  0.00046  1.0000
  C   C1559     1.0  0.86438  0.03694  0.07713  1.0000
  C   C1560     1.0  0.76395  0.08384  0.13111  1.0000
  H   H1243     1.0  0.72329  0.18296  0.17206  1.0000
  H   H1244     1.0  0.81494  0.19073  0.16409  1.0000
  C   C1561     1.0  0.48521  0.00737  0.20140  1.0000
  H   H1245     1.0  0.51607  0.17408  0.18988  1.0000
  C   C1562     1.0  0.92897  0.05639  0.03463  1.0000
  H   H1246     1.0  0.78726  0.09501  0.98994  1.0000
  C   C1563     1.0  0.95907  0.03248  0.02112  1.0000
  C   C1564     1.0  0.76983  0.12216  0.14642  1.0000
  C   C1565     1.0  0.48928  0.02278  0.14839  1.0000
  C   C1566     1.0  0.70917  0.20681  0.20336  1.0000
  H   H1247     1.0  0.87183  0.35895  0.03791  1.0000
  H   H1248     1.0  0.86399  0.06314  0.06108  1.0000
  C   C1567     1.0  0.75056  0.03472  0.99381  1.0000
  C   C1568     1.0  0.74328  0.18466  0.17027  1.0000
  C   C1569     1.0  0.50908  0.02838  0.19798  1.0000
  C   C1570     1.0  0.85731  0.16916  0.99381  1.0000
  C   C1571     1.0  0.77908  0.02549  0.11039  1.0000
  H   H1249     1.0  0.70276  0.21695  0.19546  1.0000
  C   C1572     1.0  0.72098  0.16483  0.11066  1.0000
  C   C1573     1.0  0.73270  0.20816  0.22549  1.0000
  C   C1574     1.0  0.50877  0.38772  0.18407  1.0000
  C   C1575     1.0  0.47984  0.15897  0.07715  1.0000
  C   C1576     1.0  0.95653  0.06547  0.03781  1.0000
  C   C1577     1.0  0.48444  0.19472  0.11370  1.0000
  H   H1250     1.0  0.91385  0.39618  0.13996  1.0000
  C   C1578     1.0  0.87739  0.02215  0.08295  1.0000
  H   H1251     1.0  0.87827  0.39895  0.12467  1.0000
  C   C1579     1.0  0.81958  0.19422  0.13547  1.0000
  H   H1252     1.0  0.51559  0.02483  0.13177  1.0000
  C   C1580     1.0  0.93102  0.37712  0.10903  1.0000
  H   H1253     1.0  0.75795  0.06249  0.12952  1.0000
  C   C1581     1.0  0.48499  0.16313  0.06301  1.0000
  H   H1254     1.0  0.48242  0.08008  0.16964  1.0000
  H   H1255     1.0  0.49038  0.43363  0.21894  1.0000
  H   H1256     1.0  0.86918  0.34185  0.08129  1.0000
  H   H1257     1.0  0.73440  0.17315  0.14855  1.0000
  H   H1258     1.0  0.77142  0.09182  0.10941  1.0000
  H   H1259     1.0  0.81771  0.02510  0.02259  1.0000
  C   C1582     1.0  0.87046  0.34774  0.05929  1.0000
  C   C1583     1.0  0.82285  0.24804  0.22158  1.0000
  C   C1584     1.0  0.74974  0.17909  0.15689  1.0000
  C   C1585     1.0  0.87437  0.42074  0.20861  1.0000
  C   C1586     1.0  0.54500  0.43936  0.19334  1.0000
  P   P53       1.0  0.86535  0.38921  0.09478  1.0000
  H   H1260     1.0  0.75662  0.08181  0.15309  1.0000
  C   C1587     1.0  0.89286  0.39283  0.12015  1.0000
  H   H1261     1.0  0.84819  0.15032  0.99880  1.0000
  C   C1588     1.0  0.50941  0.18245  0.05918  1.0000
  C   C1589     1.0  0.76343  0.18009  0.12403  1.0000
  H   H1262     1.0  0.79625  0.39225  0.21620  1.0000
  C   C1590     1.0  0.85802  0.04467  0.03159  1.0000
  H   H1263     1.0  0.82594  0.33303  0.08796  1.0000
  H   H1264     1.0  0.93877  0.27361  0.98977  1.0000
  H   H1265     1.0  0.93968  0.28611  0.11976  1.0000
  C   C1591     1.0  0.83588  0.04329  0.02341  1.0000
  S   S215      1.0  0.95273  0.22199  0.06211  1.0000
  C   C1592     1.0  0.89005  0.42179  0.22070  1.0000
  H   H1266     1.0  0.65540  0.48258  0.16408  1.0000
  C   C1593     1.0  0.84174  0.25964  0.10808  1.0000
  C   C1594     1.0  0.82453  0.26940  0.10170  1.0000
  C   C1595     1.0  0.81163  0.25814  0.08880  1.0000
  C   C1596     1.0  0.81568  0.23686  0.08237  1.0000
  C   C1597     1.0  0.83263  0.22661  0.08885  1.0000
  C   C1598     1.0  0.84577  0.23827  0.10173  1.0000
  P   P54       1.0  0.83727  0.19881  0.08046  1.0000
  C   C1599     1.0  0.80739  0.16807  0.08101  1.0000
  C   C1600     1.0  0.84532  0.20720  0.06258  1.0000
  C   C1601     1.0  0.83791  0.18725  0.05173  1.0000
  C   C1602     1.0  0.84489  0.19405  0.03804  1.0000
  C   C1603     1.0  0.85926  0.22077  0.03503  1.0000
  C   C1604     1.0  0.86691  0.24073  0.04575  1.0000
  C   C1605     1.0  0.86002  0.23401  0.05945  1.0000
  C   C1606     1.0  0.78312  0.16839  0.08508  1.0000
  C   C1607     1.0  0.76017  0.14451  0.08529  1.0000
  C   C1608     1.0  0.76133  0.12015  0.08163  1.0000
  C   C1609     1.0  0.78540  0.11958  0.07779  1.0000
  C   C1610     1.0  0.80825  0.14338  0.07735  1.0000
  C   C1611     1.0  0.86576  0.19511  0.08856  1.0000
  C   C1612     1.0  0.89171  0.21396  0.08643  1.0000
  C   C1613     1.0  0.91389  0.21097  0.09234  1.0000
  C   C1614     1.0  0.91044  0.18892  0.10023  1.0000
  C   C1615     1.0  0.88471  0.17016  0.10251  1.0000
  C   C1616     1.0  0.86244  0.17355  0.09699  1.0000
  H   H1267     1.0  0.85222  0.26899  0.11790  1.0000
  H   H1268     1.0  0.82125  0.28568  0.10684  1.0000
  H   H1269     1.0  0.79834  0.26580  0.08384  1.0000
  H   H1270     1.0  0.80551  0.22826  0.07237  1.0000
  H   H1271     1.0  0.85936  0.23120  0.10682  1.0000
  H   H1272     1.0  0.82718  0.16638  0.05372  1.0000
  H   H1273     1.0  0.83972  0.17846  0.02982  1.0000
  H   H1274     1.0  0.86513  0.22596  0.02448  1.0000
  H   H1275     1.0  0.87900  0.26136  0.04357  1.0000
  H   H1276     1.0  0.86685  0.24979  0.06763  1.0000
  H   H1277     1.0  0.78165  0.18689  0.08805  1.0000
  H   H1278     1.0  0.74137  0.14477  0.08823  1.0000
  H   H1279     1.0  0.74353  0.10170  0.08166  1.0000
  H   H1280     1.0  0.78626  0.10066  0.07500  1.0000
  H   H1281     1.0  0.82664  0.14249  0.07417  1.0000
  H   H1282     1.0  0.89499  0.23105  0.08021  1.0000
  H   H1283     1.0  0.93379  0.22576  0.09069  1.0000
  H   H1284     1.0  0.92772  0.18650  0.10460  1.0000
  H   H1285     1.0  0.88199  0.15310  0.10868  1.0000
  H   H1286     1.0  0.84278  0.15924  0.09934  1.0000
  C   C1617     1.0  0.87028  0.36457  0.04869  1.0000
  C   C1618     1.0  0.83347  0.36810  0.10160  1.0000
  C   C1619     1.0  0.48816  0.21813  0.10680  1.0000
  C   C1620     1.0  0.72706  0.03840  0.99143  1.0000
  C   C1621     1.0  0.72453  0.22124  0.21516  1.0000
  H   H1287     1.0  0.89612  0.23753  0.13471  1.0000
  H   H1288     1.0  0.52664  0.16914  0.16394  1.0000
  H   H1289     1.0  0.80342  0.20145  0.18748  1.0000
  H   H1290     1.0  0.92640  0.38963  0.20713  1.0000
  C   C1622     1.0  0.89951  0.47781  0.13959  1.0000
  C   C1623     1.0  0.77567  0.18139  0.15444  1.0000
  C   C1624     1.0  0.83018  0.22180  0.13905  1.0000
  H   H1291     1.0  0.74152  0.00837  0.12020  1.0000
  H   H1292     1.0  0.84063  0.38570  0.22558  1.0000
  C   C1625     1.0  0.52832  0.43554  0.18133  1.0000
  H   H1293     1.0  0.55320  0.00445  0.21104  1.0000
  H   H1294     1.0  0.91534  0.10336  0.07012  1.0000
  C   C1626     1.0  0.89642  0.39766  0.19557  1.0000
  P   P55       1.0  0.49317  0.16907  0.10588  1.0000
  C   C1627     1.0  0.78840  0.19502  0.17896  1.0000
  C   C1628     1.0  0.92914  0.11548  0.06275  1.0000
  H   H1295     1.0  0.76868  0.32169  0.11908  1.0000
  H   H1296     1.0  0.48909  0.11593  0.11456  1.0000
  H   H1297     1.0  0.55417  0.06564  0.17050  1.0000
  C   C1629     1.0  0.94789  0.12182  0.03989  1.0000
  H   H1298     1.0  0.54731  0.45939  0.13614  1.0000
  C   C1630     1.0  0.91217  0.39872  0.20750  1.0000
  H   H1299     1.0  0.54416  0.07474  0.21382  1.0000
  C   C1631     1.0  0.93015  0.10512  0.04927  1.0000
  C   C1632     1.0  0.91653  0.03471  0.02491  1.0000
  H   H1300     1.0  0.87801  0.18877  0.12882  1.0000
  H   H1301     1.0  0.92094  0.41043  0.22919  1.0000
  H   H1302     1.0  0.86429  0.01090  0.99990  1.0000
  H   H1303     1.0  0.77126  0.43549  0.17155  1.0000
  H   H1304     1.0  0.72985  0.14186  0.12608  1.0000
  H   H1305     1.0  0.75757  0.19765  0.19154  1.0000
  C   C1633     1.0  0.73014  0.18873  0.10372  1.0000
  C   C1634     1.0  0.87760  0.40875  0.19610  1.0000
  H   H1306     1.0  0.74468  0.44175  0.15196  1.0000
  C   C1635     1.0  0.47900  0.06246  0.18981  1.0000
  C   C1636     1.0  0.75582  0.20836  0.10696  1.0000
  H   H1307     1.0  0.71712  0.19229  0.09610  1.0000
  C   C1637     1.0  0.91297  0.39119  0.12888  1.0000
  H   H1308     1.0  0.68966  0.16811  0.19265  1.0000
  C   C1638     1.0  0.51087  0.04670  0.17026  1.0000
  C   C1639     1.0  0.53353  0.02672  0.20116  1.0000
  C   C1640     1.0  0.89387  0.46998  0.10420  1.0000
  H   H1309     1.0  0.92822  0.03681  0.06092  1.0000
  H   H1310     1.0  0.50255  0.10556  0.21385  1.0000
  C   C1641     1.0  0.72612  0.18061  0.22355  1.0000
  C   C1642     1.0  0.90039  0.02220  0.07704  1.0000
  C   C1643     1.0  0.51418  0.03050  0.14256  1.0000
  H   H1311     1.0  0.92187  0.00615  0.01066  1.0000
  C   C1644     1.0  0.67940  0.98645  0.10600  1.0000
  H   H1312     1.0  0.89523  0.02671  0.02264  1.0000
  H   H1313     1.0  0.82282  0.01284  0.99003  1.0000
  H   H1314     1.0  0.94956  0.27527  0.09575  1.0000
  C   C1645     1.0  0.61985  0.08658  0.22447  1.0000
  H   H1315     1.0  0.86224  0.27578  0.22910  1.0000
  H   H1316     1.0  0.87231  0.32913  0.05676  1.0000
  C   C1646     1.0  0.79517  0.47796  0.17580  1.0000
  H   H1317     1.0  0.64881  0.00746  0.08055  1.0000
  C   C1647     1.0  0.49915  0.17421  0.08756  1.0000
  C   C1648     1.0  0.89174  0.06919  0.98318  1.0000
  C   C1649     1.0  0.94591  0.14196  0.06682  1.0000
  H   H1318     1.0  0.53899  0.20406  0.21062  1.0000
  H   H1319     1.0  0.51522  0.47085  0.19734  1.0000
  H   H1320     1.0  0.76675  0.48072  0.19816  1.0000
  C   C1650     1.0  0.75378  0.00536  0.11225  1.0000
  Fe  Fe106     1.0  0.73683  0.99173  0.05547  1.0000
  C   C1651     1.0  0.53354  0.17161  0.22408  1.0000
  C   C1652     1.0  0.84765  0.45510  0.09613  1.0000
  H   H1321     1.0  0.97071  0.02326  0.01593  1.0000
  C   C1653     1.0  0.97152  0.05370  0.03098  1.0000
  C   C1654     1.0  0.79582  0.23581  0.22452  1.0000
  H   H1322     1.0  0.61742  0.46199  0.20310  1.0000
  C   C1655     1.0  0.97041  0.26180  0.98461  1.0000
  H   H1323     1.0  0.83017  0.45928  0.09427  1.0000
  C   C1656     1.0  0.65969  0.99697  0.08535  1.0000
  C   C1657     1.0  0.96460  0.14829  0.04402  1.0000
  H   H1324     1.0  0.94494  0.14999  0.07717  1.0000
  H   H1325     1.0  0.96647  0.08148  0.04567  1.0000
  C   C1658     1.0  0.87138  0.47537  0.10168  1.0000
  H   H1326     1.0  0.91110  0.08480  0.98129  1.0000
  C   C1659     1.0  0.59757  0.47716  0.18799  1.0000
  Fe  Fe107     1.0  0.96680  0.25113  0.02473  1.0000
  H   H1327     1.0  0.79686  0.99708  0.08263  1.0000
  C   C1660     1.0  0.51042  0.98509  0.21240  1.0000
  H   H1328     1.0  0.47706  0.25283  0.22911  1.0000
  C   C1661     1.0  0.82409  0.09905  0.98079  1.0000
  C   C1662     1.0  0.89602  0.48304  0.22254  1.0000
  C   C1663     1.0  0.85025  0.17126  0.97988  1.0000
  C   C1664     1.0  0.84351  0.04990  0.98013  1.0000
  Fe  Fe108     1.0  0.72338  0.01727  0.42319  1.0000
  S   S216      1.0  0.76419  0.02180  0.41733  1.0000
  S   S217      1.0  0.71529  0.00107  0.44528  1.0000
  Fe  Fe109     1.0  0.71119  0.03212  0.39292  1.0000
  S   S218      1.0  0.75142  0.03638  0.38574  1.0000
  S   S219      1.0  0.68317  0.04729  0.38073  1.0000
  H   H1329     1.0  0.82217  0.46522  0.24481  1.0000
  Fe  Fe110     1.0  0.76731  0.05845  0.40647  1.0000
  S   S220      1.0  0.79871  0.10008  0.41200  1.0000
  H   H1330     1.0  0.87461  0.22715  0.44686  1.0000
  S   S221      1.0  0.72764  0.05551  0.41351  1.0000
  Fe  Fe111     1.0  0.95070  0.23911  0.42279  1.0000
  C   C1665     1.0  0.77541  0.07334  0.33118  1.0000
  C   C1666     1.0  0.71912  0.14901  0.32938  1.0000
  Fe  Fe112     1.0  0.94347  0.26139  0.39379  1.0000
  H   H1331     1.0  0.48502  0.07611  0.23359  1.0000
  S   S222      1.0  0.92713  0.28916  0.38296  1.0000
  Fe  Fe113     1.0  0.93684  0.20365  0.39593  1.0000
  S   S223      1.0  0.91273  0.16108  0.38739  1.0000
  S   S224      1.0  0.91705  0.22743  0.40632  1.0000
  Fe  Fe114     1.0  0.63667  0.12968  0.28075  1.0000
  S   S225      1.0  0.62776  0.16128  0.29222  1.0000
  S   S226      1.0  0.64317  0.14147  0.25780  1.0000
  Fe  Fe115     1.0  0.63719  0.10244  0.30896  1.0000
  S   S227      1.0  0.62674  0.13225  0.32136  1.0000
  S   S228      1.0  0.65122  0.07195  0.31885  1.0000
  Fe  Fe116     1.0  0.59709  0.12796  0.30341  1.0000
  S   S229      1.0  0.55963  0.13698  0.30299  1.0000
  Fe  Fe117     1.0  0.65763  0.16266  0.30883  1.0000
  S   S230      1.0  0.68972  0.19981  0.31958  1.0000
  S   S231      1.0  0.60517  0.09585  0.29149  1.0000
  S   S232      1.0  0.66904  0.13347  0.29695  1.0000
  Fe  Fe118     1.0  0.87051  0.33594  0.27543  1.0000
  S   S233      1.0  0.83545  0.34648  0.27771  1.0000
  S   S234      1.0  0.89217  0.34124  0.25494  1.0000
  Fe  Fe119     1.0  0.86813  0.31690  0.30603  1.0000
  S   S235      1.0  0.83246  0.32640  0.31002  1.0000
  S   S236      1.0  0.88326  0.29153  0.31998  1.0000
  Fe  Fe120     1.0  0.81686  0.30791  0.28858  1.0000
  S   S237      1.0  0.77494  0.27995  0.28101  1.0000
  Fe  Fe121     1.0  0.85418  0.36463  0.29881  1.0000
  S   S238      1.0  0.85025  0.40251  0.30712  1.0000
  S   S239      1.0  0.85076  0.29602  0.28494  1.0000
  S   S240      1.0  0.89104  0.35645  0.29613  1.0000
  H   H1332     1.0  0.68155  0.07668  0.29292  1.0000
  Fe  Fe122     1.0  0.74426  0.99854  0.39736  1.0000
  C   C1667     1.0  0.73920  0.13008  0.34639  1.0000
  H   H1333     1.0  0.69429  0.15560  0.27042  1.0000
  H   H1334     1.0  0.83832  0.33220  0.24426  1.0000
  C   C1668     1.0  0.63656  0.12576  0.24068  1.0000
  C   C1669     1.0  0.49333  0.46976  0.33165  1.0000
  H   H1335     1.0  0.61922  0.08522  0.24706  1.0000
  C   C1670     1.0  0.71387  0.22156  0.30890  1.0000
  C   C1671     1.0  0.70966  0.21940  0.29440  1.0000
  C   C1672     1.0  0.72863  0.23750  0.28608  1.0000
  C   C1673     1.0  0.75219  0.25752  0.29208  1.0000
  C   C1674     1.0  0.75663  0.25955  0.30661  1.0000
  C   C1675     1.0  0.73736  0.24171  0.31501  1.0000
  H   H1336     1.0  0.69166  0.20392  0.28959  1.0000
  H   H1337     1.0  0.72515  0.23573  0.27491  1.0000
  H   H1338     1.0  0.77463  0.27511  0.31136  1.0000
  H   H1339     1.0  0.74050  0.24356  0.32625  1.0000
  C   C1676     1.0  0.52444  0.11877  0.30355  1.0000
  C   C1677     1.0  0.50781  0.13145  0.29946  1.0000
  C   C1678     1.0  0.49321  0.12359  0.25000  1.0000
  H   H1340     1.0  0.74375  0.08050  0.32107  1.0000
  H   H1341     1.0  0.50727  0.36315  0.29814  1.0000
  C   C1679     1.0  0.51271  0.09301  0.30853  1.0000
  H   H1342     1.0  0.51657  0.15126  0.29554  1.0000
  H   H1343     1.0  0.75332  0.46376  0.28103  1.0000
  C   C1680     1.0  0.49178  0.28098  0.31950  1.0000
  H   H1344     1.0  0.52521  0.08298  0.31174  1.0000
  C   C1681     1.0  0.83170  0.08489  0.46851  1.0000
  C   C1682     1.0  0.85566  0.45463  0.30719  1.0000
  C   C1683     1.0  0.86371  0.43561  0.30106  1.0000
  C   C1684     1.0  0.88190  0.44348  0.29046  1.0000
  H   H1345     1.0  0.84227  0.44899  0.31564  1.0000
  H   H1346     1.0  0.88872  0.42926  0.28580  1.0000
  C   C1685     1.0  0.52775  0.44278  0.30452  1.0000
  H   H1347     1.0  0.53734  0.43040  0.30839  1.0000
  C   C1686     1.0  0.91423  0.28890  0.36548  1.0000
  C   C1687     1.0  0.91251  0.26957  0.35511  1.0000
  C   C1688     1.0  0.90300  0.27076  0.34134  1.0000
  C   C1689     1.0  0.89492  0.29118  0.33767  1.0000
  C   C1690     1.0  0.89631  0.31032  0.34809  1.0000
  C   C1691     1.0  0.90587  0.30914  0.36185  1.0000
  H   H1348     1.0  0.91896  0.25396  0.35764  1.0000
  H   H1349     1.0  0.62051  0.18765  0.24882  1.0000
  H   H1350     1.0  0.89021  0.32617  0.34554  1.0000
  H   H1351     1.0  0.90706  0.32427  0.36972  1.0000
  C   C1692     1.0  0.82973  0.11650  0.40447  1.0000
  C   C1693     1.0  0.83790  0.10515  0.39324  1.0000
  C   C1694     1.0  0.86322  0.11916  0.38786  1.0000
  C   C1695     1.0  0.88047  0.14441  0.39375  1.0000
  C   C1696     1.0  0.87212  0.15559  0.40495  1.0000
  C   C1697     1.0  0.84688  0.14176  0.41024  1.0000
  H   H1352     1.0  0.82481  0.08558  0.38879  1.0000
  H   H1353     1.0  0.86960  0.11026  0.37926  1.0000
  H   H1354     1.0  0.88543  0.17440  0.40995  1.0000
  H   H1355     1.0  0.84086  0.15047  0.41907  1.0000
  C   C1698     1.0  0.67656  0.05586  0.36341  1.0000
  C   C1699     1.0  0.68661  0.04881  0.35137  1.0000
  C   C1700     1.0  0.67918  0.05444  0.33793  1.0000
  C   C1701     1.0  0.66207  0.06777  0.33622  1.0000
  C   C1702     1.0  0.65275  0.07560  0.34829  1.0000
  C   C1703     1.0  0.65976  0.06951  0.36170  1.0000
  H   H1356     1.0  0.69942  0.03822  0.35238  1.0000
  H   H1357     1.0  0.68640  0.04799  0.32876  1.0000
  H   H1358     1.0  0.63942  0.08560  0.34727  1.0000
  H   H1359     1.0  0.65173  0.07509  0.37083  1.0000
  H   H1360     1.0  0.79945  0.26630  0.25663  1.0000
  C   C1704     1.0  0.95120  0.24306  0.46282  1.0000
  C   C1705     1.0  0.75470  0.12898  0.29122  1.0000
  C   C1706     1.0  0.47719  0.32475  0.29094  1.0000
  C   C1707     1.0  0.85042  0.33303  0.23544  1.0000
  C   C1708     1.0  0.70460  0.03149  0.46627  1.0000
  C   C1709     1.0  0.71635  0.01385  0.46278  1.0000
  H   H1361     1.0  0.73489  0.98918  0.47113  1.0000
  C   C1710     1.0  0.70021  0.13800  0.35201  1.0000
  C   C1711     1.0  0.49978  0.43166  0.30219  1.0000
  H   H1362     1.0  0.55475  0.25163  0.23264  1.0000
  C   C1712     1.0  0.76529  0.21033  0.26643  1.0000
  C   C1713     1.0  0.79797  0.42846  0.33241  1.0000
  C   C1714     1.0  0.71343  0.24511  0.24894  1.0000
  H   H1363     1.0  0.71473  0.39776  0.30735  1.0000
  H   H1364     1.0  0.71819  0.10371  0.45475  1.0000
  C   C1715     1.0  0.96935  0.26962  0.46560  1.0000
  H   H1365     1.0  0.54801  0.21932  0.26371  1.0000
  C   C1716     1.0  0.51792  0.34841  0.27914  1.0000
  C   C1717     1.0  0.83572  0.39081  0.23579  1.0000
  C   C1718     1.0  0.80106  0.08468  0.33757  1.0000
  H   H1366     1.0  0.94908  0.15439  0.36690  1.0000
  H   H1367     1.0  0.81541  0.15814  0.30883  1.0000
  C   C1719     1.0  0.91874  0.13822  0.42420  1.0000
  C   C1720     1.0  0.73375  0.17601  0.27992  1.0000
  C   C1721     1.0  0.50073  0.27253  0.24795  1.0000
  H   H1368     1.0  0.74973  0.08210  0.45693  1.0000
  H   H1369     1.0  0.52893  0.02745  0.23913  1.0000
  C   C1722     1.0  0.78227  0.43385  0.30917  1.0000
  H   H1370     1.0  0.96319  0.29740  0.34049  1.0000
  C   C1723     1.0  0.52468  0.27788  0.25568  1.0000
  C   C1724     1.0  0.79232  0.07293  0.44705  1.0000
  C   C1725     1.0  0.76634  0.10105  0.47717  1.0000
  C   C1726     1.0  0.69999  0.14816  0.33887  1.0000
  C   C1727     1.0  0.71338  0.09798  0.27947  1.0000
  H   H1371     1.0  0.53337  0.15165  0.27128  1.0000
  H   H1372     1.0  0.70037  0.22424  0.24980  1.0000
  C   C1728     1.0  0.57499  0.17740  0.27370  1.0000
  C   C1729     1.0  0.82912  0.20067  0.30771  1.0000
  C   C1730     1.0  0.86474  0.48087  0.30251  1.0000
  C   C1731     1.0  0.73643  0.45153  0.28688  1.0000
  C   C1732     1.0  0.88449  0.13600  0.44581  1.0000
  H   H1373     1.0  0.89808  0.11447  0.47164  1.0000
  C   C1733     1.0  0.53143  0.21014  0.27036  1.0000
  C   C1734     1.0  0.73036  0.12529  0.47478  1.0000
  H   H1374     1.0  0.52817  0.28727  0.26610  1.0000
  C   C1735     1.0  0.77536  0.22550  0.35050  1.0000
  C   C1736     1.0  0.79224  0.25007  0.34551  1.0000
  C   C1737     1.0  0.81988  0.25902  0.34752  1.0000
  C   C1738     1.0  0.83064  0.24383  0.35489  1.0000
  C   C1739     1.0  0.81388  0.21950  0.36039  1.0000
  C   C1740     1.0  0.78609  0.21016  0.35782  1.0000
  P   P56       1.0  0.82852  0.20050  0.37015  1.0000
  C   C1741     1.0  0.80434  0.16712  0.37330  1.0000
  C   C1742     1.0  0.85532  0.19871  0.36028  1.0000
  C   C1743     1.0  0.85439  0.19948  0.34564  1.0000
  C   C1744     1.0  0.87529  0.19846  0.33800  1.0000
  C   C1745     1.0  0.89721  0.19659  0.34491  1.0000
  C   C1746     1.0  0.89811  0.19546  0.35944  1.0000
  C   C1747     1.0  0.87724  0.19644  0.36713  1.0000
  C   C1748     1.0  0.80890  0.14452  0.36923  1.0000
  C   C1749     1.0  0.79115  0.11895  0.37267  1.0000
  C   C1750     1.0  0.76905  0.11579  0.38044  1.0000
  C   C1751     1.0  0.76474  0.13820  0.38486  1.0000
  C   C1752     1.0  0.78231  0.16376  0.38135  1.0000
  C   C1753     1.0  0.84217  0.21701  0.38707  1.0000
  C   C1754     1.0  0.85651  0.24491  0.38849  1.0000
  C   C1755     1.0  0.86735  0.25739  0.40156  1.0000
  C   C1756     1.0  0.86409  0.24220  0.41333  1.0000
  C   C1757     1.0  0.85031  0.21440  0.41199  1.0000
  C   C1758     1.0  0.83960  0.20184  0.39893  1.0000
  H   H1375     1.0  0.75391  0.21821  0.34855  1.0000
  H   H1376     1.0  0.78398  0.26194  0.33980  1.0000
  H   H1377     1.0  0.83311  0.27766  0.34326  1.0000
  H   H1378     1.0  0.85217  0.25099  0.35607  1.0000
  H   H1379     1.0  0.77252  0.19102  0.36124  1.0000
  H   H1380     1.0  0.83773  0.20124  0.34009  1.0000
  H   H1381     1.0  0.87477  0.19976  0.32676  1.0000
  H   H1382     1.0  0.91367  0.19635  0.33905  1.0000
  H   H1383     1.0  0.91518  0.19414  0.36480  1.0000
  H   H1384     1.0  0.87839  0.19555  0.37841  1.0000
  H   H1385     1.0  0.82658  0.14658  0.36384  1.0000
  H   H1386     1.0  0.79494  0.10159  0.36971  1.0000
  H   H1387     1.0  0.75560  0.09602  0.38336  1.0000
  H   H1388     1.0  0.74797  0.13568  0.39122  1.0000
  H   H1389     1.0  0.77916  0.18100  0.38525  1.0000
  H   H1390     1.0  0.86013  0.25720  0.37958  1.0000
  H   H1391     1.0  0.87909  0.27884  0.40243  1.0000
  H   H1392     1.0  0.87313  0.25190  0.42335  1.0000
  H   H1393     1.0  0.84859  0.20239  0.42095  1.0000
  H   H1394     1.0  0.82985  0.18021  0.39817  1.0000
  C   C1759     1.0  0.77177  0.42468  0.26410  1.0000
  C   C1760     1.0  0.56849  0.46626  0.24102  1.0000
  P   P57       1.0  0.76431  0.41999  0.29263  1.0000
  C   C1761     1.0  0.49598  0.25842  0.23492  1.0000
  C   C1762     1.0  0.49656  0.18282  0.32147  1.0000
  H   H1395     1.0  0.80989  0.07191  0.34188  1.0000
  P   P58       1.0  0.51786  0.21147  0.31219  1.0000
  C   C1763     1.0  0.50858  0.23926  0.31536  1.0000
  C   C1764     1.0  0.55237  0.22086  0.31786  1.0000
  C   C1765     1.0  0.56584  0.24314  0.32709  1.0000
  C   C1766     1.0  0.59247  0.24982  0.33150  1.0000
  C   C1767     1.0  0.60571  0.23423  0.32679  1.0000
  C   C1768     1.0  0.59236  0.21199  0.31765  1.0000
  C   C1769     1.0  0.56587  0.20541  0.31318  1.0000
  C   C1770     1.0  0.51330  0.25870  0.30539  1.0000
  C   C1771     1.0  0.48658  0.10833  0.26191  1.0000
  C   C1772     1.0  0.92787  0.15660  0.43564  1.0000
  C   C1773     1.0  0.93095  0.46107  0.25443  1.0000
  H   H1396     1.0  0.78878  0.36337  0.25976  1.0000
  C   C1774     1.0  0.51377  0.20326  0.29357  1.0000
  C   C1775     1.0  0.82347  0.40042  0.26294  1.0000
  H   H1397     1.0  0.77723  0.42785  0.24194  1.0000
  C   C1776     1.0  0.47995  0.11898  0.30067  1.0000
  H   H1398     1.0  0.53642  0.36596  0.27845  1.0000
  C   C1777     1.0  0.53505  0.21551  0.28483  1.0000
  C   C1778     1.0  0.52826  0.04697  0.23943  1.0000
  H   H1399     1.0  0.77450  0.20001  0.28681  1.0000
  P   P59       1.0  0.52441  0.12980  0.24191  1.0000
  H   H1400     1.0  0.81074  0.14031  0.46309  1.0000
  C   C1779     1.0  0.74553  0.20569  0.25572  1.0000
  H   H1401     1.0  0.55584  0.25522  0.33101  1.0000
  H   H1402     1.0  0.60279  0.26690  0.33870  1.0000
  H   H1403     1.0  0.62622  0.23914  0.33033  1.0000
  H   H1404     1.0  0.60236  0.19948  0.31420  1.0000
  H   H1405     1.0  0.55565  0.18780  0.30634  1.0000
  H   H1406     1.0  0.52316  0.25774  0.29592  1.0000
  C   C1780     1.0  0.49902  0.42708  0.26140  1.0000
  C   C1781     1.0  0.77791  0.11772  0.32661  1.0000
  C   C1782     1.0  0.50670  0.16561  0.32755  1.0000
  C   C1783     1.0  0.69479  0.44591  0.29712  1.0000
  C   C1784     1.0  0.75938  0.19559  0.27845  1.0000
  H   H1407     1.0  0.47726  0.26320  0.33894  1.0000
  C   C1785     1.0  0.53962  0.25727  0.23694  1.0000
  S   S241      1.0  0.70291  0.99271  0.40335  1.0000
  H   H1408     1.0  0.55443  0.22931  0.28917  1.0000
  C   C1786     1.0  0.72026  0.29164  0.25124  1.0000
  H   H1409     1.0  0.81522  0.11238  0.44034  1.0000
  H   H1410     1.0  0.88552  0.10436  0.41468  1.0000
  H   H1411     1.0  0.77995  0.09132  0.47789  1.0000
  C   C1787     1.0  0.70382  0.26455  0.25224  1.0000
  C   C1788     1.0  0.71982  0.18569  0.25731  1.0000
  H   H1412     1.0  0.68451  0.15474  0.33589  1.0000
  C   C1789     1.0  0.73888  0.13990  0.33304  1.0000
  H   H1413     1.0  0.52229  0.32988  0.25983  1.0000
  H   H1414     1.0  0.48682  0.03173  0.23259  1.0000
  C   C1790     1.0  0.55101  0.06966  0.24379  1.0000
  C   C1791     1.0  0.55345  0.15301  0.25199  1.0000
  H   H1415     1.0  0.70384  0.18176  0.24948  1.0000
  C   C1792     1.0  0.48887  0.18571  0.28756  1.0000
  S   S242      1.0  0.96911  0.21325  0.41283  1.0000
  C   C1793     1.0  0.48777  0.44797  0.29706  1.0000
  C   C1794     1.0  0.82322  0.22296  0.30994  1.0000
  C   C1795     1.0  0.71416  0.17078  0.26926  1.0000
  H   H1416     1.0  0.80083  0.41569  0.34011  1.0000
  C   C1796     1.0  0.80981  0.06000  0.46764  1.0000
  H   H1417     1.0  0.56927  0.06772  0.24694  1.0000
  C   C1797     1.0  0.48473  0.08045  0.30970  1.0000
  C   C1798     1.0  0.81071  0.17525  0.31094  1.0000
  C   C1799     1.0  0.91099  0.15528  0.44649  1.0000
  H   H1418     1.0  0.90555  0.47586  0.27777  1.0000
  C   C1800     1.0  0.71686  0.10350  0.30472  1.0000
  H   H1419     1.0  0.70757  0.09799  0.31461  1.0000
  H   H1420     1.0  0.71705  0.47843  0.28433  1.0000
  H   H1421     1.0  0.61752  0.20034  0.27355  1.0000
  C   C1801     1.0  0.50651  0.19269  0.26449  1.0000
  H   H1422     1.0  0.90215  0.25588  0.33343  1.0000
  H   H1423     1.0  0.79402  0.23706  0.31663  1.0000
  C   C1802     1.0  0.94917  0.46152  0.26509  1.0000
  C   C1803     1.0  0.54416  0.27054  0.25011  1.0000
  C   C1804     1.0  0.78516  0.41734  0.31944  1.0000
  C   C1805     1.0  0.76387  0.08975  0.32570  1.0000
  C   C1806     1.0  0.94076  0.22690  0.47417  1.0000
  C   C1807     1.0  0.73143  0.10799  0.46400  1.0000
  C   C1808     1.0  0.78043  0.19449  0.31867  1.0000
  C   C1809     1.0  0.90638  0.41340  0.25673  1.0000
  C   C1810     1.0  0.92475  0.41388  0.26727  1.0000
  C   C1811     1.0  0.78631  0.17194  0.31665  1.0000
  H   H1424     1.0  0.81953  0.40377  0.27368  1.0000
  H   H1425     1.0  0.69668  0.03968  0.45805  1.0000
  H   H1426     1.0  0.51258  0.44545  0.26678  1.0000
  H   H1427     1.0  0.96002  0.43830  0.27986  1.0000
  C   C1812     1.0  0.59957  0.18772  0.26743  1.0000
  H   H1428     1.0  0.71800  0.15619  0.31908  1.0000
  C   C1813     1.0  0.90922  0.43702  0.25028  1.0000
  S   S243      1.0  0.94006  0.22908  0.44552  1.0000
  C   C1814     1.0  0.80573  0.26032  0.24698  1.0000
  H   H1429     1.0  0.75380  0.12249  0.34953  1.0000
  H   H1430     1.0  0.85538  0.10224  0.43330  1.0000
  C   C1815     1.0  0.96098  0.18102  0.34992  1.0000
  P   P60       1.0  0.75180  0.22701  0.24092  1.0000
  C   C1816     1.0  0.80759  0.45605  0.33534  1.0000
  P   P61       1.0  0.76209  0.13878  0.32027  1.0000
  P   P62       1.0  0.48124  0.45829  0.24470  1.0000
  C   C1817     1.0  0.49712  0.40284  0.26661  1.0000
  H   H1431     1.0  0.92235  0.39549  0.27215  1.0000
  H   H1432     1.0  0.54289  0.18495  0.23311  1.0000
  H   H1433     1.0  0.49745  0.12892  0.33804  1.0000
  H   H1434     1.0  0.94774  0.17245  0.43594  1.0000
  H   H1435     1.0  0.56813  0.11185  0.24808  1.0000
  C   C1818     1.0  0.89280  0.11827  0.42370  1.0000
  C   C1819     1.0  0.85283  0.41414  0.24351  1.0000
  H   H1436     1.0  0.55459  0.45488  0.24859  1.0000
  C   C1820     1.0  0.73578  0.42843  0.29314  1.0000
  C   C1821     1.0  0.80336  0.12896  0.33343  1.0000
  H   H1437     1.0  0.67820  0.41266  0.31036  1.0000
  C   C1822     1.0  0.50994  0.32784  0.26868  1.0000
  C   C1823     1.0  0.86043  0.20803  0.45016  1.0000
  C   C1824     1.0  0.83411  0.20403  0.45253  1.0000
  H   H1438     1.0  0.94403  0.16861  0.34311  1.0000
  C   C1825     1.0  0.54344  0.46992  0.30211  1.0000
  C   C1826     1.0  0.85085  0.16240  0.45632  1.0000
  C   C1827     1.0  0.86866  0.18726  0.45193  1.0000
  P   P63       1.0  0.86225  0.13620  0.45936  1.0000
  C   C1828     1.0  0.83387  0.10409  0.45872  1.0000
  H   H1439     1.0  0.70164  0.08873  0.26992  1.0000
  C   C1829     1.0  0.82469  0.15888  0.45921  1.0000
  C   C1830     1.0  0.50499  0.27951  0.30749  1.0000
  C   C1831     1.0  0.69419  0.42317  0.30358  1.0000
  C   C1832     1.0  0.94603  0.43795  0.27154  1.0000
  H   H1440     1.0  0.77498  0.14354  0.29048  1.0000
  C   C1833     1.0  0.60122  0.18071  0.25347  1.0000
  C   C1834     1.0  0.74938  0.09590  0.46520  1.0000
  H   H1441     1.0  0.93147  0.13981  0.41554  1.0000
  C   C1835     1.0  0.81387  0.09793  0.44806  1.0000
  H   H1442     1.0  0.76167  0.19278  0.32272  1.0000
  H   H1443     1.0  0.79986  0.35459  0.23562  1.0000
  H   H1444     1.0  0.82765  0.22002  0.45092  1.0000
  H   H1445     1.0  0.56487  0.47808  0.30400  1.0000
  C   C1836     1.0  0.96385  0.17293  0.36332  1.0000
  H   H1446     1.0  0.88900  0.19084  0.44992  1.0000
  H   H1447     1.0  0.92661  0.20639  0.47221  1.0000
  H   H1448     1.0  0.83481  0.12124  0.34380  1.0000
  P   P64       1.0  0.88466  0.43604  0.23701  1.0000
  C   C1837     1.0  0.73975  0.11674  0.27889  1.0000
  H   H1449     1.0  0.81738  0.46394  0.28920  1.0000
  H   H1450     1.0  0.84794  0.20320  0.30336  1.0000
  H   H1451     1.0  0.57401  0.18200  0.28467  1.0000
  C   C1838     1.0  0.81507  0.11247  0.33864  1.0000
  H   H1452     1.0  0.91846  0.16995  0.45516  1.0000
  H   H1453     1.0  0.52750  0.16913  0.32707  1.0000
  C   C1839     1.0  0.84659  0.41845  0.25720  1.0000
  C   C1840     1.0  0.72596  0.00299  0.47368  1.0000
  C   C1841     1.0  0.87563  0.11726  0.43436  1.0000
  C   C1842     1.0  0.70204  0.09121  0.29239  1.0000
  H   H1454     1.0  0.81399  0.15038  0.33497  1.0000
  C   C1843     1.0  0.75557  0.38447  0.29013  1.0000
  C   C1844     1.0  0.77542  0.37467  0.29194  1.0000
  C   C1845     1.0  0.76918  0.34735  0.28982  1.0000
  C   C1846     1.0  0.74323  0.32964  0.28557  1.0000
  C   C1847     1.0  0.72349  0.33929  0.28336  1.0000
  C   C1848     1.0  0.72964  0.36664  0.28552  1.0000
  H   H1455     1.0  0.75221  0.40835  0.26273  1.0000
  C   C1849     1.0  0.55198  0.15998  0.26606  1.0000
  H   H1456     1.0  0.76428  0.05179  0.33061  1.0000
  C   C1850     1.0  0.79878  0.21980  0.31526  1.0000
  C   C1851     1.0  0.49622  0.24150  0.32768  1.0000
  C   C1852     1.0  0.71972  0.12886  0.35574  1.0000
  C   C1853     1.0  0.78293  0.43465  0.27758  1.0000
  C   C1854     1.0  0.78698  0.24183  0.23728  1.0000
  H   H1457     1.0  0.79574  0.38811  0.29518  1.0000
  H   H1458     1.0  0.78445  0.33981  0.29157  1.0000
  H   H1459     1.0  0.73855  0.30843  0.28402  1.0000
  H   H1460     1.0  0.70340  0.32549  0.28004  1.0000
  H   H1461     1.0  0.71420  0.37375  0.28352  1.0000
  H   H1462     1.0  0.77765  0.39592  0.31759  1.0000
  H   H1463     1.0  0.73271  0.17017  0.23118  1.0000
  C   C1855     1.0  0.87723  0.33747  0.23776  1.0000
  C   C1856     1.0  0.74322  0.12271  0.30425  1.0000
  H   H1464     1.0  0.79579  0.17626  0.45884  1.0000
  H   H1465     1.0  0.84180  0.48335  0.26860  1.0000
  H   H1466     1.0  0.72886  0.16524  0.28943  1.0000
  H   H1467     1.0  0.56271  0.27497  0.25607  1.0000
  H   H1468     1.0  0.71912  0.11992  0.36572  1.0000
  C   C1857     1.0  0.57824  0.16362  0.24574  1.0000
  C   C1858     1.0  0.89136  0.46991  0.28590  1.0000
  H   H1469     1.0  0.83748  0.24272  0.30745  1.0000
  C   C1859     1.0  0.80415  0.47250  0.32533  1.0000
  H   H1470     1.0  0.74850  0.12205  0.26885  1.0000
  C   C1860     1.0  0.81622  0.17941  0.45700  1.0000
  C   C1861     1.0  0.80627  0.37768  0.25509  1.0000
  H   H1471     1.0  0.68477  0.13646  0.35914  1.0000
  H   H1472     1.0  0.49284  0.22715  0.33569  1.0000
  C   C1862     1.0  0.79020  0.05397  0.45686  1.0000
  H   H1473     1.0  0.50084  0.10197  0.26697  1.0000
  C   C1863     1.0  0.71477  0.41463  0.30174  1.0000
  C   C1864     1.0  0.52662  0.09768  0.24035  1.0000
  H   H1474     1.0  0.71627  0.13449  0.47390  1.0000
  S   S244      1.0  0.96185  0.23699  0.38251  1.0000
  C   C1865     1.0  0.79129  0.46142  0.31239  1.0000
  C   C1866     1.0  0.48242  0.42728  0.24997  1.0000
  H   H1475     1.0  0.77727  0.06831  0.43860  1.0000
  C   C1867     1.0  0.55024  0.09488  0.24434  1.0000
  C   C1868     1.0  0.88714  0.46987  0.23497  1.0000
  H   H1476     1.0  0.78511  0.22571  0.26590  1.0000
  C   C1869     1.0  0.62457  0.09795  0.23828  1.0000
  H   H1477     1.0  0.64780  0.99101  0.45044  1.0000
  C   C1870     1.0  0.81246  0.37282  0.24153  1.0000
  H   H1478     1.0  0.77338  0.03462  0.45603  1.0000
  C   C1871     1.0  0.78584  0.43571  0.25230  1.0000
  H   H1479     1.0  0.71294  0.30671  0.25393  1.0000
  H   H1480     1.0  0.97263  0.32086  0.36385  1.0000
  C   C1872     1.0  0.81111  0.45681  0.25389  1.0000
  C   C1873     1.0  0.80826  0.45584  0.27904  1.0000
  C   C1874     1.0  0.89686  0.12916  0.47912  1.0000
  C   C1875     1.0  0.75591  0.27989  0.24350  1.0000
  H   H1481     1.0  0.50364  0.18853  0.25329  1.0000
  H   H1482     1.0  0.68370  0.25852  0.25572  1.0000
  C   C1876     1.0  0.82225  0.46690  0.26726  1.0000
  H   H1483     1.0  0.87724  0.47554  0.25622  1.0000
  H   H1484     1.0  0.88995  0.39451  0.25362  1.0000
  C   C1877     1.0  0.71592  0.46008  0.28880  1.0000
  H   H1485     1.0  0.53086  0.48014  0.34285  1.0000
  H   H1486     1.0  0.86013  0.43502  0.26378  1.0000
  C   C1878     1.0  0.50151  0.34687  0.29025  1.0000
  H   H1487     1.0  0.50910  0.40291  0.27584  1.0000
  H   H1488     1.0  0.48836  0.44843  0.33137  1.0000
  H   H1489     1.0  0.67937  0.45312  0.29891  1.0000
  H   H1490     1.0  0.47817  0.14236  0.23424  1.0000
  H   H1491     1.0  0.81797  0.46468  0.34528  1.0000
  C   C1879     1.0  0.47860  0.37859  0.26051  1.0000
  C   C1880     1.0  0.84134  0.26595  0.23143  1.0000
  C   C1881     1.0  0.74621  0.29927  0.24679  1.0000
  H   H1492     1.0  0.84713  0.28605  0.25172  1.0000
  C   C1882     1.0  0.50341  0.47530  0.29499  1.0000
  H   H1493     1.0  0.65312  0.16351  0.23079  1.0000
  C   C1883     1.0  0.73980  0.25262  0.24491  1.0000
  H   H1494     1.0  0.93377  0.47957  0.24961  1.0000
  C   C1884     1.0  0.48755  0.26207  0.32963  1.0000
  C   C1885     1.0  0.88089  0.14302  0.47597  1.0000
  C   C1886     1.0  0.83280  0.27184  0.24417  1.0000
  C   C1887     1.0  0.48527  0.18050  0.27310  1.0000
  H   H1495     1.0  0.80808  0.04533  0.47528  1.0000
  H   H1496     1.0  0.61832  0.00053  0.46693  1.0000
  H   H1497     1.0  0.50853  0.29437  0.29974  1.0000
  C   C1888     1.0  0.50373  0.07465  0.23617  1.0000
  C   C1889     1.0  0.48966  0.14266  0.33391  1.0000
  H   H1498     1.0  0.96560  0.48020  0.26846  1.0000
  H   H1499     1.0  0.58001  0.15792  0.23501  1.0000
  C   C1890     1.0  0.50460  0.04944  0.23567  1.0000
  C   C1891     1.0  0.48583  0.30520  0.26952  1.0000
  H   H1500     1.0  0.77597  0.28643  0.23992  1.0000
  H   H1501     1.0  0.75897  0.32021  0.24601  1.0000
  H   H1502     1.0  0.78856  0.47444  0.30483  1.0000
  H   H1503     1.0  0.84684  0.08893  0.47676  1.0000
  S   S245      1.0  0.48094  0.39773  0.30638  1.0000
  H   H1504     1.0  0.48480  0.29675  0.32098  1.0000
  C   C1892     1.0  0.62685  0.98646  0.46955  1.0000
  S   S246      1.0  0.97569  0.27562  0.41135  1.0000
  H   H1505     1.0  0.47631  0.35986  0.26489  1.0000
  Fe  Fe123     1.0  0.74920  0.04726  0.55625  1.0000
  S   S247      1.0  0.70699  0.04118  0.54976  1.0000
  S   S248      1.0  0.78022  0.08826  0.56490  1.0000
  H   H1506     1.0  0.86826  0.20109  0.52296  1.0000
  C   C1893     1.0  0.91131  0.13413  0.49196  1.0000
  Fe  Fe124     1.0  0.71272  0.01922  0.53055  1.0000
  S   S249      1.0  0.70276  0.03099  0.50888  1.0000
  Fe  Fe125     1.0  0.69263  0.00206  0.56082  1.0000
  H   H1507     1.0  0.79672  0.17019  0.48538  1.0000
  S   S250      1.0  0.75495  0.02671  0.53681  1.0000
  S   S251      1.0  0.73453  0.00971  0.56861  1.0000
  Fe  Fe126     1.0  0.92760  0.20840  0.54511  1.0000
  S   S252      1.0  0.93559  0.25253  0.54432  1.0000
  S   S253      1.0  0.88925  0.17006  0.53969  1.0000
  C   C1894     1.0  0.96588  0.26378  0.49090  1.0000
  C   C1895     1.0  0.94821  0.23707  0.48810  1.0000
  H   H1508     1.0  0.74602  0.14370  0.49513  1.0000
  C   C1896     1.0  0.63848  0.00539  0.52841  1.0000
  S   S254      1.0  0.95689  0.21102  0.52854  1.0000
  H   H1509     1.0  0.64931  0.02693  0.52831  1.0000
  H   H1510     1.0  0.73018  0.09090  0.50750  1.0000
  H   H1511     1.0  0.86761  0.23162  0.50458  1.0000
  H   H1512     1.0  0.92124  0.15706  0.51169  1.0000
  H   H1513     1.0  0.84148  0.12734  0.50229  1.0000
  C   C1897     1.0  0.63885  0.98485  0.61446  1.0000
  C   C1898     1.0  0.71030  0.02564  0.49132  1.0000
  H   H1514     1.0  0.85955  0.09342  0.50497  1.0000
  H   H1515     1.0  0.69132  0.04995  0.48294  1.0000
  H   H1516     1.0  0.74751  0.99718  0.59921  1.0000
  H   H1517     1.0  0.67218  0.00384  0.60121  1.0000
  C   C1899     1.0  0.81094  0.11040  0.55795  1.0000
  C   C1900     1.0  0.82051  0.10410  0.54557  1.0000
  C   C1901     1.0  0.84483  0.12229  0.54050  1.0000
  C   C1902     1.0  0.85990  0.14723  0.54752  1.0000
  C   C1903     1.0  0.85038  0.15353  0.55991  1.0000
  C   C1904     1.0  0.82613  0.13524  0.56507  1.0000
  H   H1518     1.0  0.80923  0.08518  0.53992  1.0000
  H   H1519     1.0  0.85212  0.11705  0.53104  1.0000
  H   H1520     1.0  0.86154  0.17257  0.56547  1.0000
  H   H1521     1.0  0.81904  0.14042  0.57465  1.0000
  H   H1522     1.0  0.86839  0.17376  0.48354  1.0000
  H   H1523     1.0  0.82913  0.04613  0.50834  1.0000
  C   C1905     1.0  0.91019  0.15320  0.50167  1.0000
  H   H1524     1.0  0.64957  0.99637  0.62378  1.0000
  C   C1906     1.0  0.72354  0.00932  0.48784  1.0000
  S   S255      1.0  0.95861  0.21615  0.56269  1.0000
  H   H1525     1.0  0.73106  0.00084  0.49605  1.0000
  Fe  Fe127     1.0  0.73681  0.98881  0.54843  1.0000
  Fe  Fe128     1.0  0.96625  0.25471  0.52851  1.0000
  Fe  Fe129     1.0  0.96899  0.26061  0.56103  1.0000
  C   C1907     1.0  0.65184  0.98914  0.60161  1.0000
  H   H1526     1.0  0.76197  0.06724  0.50711  1.0000
  H   H1527     1.0  0.78024  0.03322  0.50898  1.0000
  H   H1528     1.0  0.89451  0.18252  0.50603  1.0000
  H   H1529     1.0  0.83451  0.15483  0.52222  1.0000
  C   C1908     1.0  0.74721  0.13043  0.48678  1.0000
  H   H1530     1.0  0.93992  0.22436  0.49667  1.0000
  C   C1909     1.0  0.89488  0.16750  0.49849  1.0000
  H   H1531     1.0  0.92352  0.12334  0.49440  1.0000
  C   C1910     1.0  0.72275  0.09695  0.52880  1.0000
  C   C1911     1.0  0.73349  0.10982  0.54178  1.0000
  C   C1912     1.0  0.76022  0.12784  0.54321  1.0000
  C   C1913     1.0  0.77629  0.13307  0.53170  1.0000
  C   C1914     1.0  0.76566  0.12044  0.51854  1.0000
  C   C1915     1.0  0.73877  0.10203  0.51728  1.0000
  P   P65       1.0  0.78665  0.12492  0.50376  1.0000
  C   C1916     1.0  0.76534  0.11836  0.48806  1.0000
  C   C1917     1.0  0.81239  0.15884  0.50396  1.0000
  C   C1918     1.0  0.83311  0.16799  0.51438  1.0000
  C   C1919     1.0  0.85258  0.19423  0.51472  1.0000
  C   C1920     1.0  0.85219  0.21142  0.50439  1.0000
  C   C1921     1.0  0.83202  0.20248  0.49380  1.0000
  C   C1922     1.0  0.81212  0.17642  0.49363  1.0000
  H   H1532     1.0  0.83181  0.21582  0.48575  1.0000
  H   H1533     1.0  0.76886  0.13691  0.55343  1.0000
  H   H1534     1.0  0.79703  0.14638  0.53339  1.0000
  H   H1535     1.0  0.72140  0.10518  0.55086  1.0000
  C   C1923     1.0  0.88018  0.16245  0.48571  1.0000
  C   C1924     1.0  0.80037  0.10005  0.50473  1.0000
  C   C1925     1.0  0.78328  0.07320  0.50643  1.0000
  C   C1926     1.0  0.79359  0.05378  0.50748  1.0000
  C   C1927     1.0  0.82107  0.06103  0.50704  1.0000
  C   C1928     1.0  0.83818  0.08762  0.50513  1.0000
  C   C1929     1.0  0.82784  0.10698  0.50376  1.0000
  H   H1536     1.0  0.70227  0.08223  0.52776  1.0000
  H   H1537     1.0  0.64753  0.99888  0.50744  1.0000
  H   H1538     1.0  0.70928  0.99025  0.61408  1.0000
  C   C1930     1.0  0.70141  0.03713  0.48043  1.0000
  C   C1931     1.0  0.63733  0.98936  0.51654  1.0000
  H   H1539     1.0  0.62862  0.00596  0.55000  1.0000
  C   C1932     1.0  0.62688  0.99361  0.54061  1.0000
  S   S256      1.0  0.97520  0.27780  0.50834  1.0000
  C   C1933     1.0  0.83006  0.99385  0.93677  1.0000
  C   C1934     1.0  0.86651  0.07221  0.92827  1.0000
  Fe  Fe130     1.0  0.77485  0.06777  0.90602  1.0000
  S   S257      1.0  0.73219  0.06019  0.91072  1.0000
  S   S258      1.0  0.80389  0.11224  0.90513  1.0000
  Fe  Fe131     1.0  0.73670  0.03499  0.92787  1.0000
  S   S259      1.0  0.71959  0.03825  0.94898  1.0000
  Fe  Fe132     1.0  0.71860  0.02326  0.89609  1.0000
  H   H1540     1.0  0.82756  0.99876  0.92609  1.0000
  S   S260      1.0  0.77955  0.04407  0.92390  1.0000
  S   S261      1.0  0.76097  0.03268  0.89007  1.0000
  Fe  Fe133     1.0  0.95426  0.22363  0.89546  1.0000
  S   S262      1.0  0.94837  0.26210  0.89775  1.0000
  S   S263      1.0  0.92441  0.18119  0.88809  1.0000
  C   C1935     1.0  0.66228  0.99466  0.86602  1.0000
  H   H1541     1.0  0.83607  0.10795  0.94619  1.0000
  C   C1936     1.0  0.81179  0.17224  0.93564  1.0000
  C   C1937     1.0  0.96817  0.23135  0.84995  1.0000
  S   S264      1.0  0.67800  0.00441  0.88325  1.0000
  H   H1542     1.0  0.75777  0.14717  0.96313  1.0000
  H   H1543     1.0  0.83583  0.15383  0.97411  1.0000
  C   C1938     1.0  0.87246  0.28660  0.94793  1.0000
  H   H1544     1.0  0.92841  0.28071  0.96512  1.0000
  C   C1939     1.0  0.85465  0.00679  0.94411  1.0000
  C   C1940     1.0  0.73193  0.03648  0.96610  1.0000
  C   C1941     1.0  0.75541  0.03273  0.96851  1.0000
  H   H1545     1.0  0.61539  0.01757  0.80940  1.0000
  H   H1546     1.0  0.76569  0.09875  0.96745  1.0000
  C   C1942     1.0  0.95921  0.25461  0.83071  1.0000
  C   C1943     1.0  0.85661  0.27376  0.95886  1.0000
  H   H1547     1.0  0.76673  0.03113  0.95975  1.0000
  H   H1548     1.0  0.58952  0.01588  0.76664  1.0000
  C   C1944     1.0  0.71777  0.03917  0.97762  1.0000
  C   C1945     1.0  0.89130  0.16225  0.89351  1.0000
  C   C1946     1.0  0.87518  0.17451  0.89861  1.0000
  C   C1947     1.0  0.84852  0.15885  0.90188  1.0000
  C   C1948     1.0  0.83765  0.13068  0.90049  1.0000
  C   C1949     1.0  0.85388  0.11835  0.89558  1.0000
  C   C1950     1.0  0.88037  0.13405  0.89197  1.0000
  H   H1549     1.0  0.88305  0.19611  0.89972  1.0000
  H   H1550     1.0  0.83614  0.16871  0.90537  1.0000
  H   H1551     1.0  0.84589  0.09676  0.89435  1.0000
  H   H1552     1.0  0.89247  0.12429  0.88790  1.0000
  C   C1951     1.0  0.77295  0.15405  0.95548  1.0000
  C   C1952     1.0  0.87579  0.24530  0.94073  1.0000
  H   H1553     1.0  0.52397  0.07252  0.84926  1.0000
  C   C1953     1.0  0.60213  0.03004  0.84991  1.0000
  C   C1954     1.0  0.80003  0.10416  0.95556  1.0000
  C   C1955     1.0  0.88194  0.27234  0.93886  1.0000
  C   C1956     1.0  0.58153  0.02783  0.80620  1.0000
  H   H1554     1.0  0.66758  0.05625  0.86114  1.0000
  H   H1555     1.0  0.97242  0.42295  0.76473  1.0000
  H   H1556     1.0  0.58266  0.01842  0.85376  1.0000
  C   C1957     1.0  0.78537  0.15578  0.93141  1.0000
  H   H1557     1.0  0.91155  0.22258  0.95360  1.0000
  C   C1958     1.0  0.86827  0.07094  0.97807  1.0000
  H   H1558     1.0  0.92026  0.12419  0.95383  1.0000
  C   C1959     1.0  0.92127  0.17836  0.97757  1.0000
  C   C1960     1.0  0.86770  0.16395  0.93760  1.0000
  C   C1961     1.0  0.91316  0.17356  0.93157  1.0000
  H   H1559     1.0  0.49954  0.99541  0.76488  1.0000
  H   H1560     1.0  0.72653  0.98724  0.94709  1.0000
  H   H1561     1.0  0.89196  0.23646  0.97602  1.0000
  H   H1562     1.0  0.79051  0.10570  0.94572  1.0000
  S   S265      1.0  0.72018  0.99762  0.91381  1.0000
  C   C1962     1.0  0.93532  0.25214  0.83657  1.0000
  C   C1963     1.0  0.92783  0.23925  0.84907  1.0000
  C   C1964     1.0  0.94422  0.22881  0.85573  1.0000
  H   H1563     1.0  0.53876  0.03622  0.84451  1.0000
  C   C1965     1.0  0.89178  0.08801  0.92369  1.0000
  H   H1564     1.0  0.97027  0.36820  0.86901  1.0000
  C   C1966     1.0  0.91111  0.10647  0.93301  1.0000
  H   H1565     1.0  0.67229  0.00640  0.83141  1.0000
  S   S266      1.0  0.97290  0.22729  0.91701  1.0000
  C   C1967     1.0  0.54787  0.09766  0.83365  1.0000
  C   C1968     1.0  0.83788  0.10180  0.96843  1.0000
  P   P66       1.0  0.85397  0.19812  0.95520  1.0000
  H   H1566     1.0  0.83861  0.23713  0.96945  1.0000
  C   C1969     1.0  0.95868  0.26996  0.95642  1.0000
  C   C1970     1.0  0.56626  0.10035  0.82340  1.0000
  H   H1567     1.0  0.89456  0.28229  0.93049  1.0000
  H   H1568     1.0  0.55309  0.02841  0.77407  1.0000
  P   P67       1.0  0.57551  0.02998  0.82455  1.0000
  C   C1971     1.0  0.56408  0.05609  0.82783  1.0000
  H   H1569     1.0  0.88337  0.23479  0.93348  1.0000
  H   H1570     1.0  0.89634  0.08601  0.91289  1.0000
  H   H1571     1.0  0.92268  0.26043  0.83148  1.0000
  H   H1572     1.0  0.90938  0.23740  0.85366  1.0000
  H   H1573     1.0  0.93839  0.21881  0.86544  1.0000
  H   H1574     1.0  0.62272  0.02923  0.86934  1.0000
  C   C1972     1.0  0.82590  0.10513  0.95586  1.0000
  H   H1575     1.0  0.69649  0.01838  0.85474  1.0000
  C   C1973     1.0  0.89359  0.13056  0.97774  1.0000
  H   H1576     1.0  0.84063  0.06286  0.94544  1.0000
  C   C1974     1.0  0.60479  0.03828  0.83609  1.0000
  C   C1975     1.0  0.63027  0.05457  0.83172  1.0000
  C   C1976     1.0  0.58757  0.01973  0.77763  1.0000
  C   C1977     1.0  0.90411  0.20417  0.94718  1.0000
  P   P68       1.0  0.87006  0.09982  0.96884  1.0000
  C   C1978     1.0  0.94411  0.27407  0.96744  1.0000
  H   H1577     1.0  0.93076  0.11858  0.92945  1.0000
  H   H1578     1.0  0.87697  0.01018  0.96345  1.0000
  C   C1979     1.0  0.74160  0.99357  0.85478  1.0000
  C   C1980     1.0  0.76597  0.14651  0.94134  1.0000
  H   H1579     1.0  0.85148  0.05788  0.92104  1.0000
  H   H1580     1.0  0.80441  0.17591  0.97072  1.0000
  Fe  Fe134     1.0  0.96871  0.26617  0.91922  1.0000
  H   H1581     1.0  0.54727  0.03510  0.79916  1.0000
  C   C1981     1.0  0.53798  0.07448  0.84119  1.0000
  C   C1982     1.0  0.54626  0.05386  0.83841  1.0000
  C   C1983     1.0  0.86200  0.19569  0.97341  1.0000
  C   C1984     1.0  0.92225  0.19696  0.94014  1.0000
  C   C1985     1.0  0.54924  0.99784  0.82771  1.0000
  H   H1582     1.0  0.87749  0.30762  0.94651  1.0000
  C   C1986     1.0  0.60514  0.01681  0.78764  1.0000
  H   H1583     1.0  0.82647  0.17961  0.92779  1.0000
  C   C1987     1.0  0.76552  0.99699  0.86184  1.0000
  H   H1584     1.0  0.92903  0.19681  0.97211  1.0000
  C   C1988     1.0  0.87665  0.18801  0.94580  1.0000
  C   C1989     1.0  0.65284  0.06102  0.84071  1.0000
  H   H1585     1.0  0.87122  0.02180  0.93914  1.0000
  C   C1990     1.0  0.81932  0.17850  0.94988  1.0000
  H   H1586     1.0  0.78004  0.14996  0.92042  1.0000
  S   S267      1.0  0.95073  0.27555  0.93894  1.0000
  H   H1587     1.0  0.54146  0.11363  0.83584  1.0000
  Fe  Fe135     1.0  0.76265  0.00850  0.90843  1.0000
  H   H1588     1.0  0.74554  0.13352  0.93804  1.0000
  H   H1589     1.0  0.63280  0.06218  0.82135  1.0000
  H   H1590     1.0  0.62058  0.01058  0.78440  1.0000
  C   C1991     1.0  0.86038  0.07527  0.94210  1.0000
  C   C1992     1.0  0.88593  0.15687  0.93048  1.0000
  C   C1993     1.0  0.97587  0.24423  0.83738  1.0000
  H   H1591     1.0  0.76701  0.98671  0.95886  1.0000
  H   H1592     1.0  0.73994  0.01020  0.84965  1.0000
  C   C1994     1.0  0.60212  0.02081  0.80185  1.0000
  H   H1593     1.0  0.94335  0.20988  0.94124  1.0000
  C   C1995     1.0  0.56698  0.02669  0.78184  1.0000
  C   C1996     1.0  0.57454  0.07974  0.82058  1.0000
  C   C1997     1.0  0.65008  0.05180  0.85424  1.0000
  H   H1594     1.0  0.84680  0.15065  0.93650  1.0000
  C   C1998     1.0  0.79950  0.17013  0.95975  1.0000
  C   C1999     1.0  0.52266  0.99224  0.82347  1.0000
  H   H1595     1.0  0.97069  0.41990  0.73877  1.0000
  H   H1596     1.0  0.87883  0.13871  0.92383  1.0000
  C   C2000     1.0  0.56385  0.03058  0.79607  1.0000
  H   H1597     1.0  0.92714  0.16853  0.92564  1.0000
  C   C2001     1.0  0.90332  0.15450  0.97073  1.0000
  C   C2002     1.0  0.87916  0.09491  0.95131  1.0000
  H   H1598     1.0  0.58912  0.08228  0.81276  1.0000
  C   C2003     1.0  0.62473  0.03648  0.85886  1.0000
  C   C2004     1.0  0.90494  0.10978  0.94682  1.0000
  C   C2005     1.0  0.85067  0.24678  0.96086  1.0000
  H   H1599     1.0  0.78243  0.01625  0.86217  1.0000
  H   H1600     1.0  0.57422  0.11848  0.81769  1.0000
  H   H1601     1.0  0.51761  0.00708  0.81843  1.0000
  C   C2006     1.0  0.66178  0.99791  0.84063  1.0000
  H   H1602     1.0  0.69960  0.04212  0.97586  1.0000
  H   H1603     1.0  0.82522  0.05002  0.97565  1.0000
  H   H1604     1.0  0.67253  0.07293  0.83717  1.0000
  H   H1605     1.0  0.89707  0.15465  0.95997  1.0000
  C   C2007     1.0  0.86072  0.23252  0.95199  1.0000
  H   H1606     1.0  0.84917  0.28481  0.96585  1.0000
  H   H1607     1.0  0.96466  0.26497  0.82112  1.0000
  C   C2008     1.0  0.67565  0.00471  0.85388  1.0000
  H   H1608     1.0  0.47836  0.41839  0.83887  1.0000
  C   C2009     1.0  0.85785  0.00018  0.95779  1.0000
  C   C2010     1.0  0.78612  0.10046  0.96782  1.0000
  H   H1609     1.0  0.96947  0.14903  0.82384  1.0000
  H   H1610     1.0  0.97155  0.19136  0.83430  1.0000
  Fe  Fe136     1.0  0.72497  0.77790  0.03205  1.0000
  S   S268      1.0  0.76631  0.80641  0.03955  1.0000
  S   S269      1.0  0.71158  0.78599  0.01032  1.0000
  Fe  Fe137     1.0  0.71286  0.75198  0.06148  1.0000
  S   S270      1.0  0.75315  0.78048  0.07055  1.0000
  S   S271      1.0  0.68428  0.71435  0.07248  1.0000
  Fe  Fe138     1.0  0.74673  0.81290  0.05876  1.0000
  S   S272      1.0  0.76170  0.85636  0.06737  1.0000
  Fe  Fe139     1.0  0.76869  0.77182  0.05047  1.0000
  S   S273      1.0  0.79988  0.75491  0.05014  1.0000
  S   S274      1.0  0.70497  0.78526  0.05114  1.0000
  S   S275      1.0  0.72883  0.74245  0.04149  1.0000
  Fe  Fe140     1.0  0.94983  0.79952  0.05015  1.0000
  S   S276      1.0  0.92514  0.82244  0.05631  1.0000
  S   S277      1.0  0.93026  0.75947  0.03896  1.0000
  Fe  Fe141     1.0  0.88160  0.55809  0.13982  1.0000
  S   S278      1.0  0.90722  0.60003  0.14837  1.0000
  S   S279      1.0  0.90050  0.52809  0.13643  1.0000
  Fe  Fe142     1.0  0.83251  0.56999  0.13863  1.0000
  S   S280      1.0  0.85411  0.61214  0.14747  1.0000
  S   S281      1.0  0.78917  0.55280  0.13098  1.0000
  Fe  Fe143     1.0  0.88582  0.61490  0.13237  1.0000
  S   S282      1.0  0.90517  0.65550  0.12170  1.0000
  Fe  Fe144     1.0  0.87371  0.59441  0.16276  1.0000
  S   S283      1.0  0.88627  0.60935  0.18566  1.0000
  S   S284      1.0  0.86290  0.57331  0.12272  1.0000
  S   S285      1.0  0.84950  0.55184  0.15498  1.0000
  Fe  Fe145     1.0  0.64886  0.61492  0.14362  1.0000
  S   S286      1.0  0.65254  0.57584  0.13913  1.0000
  S   S287      1.0  0.66765  0.65212  0.13005  1.0000
  Fe  Fe146     1.0  0.63213  0.59842  0.17434  1.0000
  S   S288      1.0  0.63523  0.55916  0.17129  1.0000
  S   S289      1.0  0.62263  0.61104  0.19578  1.0000
  Fe  Fe147     1.0  0.67282  0.58251  0.16051  1.0000
  S   S290      1.0  0.71250  0.58405  0.16855  1.0000
  Fe  Fe148     1.0  0.61385  0.55596  0.15042  1.0000
  S   S291      1.0  0.58208  0.51479  0.14235  1.0000
  S   S292      1.0  0.67079  0.62201  0.16467  1.0000
  S   S293      1.0  0.60889  0.59472  0.15383  1.0000
  S   S294      1.0  0.71886  0.94584  0.05394  1.0000
  C   C2011     1.0  0.62923  0.59824  0.21165  1.0000
  C   C2012     1.0  0.88451  0.49345  0.13964  1.0000
  C   C2013     1.0  0.74790  0.89925  0.02063  1.0000
  C   C2014     1.0  0.67188  0.93377  0.14157  1.0000
  C   C2015     1.0  0.64210  0.58080  0.21189  1.0000
  H   H1611     1.0  0.81548  0.93632  0.98863  1.0000
  H   H1612     1.0  0.64801  0.57453  0.20223  1.0000
  C   C2016     1.0  0.57426  0.52399  0.19325  1.0000
  H   H1613     1.0  0.66069  0.87265  0.07711  1.0000
  C   C2017     1.0  0.53484  0.50496  0.15611  1.0000
  C   C2018     1.0  0.66123  0.82699  0.03497  1.0000
  H   H1614     1.0  0.54393  0.52572  0.15983  1.0000
  C   C2019     1.0  0.67870  0.88440  0.08338  1.0000
  C   C2020     1.0  0.49622  0.65012  0.13087  1.0000
  H   H1615     1.0  0.69608  0.85576  0.08033  1.0000
  C   C2021     1.0  0.87153  0.59785  0.20187  1.0000
  C   C2022     1.0  0.84461  0.58052  0.20268  1.0000
  C   C2023     1.0  0.59535  0.65361  0.14742  1.0000
  C   C2024     1.0  0.88727  0.60734  0.21440  1.0000
  H   H1616     1.0  0.83212  0.57322  0.19320  1.0000
  H   H1617     1.0  0.90808  0.62080  0.21394  1.0000
  C   C2025     1.0  0.76802  0.56211  0.14123  1.0000
  C   C2026     1.0  0.77744  0.57647  0.15401  1.0000
  C   C2027     1.0  0.76015  0.58319  0.16222  1.0000
  C   C2028     1.0  0.73351  0.57596  0.15762  1.0000
  C   C2029     1.0  0.72409  0.56183  0.14478  1.0000
  C   C2030     1.0  0.74129  0.55465  0.13666  1.0000
  H   H1618     1.0  0.79793  0.58209  0.15766  1.0000
  H   H1619     1.0  0.76744  0.59403  0.17216  1.0000
  H   H1620     1.0  0.70352  0.55613  0.14122  1.0000
  H   H1621     1.0  0.73391  0.54340  0.12681  1.0000
  C   C2031     1.0  0.92735  0.69224  0.07829  1.0000
  C   C2032     1.0  0.91301  0.66438  0.07925  1.0000
  C   C2033     1.0  0.90525  0.65284  0.09229  1.0000
  C   C2034     1.0  0.91210  0.66894  0.10469  1.0000
  C   C2035     1.0  0.92584  0.69683  0.10369  1.0000
  C   C2036     1.0  0.93323  0.70841  0.09064  1.0000
  H   H1622     1.0  0.90813  0.65156  0.06983  1.0000
  H   H1623     1.0  0.89445  0.63143  0.09276  1.0000
  H   H1624     1.0  0.93130  0.70962  0.11314  1.0000
  H   H1625     1.0  0.94412  0.72982  0.09020  1.0000
  C   C2037     1.0  0.83436  0.77452  0.05264  1.0000
  C   C2038     1.0  0.85152  0.76136  0.05298  1.0000
  C   C2039     1.0  0.87925  0.77597  0.05429  1.0000
  C   C2040     1.0  0.89015  0.80390  0.05540  1.0000
  C   C2041     1.0  0.87294  0.81715  0.05555  1.0000
  C   C2042     1.0  0.84503  0.80248  0.05407  1.0000
  H   H1626     1.0  0.84334  0.73974  0.05229  1.0000
  H   H1627     1.0  0.89213  0.76554  0.05470  1.0000
  H   H1628     1.0  0.88121  0.83876  0.05654  1.0000
  H   H1629     1.0  0.83185  0.81275  0.05394  1.0000
  C   C2043     1.0  0.75085  0.88127  0.06199  1.0000
  C   C2044     1.0  0.76678  0.90835  0.06577  1.0000
  C   C2045     1.0  0.75793  0.92857  0.06278  1.0000
  C   C2046     1.0  0.73259  0.92181  0.05640  1.0000
  C   C2047     1.0  0.71697  0.89483  0.05229  1.0000
  C   C2048     1.0  0.72619  0.87472  0.05488  1.0000
  H   H1630     1.0  0.78592  0.91363  0.07125  1.0000
  H   H1631     1.0  0.77039  0.94922  0.06577  1.0000
  H   H1632     1.0  0.69737  0.88934  0.04732  1.0000
  H   H1633     1.0  0.71375  0.85403  0.05191  1.0000
  C   C2049     1.0  0.68177  0.69729  0.08850  1.0000
  C   C2050     1.0  0.66522  0.66970  0.08854  1.0000
  C   C2051     1.0  0.66118  0.65550  0.10097  1.0000
  C   C2052     1.0  0.67327  0.66872  0.11376  1.0000
  C   C2053     1.0  0.69025  0.69620  0.11369  1.0000
  C   C2054     1.0  0.69456  0.71034  0.10121  1.0000
  H   H1634     1.0  0.65517  0.65921  0.07886  1.0000
  H   H1635     1.0  0.64839  0.63438  0.10063  1.0000
  H   H1636     1.0  0.69993  0.70677  0.12342  1.0000
  H   H1637     1.0  0.70724  0.73151  0.10151  1.0000
  C   C2055     1.0  0.71824  0.77792  0.99305  1.0000
  H   H1638     1.0  0.83907  0.80934  0.01785  1.0000
  H   H1639     1.0  0.71388  0.67622  0.07362  1.0000
  H   H1640     1.0  0.77135  0.55573  0.20546  1.0000
  H   H1641     1.0  0.80344  0.84690  0.99501  1.0000
  P   P69       1.0  0.57837  0.64590  0.13034  1.0000
  H   H1642     1.0  0.77617  0.60574  0.19672  1.0000
  C   C2056     1.0  0.64057  0.83471  0.03802  1.0000
  H   H1643     1.0  0.61721  0.50997  0.21433  1.0000
  H   H1644     1.0  0.53697  0.59264  0.13538  1.0000
  C   C2057     1.0  0.77046  0.89795  0.02718  1.0000
  H   H1645     1.0  0.89237  0.73320  0.98788  1.0000
  C   C2058     1.0  0.57153  0.56032  0.12035  1.0000
  H   H1646     1.0  0.62679  0.82471  0.04593  1.0000
  C   C2059     1.0  0.84991  0.49524  0.18666  1.0000
  H   H1647     1.0  0.75726  0.97020  0.98327  1.0000
  C   C2060     1.0  0.62203  0.60637  0.22440  1.0000
  H   H1648     1.0  0.89420  0.56084  0.18924  1.0000
  C   C2061     1.0  0.68953  0.97143  0.09768  1.0000
  H   H1649     1.0  0.73532  0.95234  0.15506  1.0000
  H   H1650     1.0  0.80082  0.67867  0.99013  1.0000
  H   H1651     1.0  0.71094  0.50974  0.17422  1.0000
  H   H1652     1.0  0.68536  0.64854  0.21769  1.0000
  C   C2062     1.0  0.59406  0.58239  0.11670  1.0000
  C   C2063     1.0  0.55665  0.49747  0.19527  1.0000
  C   C2064     1.0  0.79364  0.68481  0.99944  1.0000
  H   H1653     1.0  0.81893  0.58905  0.11050  1.0000
  H   H1654     1.0  0.70479  0.96533  0.02191  1.0000
  C   C2065     1.0  0.60368  0.49719  0.22164  1.0000
  C   C2066     1.0  0.94978  0.62749  0.11032  1.0000
  H   H1655     1.0  0.90603  0.51952  0.21170  1.0000
  C   C2067     1.0  0.69780  0.63746  0.21836  1.0000
  H   H1656     1.0  0.49808  0.50538  0.19386  1.0000
  C   C2068     1.0  0.82761  0.63783  0.03076  1.0000
  C   C2069     1.0  0.88638  0.53950  0.18670  1.0000
  C   C2070     1.0  0.83520  0.63089  0.10628  1.0000
  H   H1657     1.0  0.65888  0.55937  0.22475  1.0000
  C   C2071     1.0  0.51938  0.51066  0.19376  1.0000
  C   C2072     1.0  0.50102  0.63378  0.12078  1.0000
  C   C2073     1.0  0.79490  0.78257  0.98826  1.0000
  C   C2074     1.0  0.70238  0.92707  0.01415  1.0000
  H   H1658     1.0  0.71968  0.64057  0.08682  1.0000
  C   C2075     1.0  0.80504  0.75141  0.11467  1.0000
  C   C2076     1.0  0.78600  0.74791  0.10389  1.0000
  C   C2077     1.0  0.76412  0.72334  0.10170  1.0000
  C   C2078     1.0  0.76142  0.70206  0.11010  1.0000
  C   C2079     1.0  0.78080  0.70516  0.12076  1.0000
  C   C2080     1.0  0.80237  0.73022  0.12313  1.0000
  P   P70       1.0  0.77782  0.67791  0.13179  1.0000
  C   C2081     1.0  0.75646  0.64594  0.12342  1.0000
  C   C2082     1.0  0.72876  0.63854  0.12225  1.0000
  C   C2083     1.0  0.71168  0.61328  0.11661  1.0000
  C   C2084     1.0  0.72205  0.59495  0.11233  1.0000
  C   C2085     1.0  0.74957  0.60202  0.11358  1.0000
  C   C2086     1.0  0.76678  0.62745  0.11906  1.0000
  C   C2087     1.0  0.81064  0.67860  0.13566  1.0000
  C   C2088     1.0  0.81636  0.66918  0.14827  1.0000
  C   C2089     1.0  0.84174  0.66978  0.15119  1.0000
  C   C2090     1.0  0.86158  0.67963  0.14153  1.0000
  C   C2091     1.0  0.85606  0.68888  0.12893  1.0000
  C   C2092     1.0  0.83062  0.68812  0.12592  1.0000
  H   H1659     1.0  0.82181  0.77062  0.11649  1.0000
  H   H1660     1.0  0.78801  0.76429  0.09728  1.0000
  H   H1661     1.0  0.74910  0.72087  0.09350  1.0000
  H   H1662     1.0  0.74412  0.68343  0.10821  1.0000
  H   H1663     1.0  0.81717  0.73339  0.13155  1.0000
  H   H1664     1.0  0.69031  0.60778  0.11592  1.0000
  H   H1665     1.0  0.70871  0.57504  0.10838  1.0000
  H   H1666     1.0  0.75751  0.58745  0.11079  1.0000
  H   H1667     1.0  0.78791  0.63217  0.12024  1.0000
  H   H1668     1.0  0.77039  0.72258  0.14649  1.0000
  H   H1669     1.0  0.80132  0.66112  0.15586  1.0000
  H   H1670     1.0  0.84596  0.66225  0.16087  1.0000
  H   H1671     1.0  0.88113  0.67967  0.14369  1.0000
  H   H1672     1.0  0.87150  0.69615  0.12142  1.0000
  H   H1673     1.0  0.82656  0.69478  0.11595  1.0000
  H   H1674     1.0  0.81323  0.52132  0.17765  1.0000
  C   C2093     1.0  0.69907  0.53183  0.18960  1.0000
  C   C2094     1.0  0.71696  0.52273  0.18361  1.0000
  C   C2095     1.0  0.74286  0.53106  0.18952  1.0000
  C   C2096     1.0  0.75111  0.54915  0.20114  1.0000
  C   C2097     1.0  0.73364  0.55942  0.20674  1.0000
  C   C2098     1.0  0.70720  0.54973  0.20127  1.0000
  H   H1675     1.0  0.95757  0.56786  0.12754  1.0000
  H   H1676     1.0  0.62143  0.86098  0.03306  1.0000
  C   C2099     1.0  0.95578  0.58455  0.12252  1.0000
  C   C2100     1.0  0.66539  0.83407  0.98694  1.0000
  H   H1677     1.0  0.96036  0.87189  0.02857  1.0000
  C   C2101     1.0  0.55272  0.59007  0.12985  1.0000
  C   C2102     1.0  0.51646  0.66539  0.14075  1.0000
  C   C2103     1.0  0.96936  0.85356  0.01034  1.0000
  H   H1678     1.0  0.83090  0.63089  0.02057  1.0000
  C   C2104     1.0  0.75012  0.70671  0.16503  1.0000
  H   H1679     1.0  0.84779  0.64091  0.06487  1.0000
  C   C2105     1.0  0.59592  0.60830  0.11959  1.0000
  H   H1680     1.0  0.94911  0.83869  0.00849  1.0000
  H   H1681     1.0  0.93578  0.66502  0.16005  1.0000
  C   C2106     1.0  0.72011  0.61264  0.20701  1.0000
  C   C2107     1.0  0.70512  0.62802  0.20617  1.0000
  H   H1682     1.0  0.86631  0.68487  0.99437  1.0000
  C   C2108     1.0  0.70094  0.91060  0.00231  1.0000
  C   C2109     1.0  0.70284  0.96229  0.99940  1.0000
  H   H1683     1.0  0.67930  0.52622  0.18480  1.0000
  Fe  Fe149     1.0  0.96250  0.77484  0.02356  1.0000
  C   C2110     1.0  0.80545  0.95256  0.00717  1.0000
  C   C2111     1.0  0.77075  0.96495  0.98970  1.0000
  H   H1684     1.0  0.69312  0.55683  0.20560  1.0000
  C   C2112     1.0  0.58116  0.64270  0.15926  1.0000
  H   H1685     1.0  0.79118  0.96976  0.02396  1.0000
  C   C2113     1.0  0.57504  0.61235  0.12591  1.0000
  C   C2114     1.0  0.84924  0.58323  0.22839  1.0000
  C   C2115     1.0  0.78296  0.50705  0.16114  1.0000
  H   H1686     1.0  0.78185  0.91285  0.03529  1.0000
  C   C2116     1.0  0.97540  0.61054  0.12506  1.0000
  H   H1687     1.0  0.79378  0.87469  0.02968  1.0000
  H   H1688     1.0  0.65200  0.82829  0.99545  1.0000
  H   H1689     1.0  0.72549  0.60543  0.19744  1.0000
  H   H1690     1.0  0.69848  0.63195  0.19605  1.0000
  C   C2117     1.0  0.95592  0.67467  0.15647  1.0000
  C   C2118     1.0  0.76689  0.67097  0.00263  1.0000
  C   C2119     1.0  0.62470  0.70485  0.09746  1.0000
  H   H1691     1.0  0.65244  0.88348  0.01490  1.0000
  C   C2120     1.0  0.77470  0.69882  0.02385  1.0000
  C   C2121     1.0  0.75737  0.67816  0.01477  1.0000
  H   H1692     1.0  0.74250  0.91537  0.02386  1.0000
  H   H1693     1.0  0.77164  0.89637  0.98262  1.0000
  C   C2122     1.0  0.81084  0.70644  0.00820  1.0000
  C   C2123     1.0  0.80142  0.71262  0.02069  1.0000
  P   P71       1.0  0.84548  0.72417  0.00433  1.0000
  C   C2124     1.0  0.86316  0.70692  0.01295  1.0000
  P   P72       1.0  0.74489  0.58433  0.22105  1.0000
  H   H1694     1.0  0.61392  0.62520  0.11721  1.0000
  C   C2125     1.0  0.80345  0.94613  0.99280  1.0000
  C   C2126     1.0  0.69277  0.93865  0.15149  1.0000
  C   C2127     1.0  0.72474  0.95474  0.13345  1.0000
  C   C2128     1.0  0.59668  0.66895  0.11749  1.0000
  C   C2129     1.0  0.86865  0.71095  0.02744  1.0000
  C   C2130     1.0  0.88308  0.69848  0.03423  1.0000
  C   C2131     1.0  0.89220  0.68196  0.02662  1.0000
  C   C2132     1.0  0.88593  0.67699  0.01227  1.0000
  C   C2133     1.0  0.87111  0.68911  0.00547  1.0000
  C   C2134     1.0  0.85842  0.75854  0.01092  1.0000
  C   C2135     1.0  0.84183  0.77240  0.01167  1.0000
  H   H1695     1.0  0.48541  0.62212  0.11304  1.0000
  C   C2136     1.0  0.87917  0.81212  0.02103  1.0000
  C   C2137     1.0  0.89587  0.79858  0.02006  1.0000
  C   C2138     1.0  0.88561  0.77202  0.01485  1.0000
  H   H1696     1.0  0.76744  0.70435  0.03333  1.0000
  H   H1697     1.0  0.72965  0.68551  0.18267  1.0000
  C   C2139     1.0  0.60940  0.67800  0.09350  1.0000
  H   H1698     1.0  0.63635  0.71843  0.08981  1.0000
  H   H1699     1.0  0.81466  0.72826  0.02798  1.0000
  H   H1700     1.0  0.77949  0.80137  0.00364  1.0000
  C   C2140     1.0  0.61088  0.69629  0.12122  1.0000
  C   C2141     1.0  0.62523  0.71405  0.11128  1.0000
  C   C2142     1.0  0.83358  0.57344  0.21585  1.0000
  C   C2143     1.0  0.59458  0.64663  0.17236  1.0000
  H   H1701     1.0  0.86242  0.72430  0.03345  1.0000
  H   H1702     1.0  0.88803  0.70235  0.04535  1.0000
  H   H1703     1.0  0.90421  0.67315  0.03191  1.0000
  H   H1704     1.0  0.89291  0.66406  0.00639  1.0000
  C   C2144     1.0  0.85061  0.72661  0.98582  1.0000
  C   C2145     1.0  0.79854  0.50370  0.17211  1.0000
  H   H1705     1.0  0.69388  0.95966  0.07645  1.0000
  H   H1706     1.0  0.88703  0.83242  0.02552  1.0000
  H   H1707     1.0  0.91661  0.80834  0.02378  1.0000
  H   H1708     1.0  0.89886  0.76189  0.01407  1.0000
  C   C2146     1.0  0.65536  0.86799  0.02053  1.0000
  H   H1709     1.0  0.81860  0.94744  0.01399  1.0000
  H   H1710     1.0  0.75350  0.65472  0.99568  1.0000
  C   C2147     1.0  0.87631  0.59994  0.22755  1.0000
  H   H1711     1.0  0.52942  0.55209  0.18983  1.0000
  C   C2148     1.0  0.56436  0.54351  0.19119  1.0000
  H   H1712     1.0  0.55758  0.52853  0.22287  1.0000
  C   C2149     1.0  0.68961  0.85693  0.98829  1.0000
  H   H1713     1.0  0.58379  0.63759  0.18144  1.0000
  C   C2150     1.0  0.52596  0.63252  0.12063  1.0000
  H   H1714     1.0  0.78414  0.76268  0.99194  1.0000
  C   C2151     1.0  0.72738  0.75795  0.99016  1.0000
  H   H1715     1.0  0.78606  0.52700  0.15818  1.0000
  C   C2152     1.0  0.70598  0.92501  0.09718  1.0000
  C   C2153     1.0  0.68224  0.90929  0.08944  1.0000
  C   C2154     1.0  0.70346  0.95278  0.01268  1.0000
  C   C2155     1.0  0.69856  0.87483  0.08522  1.0000
  H   H1716     1.0  0.51097  0.96845  0.21802  1.0000
  H   H1717     1.0  0.65139  0.92544  0.14470  1.0000
  C   C2156     1.0  0.93330  0.58004  0.11383  1.0000
  H   H1718     1.0  0.91251  0.59814  0.10132  1.0000
  C   C2157     1.0  0.73952  0.65999  0.16849  1.0000
  H   H1719     1.0  0.82083  0.76252  0.00860  1.0000
  H   H1720     1.0  0.66645  0.91615  0.08804  1.0000
  H   H1721     1.0  0.53401  0.54694  0.13028  1.0000
  H   H1722     1.0  0.57796  0.56381  0.18937  1.0000
  H   H1723     1.0  0.76284  0.63683  0.08763  1.0000
  P   P73       1.0  0.81424  0.66767  0.07434  1.0000
  C   C2158     1.0  0.81537  0.64302  0.08612  1.0000
  C   C2159     1.0  0.84081  0.70010  0.07886  1.0000
  C   C2160     1.0  0.83569  0.71960  0.08662  1.0000
  C   C2161     1.0  0.85607  0.74499  0.08965  1.0000
  C   C2162     1.0  0.88178  0.75096  0.08519  1.0000
  C   C2163     1.0  0.88719  0.73147  0.07779  1.0000
  C   C2164     1.0  0.86687  0.70609  0.07471  1.0000
  C   C2165     1.0  0.79852  0.61587  0.08338  1.0000
  C   C2166     1.0  0.79983  0.59648  0.09215  1.0000
  C   C2167     1.0  0.76197  0.70497  0.15252  1.0000
  C   C2168     1.0  0.78233  0.67031  0.07452  1.0000
  C   C2169     1.0  0.77899  0.69099  0.06754  1.0000
  C   C2170     1.0  0.75439  0.69300  0.06718  1.0000
  C   C2171     1.0  0.73293  0.67458  0.07394  1.0000
  C   C2172     1.0  0.73622  0.65443  0.08130  1.0000
  C   C2173     1.0  0.76084  0.65235  0.08167  1.0000
  H   H1724     1.0  0.75201  0.70905  0.06176  1.0000
  H   H1725     1.0  0.75679  0.52416  0.18484  1.0000
  H   H1726     1.0  0.81593  0.71547  0.09018  1.0000
  H   H1727     1.0  0.89745  0.77084  0.08722  1.0000
  H   H1728     1.0  0.90710  0.73620  0.07424  1.0000
  H   H1729     1.0  0.87170  0.69134  0.06907  1.0000
  H   H1730     1.0  0.78443  0.60972  0.07443  1.0000
  H   H1731     1.0  0.78671  0.57556  0.09010  1.0000
  H   H1732     1.0  0.79545  0.70562  0.06231  1.0000
  C   C2174     1.0  0.72561  0.91498  0.09921  1.0000
  H   H1733     1.0  0.55701  0.67641  0.14822  1.0000
  C   C2175     1.0  0.89913  0.50954  0.22130  1.0000
  C   C2176     1.0  0.67738  0.93947  0.12761  1.0000
  H   H1734     1.0  0.51361  0.49053  0.22248  1.0000
  C   C2177     1.0  0.54616  0.64732  0.13072  1.0000
  H   H1735     1.0  0.66348  0.81097  0.04046  1.0000
  H   H1736     1.0  0.91792  0.55995  0.11206  1.0000
  H   H1737     1.0  0.72673  0.84140  0.00042  1.0000
  H   H1738     1.0  0.73072  0.64245  0.17459  1.0000
  S   S295      1.0  0.93789  0.70542  0.06150  1.0000
  C   C2178     1.0  0.67660  0.86081  0.01764  1.0000
  C   C2179     1.0  0.93028  0.60152  0.10775  1.0000
  H   H1739     1.0  0.69479  0.83329  0.02257  1.0000
  C   C2180     1.0  0.81935  0.65621  0.05718  1.0000
  H   H1740     1.0  0.72026  0.65215  0.12598  1.0000
  H   H1741     1.0  0.59561  0.52968  0.19328  1.0000
  C   C2181     1.0  0.77722  0.87648  0.02400  1.0000
  C   C2182     1.0  0.76257  0.68063  0.14789  1.0000
  C   C2183     1.0  0.67912  0.83989  0.02480  1.0000
  C   C2184     1.0  0.76173  0.85659  0.01404  1.0000
  H   H1742     1.0  0.80023  0.65367  0.02276  1.0000
  H   H1743     1.0  0.76604  0.83920  0.01202  1.0000
  H   H1744     1.0  0.73659  0.66767  0.01718  1.0000
  H   H1745     1.0  0.70374  0.98229  0.99832  1.0000
  C   C2185     1.0  0.72199  0.89010  0.09313  1.0000
  H   H1746     1.0  0.85184  0.76027  0.09520  1.0000
  H   H1747     1.0  0.84881  0.53178  0.19552  1.0000
  C   C2186     1.0  0.73928  0.85791  0.00742  1.0000
  C   C2187     1.0  0.70389  0.95067  0.12353  1.0000
  H   H1748     1.0  0.63476  0.67563  0.13985  1.0000
  H   H1749     1.0  0.84948  0.63657  0.11513  1.0000
  C   C2188     1.0  0.73187  0.87902  0.01080  1.0000
  H   H1750     1.0  0.92153  0.54192  0.17637  1.0000
  C   C2189     1.0  0.82506  0.49690  0.21740  1.0000
  S   S296      1.0  0.94813  0.77251  0.00061  1.0000
  H   H1751     1.0  0.70573  0.80654  0.98381  1.0000
  C   C2190     1.0  0.63651  0.67183  0.16193  1.0000
  C   C2191     1.0  0.53697  0.53689  0.19147  1.0000
  H   H1752     1.0  0.63703  0.73491  0.11431  1.0000
  C   C2192     1.0  0.83699  0.64358  0.05580  1.0000
  H   H1753     1.0  0.82431  0.63235  0.19407  1.0000
  H   H1754     1.0  0.74385  0.92649  0.10536  1.0000
  C   C2193     1.0  0.62224  0.66121  0.17369  1.0000
  H   H1755     1.0  0.79290  0.66989  0.04569  1.0000
  H   H1756     1.0  0.85536  0.64835  0.21498  1.0000
  P   P74       1.0  0.69975  0.87734  0.00445  1.0000
  C   C2194     1.0  0.80632  0.66000  0.04511  1.0000
  C   C2195     1.0  0.90186  0.52885  0.17952  1.0000
  Fe  Fe150     1.0  0.95749  0.74760  0.05250  1.0000
  C   C2196     1.0  0.96234  0.66590  0.14381  1.0000
  H   H1757     1.0  0.61204  0.61981  0.22436  1.0000
  C   C2197     1.0  0.73895  0.68424  0.17302  1.0000
  H   H1758     1.0  0.65808  0.68227  0.16284  1.0000
  C   C2198     1.0  0.78575  0.95188  0.98393  1.0000
  H   H1759     1.0  0.49761  0.49678  0.16598  1.0000
  C   C2199     1.0  0.75098  0.65806  0.15592  1.0000
  H   H1760     1.0  0.66740  0.98191  0.06572  1.0000
  C   C2200     1.0  0.63758  0.85513  0.03077  1.0000
  H   H1761     1.0  0.76099  0.98122  0.00843  1.0000
  C   C2201     1.0  0.83414  0.65031  0.09746  1.0000
  C   C2202     1.0  0.77520  0.49919  0.21885  1.0000
  C   C2203     1.0  0.81665  0.62808  0.20441  1.0000
  H   H1762     1.0  0.70246  0.92005  0.02459  1.0000
  C   C2204     1.0  0.77286  0.97140  0.00405  1.0000
  H   H1763     1.0  0.75076  0.63887  0.15251  1.0000
  H   H1764     1.0  0.73753  0.88275  0.09431  1.0000
  C   C2205     1.0  0.54143  0.66416  0.14063  1.0000
  C   C2206     1.0  0.78946  0.61273  0.20595  1.0000
  C   C2207     1.0  0.55098  0.56415  0.12702  1.0000
  H   H1765     1.0  0.73082  0.74697  0.99863  1.0000
  H   H1766     1.0  0.84825  0.67084  0.09943  1.0000
  H   H1767     1.0  0.74948  0.72545  0.16850  1.0000
  H   H1768     1.0  0.85469  0.62473  0.04171  1.0000
  C   C2208     1.0  0.84097  0.63433  0.04266  1.0000
  C   C2209     1.0  0.81039  0.65074  0.03199  1.0000
  C   C2210     1.0  0.71917  0.94898  0.14741  1.0000
  C   C2211     1.0  0.79223  0.80442  0.99485  1.0000
  C   C2212     1.0  0.62315  0.66803  0.14886  1.0000
  H   H1769     1.0  0.63268  0.66352  0.18377  1.0000
  C   C2213     1.0  0.72730  0.60597  0.22009  1.0000
  H   H1770     1.0  0.58354  0.63941  0.10013  1.0000
  H   H1771     1.0  0.61128  0.70382  0.13185  1.0000
  C   C2214     1.0  0.77967  0.60593  0.21929  1.0000
  C   C2215     1.0  0.81803  0.60403  0.10365  1.0000
  H   H1772     1.0  0.57031  0.54023  0.11837  1.0000
  H   H1773     1.0  0.60908  0.67097  0.08276  1.0000
  C   C2216     1.0  0.71343  0.79157  0.98180  1.0000
  C   C2217     1.0  0.86055  0.52285  0.19024  1.0000
  C   C2218     1.0  0.69998  0.92022  0.98896  1.0000
  H   H1774     1.0  0.94694  0.64967  0.13775  1.0000
  H   H1775     1.0  0.66096  0.93517  0.11999  1.0000
  H   H1776     1.0  0.61040  0.57944  0.11198  1.0000
  H   H1777     1.0  0.94667  0.64392  0.10588  1.0000
  H   H1778     1.0  0.51282  0.67826  0.14848  1.0000
  C   C2219     1.0  0.59525  0.66013  0.10343  1.0000
  H   H1779     1.0  0.55990  0.63046  0.15833  1.0000
  H   H1780     1.0  0.75209  0.96178  0.08564  1.0000
  C   C2220     1.0  0.85217  0.79907  0.01678  1.0000
  C   C2221     1.0  0.79005  0.96509  0.01280  1.0000
  C   C2222     1.0  0.64834  0.57228  0.22473  1.0000
  H   H1781     1.0  0.91104  0.80450  0.98941  1.0000
  H   H1782     1.0  0.68847  0.93419  0.16230  1.0000
  P   P75       1.0  0.71067  0.95690  0.10540  1.0000
  C   C2223     1.0  0.80558  0.82999  0.98992  1.0000
  H   H1783     1.0  0.81264  0.56066  0.21636  1.0000
  C   C2224     1.0  0.68520  0.97000  0.08312  1.0000
  C   C2225     1.0  0.75982  0.97898  0.09294  1.0000
  C   C2226     1.0  0.54908  0.49470  0.14758  1.0000
  H   H1784     1.0  0.52950  0.61999  0.11266  1.0000
  H   H1785     1.0  0.74525  0.96219  0.13042  1.0000
  C   C2227     1.0  0.97537  0.69575  0.16450  1.0000
  H   H1786     1.0  0.61926  0.49520  0.15541  1.0000
  C   C2228     1.0  0.97262  0.63226  0.11890  1.0000
  C   C2229     1.0  0.52917  0.49101  0.19560  1.0000
  C   C2230     1.0  0.70095  0.94597  0.98754  1.0000
  H   H1787     1.0  0.84540  0.49281  0.14204  1.0000
  C   C2231     1.0  0.97572  0.87229  0.02162  1.0000
  H   H1788     1.0  0.92064  0.48718  0.13784  1.0000
  C   C2232     1.0  0.89175  0.50142  0.17616  1.0000
  H   H1789     1.0  0.84438  0.49610  0.21698  1.0000
  C   C2233     1.0  0.86596  0.48467  0.17971  1.0000
  C   C2234     1.0  0.83415  0.63727  0.21619  1.0000
  C   C2235     1.0  0.96383  0.77286  0.98461  1.0000
  C   C2236     1.0  0.61897  0.48811  0.16587  1.0000
  C   C2237     1.0  0.76375  0.48478  0.15380  1.0000
  C   C2238     1.0  0.50854  0.48844  0.15962  1.0000
  C   C2239     1.0  0.87574  0.73099  0.98077  1.0000
  C   C2240     1.0  0.81883  0.50807  0.22937  1.0000
  H   H1790     1.0  0.90362  0.49322  0.17038  1.0000
  C   C2241     1.0  0.67023  0.98262  0.07699  1.0000
  C   C2242     1.0  0.59811  0.48609  0.17441  1.0000
  H   H1791     1.0  0.87229  0.49518  0.10425  1.0000
  H   H1792     1.0  0.58231  0.49131  0.17033  1.0000
  H   H1793     1.0  0.86570  0.79909  0.98185  1.0000
  H   H1794     1.0  0.97031  0.70244  0.17433  1.0000
  C   C2243     1.0  0.80670  0.48750  0.20588  1.0000
  C   C2244     1.0  0.78147  0.48824  0.20679  1.0000
  H   H1795     1.0  0.75212  0.48760  0.14513  1.0000
  C   C2245     1.0  0.74412  0.98180  0.10364  1.0000
  H   H1796     1.0  0.75598  0.50031  0.21942  1.0000
  H   H1797     1.0  0.81107  0.72414  0.98012  1.0000
  H   H1798     1.0  0.91213  0.48570  0.10867  1.0000
  H   H1799     1.0  0.47687  0.65108  0.13097  1.0000
  C   C2246     1.0  0.82436  0.63160  0.22953  1.0000
  Fe  Fe151     1.0  0.70352  0.76441  0.42193  1.0000
  S   S297      1.0  0.73843  0.80275  0.41839  1.0000
  S   S298      1.0  0.68280  0.76267  0.44252  1.0000
  Fe  Fe152     1.0  0.70327  0.74178  0.39116  1.0000
  S   S299      1.0  0.73832  0.77961  0.38591  1.0000
  S   S300      1.0  0.68421  0.70140  0.37802  1.0000
  Fe  Fe153     1.0  0.75546  0.77692  0.40720  1.0000
  S   S301      1.0  0.79632  0.77975  0.41425  1.0000
  Fe  Fe154     1.0  0.71821  0.80264  0.39766  1.0000
  S   S302      1.0  0.70748  0.83796  0.39246  1.0000
  S   S303      1.0  0.72174  0.73844  0.41212  1.0000
  S   S304      1.0  0.68201  0.76482  0.40153  1.0000
  H   H1800     1.0  0.81164  0.49389  0.32748  1.0000
  Fe  Fe155     1.0  0.64031  0.57306  0.27612  1.0000
  S   S305      1.0  0.62206  0.53247  0.28521  1.0000
  S   S306      1.0  0.65162  0.57068  0.25338  1.0000
  Fe  Fe156     1.0  0.64227  0.60247  0.30490  1.0000
  S   S307      1.0  0.62320  0.56362  0.31551  1.0000
  S   S308      1.0  0.65788  0.64503  0.31573  1.0000
  Fe  Fe157     1.0  0.65117  0.55119  0.30340  1.0000
  S   S309      1.0  0.67018  0.52727  0.31452  1.0000
  Fe  Fe158     1.0  0.59522  0.54738  0.29640  1.0000
  S   S310      1.0  0.54984  0.52165  0.29575  1.0000
  S   S311      1.0  0.67185  0.59057  0.29375  1.0000
  S   S312      1.0  0.61185  0.58757  0.28638  1.0000
  Fe  Fe159     1.0  0.84803  0.57737  0.26765  1.0000
  S   S313      1.0  0.83376  0.53583  0.27532  1.0000
  S   S314      1.0  0.83346  0.57550  0.24467  1.0000
  Fe  Fe160     1.0  0.86924  0.60255  0.29789  1.0000
  S   S315      1.0  0.85669  0.56187  0.30699  1.0000
  S   S316      1.0  0.88657  0.64405  0.31023  1.0000
  Fe  Fe161     1.0  0.87243  0.54942  0.28779  1.0000
  S   S317      1.0  0.89364  0.52123  0.28513  1.0000
  Fe  Fe162     1.0  0.81885  0.55095  0.29364  1.0000
  S   S318      1.0  0.77995  0.52138  0.30130  1.0000
  S   S319      1.0  0.88815  0.59095  0.27929  1.0000
  S   S320      1.0  0.82997  0.59162  0.28541  1.0000
  H   H1801     1.0  0.75284  0.64142  0.33278  1.0000
  Fe  Fe163     1.0  0.92531  0.79164  0.38596  1.0000
  S   S321      1.0  0.89550  0.80580  0.37628  1.0000
  S   S322      1.0  0.90840  0.75190  0.39557  1.0000
  C   C2247     1.0  0.91308  0.68530  0.35499  1.0000
  C   C2248     1.0  0.91231  0.69995  0.34338  1.0000
  C   C2249     1.0  0.90401  0.68697  0.32991  1.0000
  C   C2250     1.0  0.89607  0.65908  0.32772  1.0000
  C   C2251     1.0  0.89629  0.64438  0.33939  1.0000
  H   H1802     1.0  0.91861  0.72137  0.34471  1.0000
  H   H1803     1.0  0.90401  0.69871  0.32106  1.0000
  H   H1804     1.0  0.89035  0.62300  0.33802  1.0000
  H   H1805     1.0  0.59873  0.48991  0.25671  1.0000
  C   C2252     1.0  0.67602  0.76282  0.47080  1.0000
  C   C2253     1.0  0.82764  0.74617  0.44279  1.0000
  C   C2254     1.0  0.90481  0.65738  0.35283  1.0000
  C   C2255     1.0  0.70196  0.52851  0.31091  1.0000
  C   C2256     1.0  0.71903  0.54618  0.30164  1.0000
  C   C2257     1.0  0.74394  0.54537  0.29898  1.0000
  C   C2258     1.0  0.75135  0.52661  0.30543  1.0000
  C   C2259     1.0  0.73437  0.50943  0.31478  1.0000
  C   C2260     1.0  0.71000  0.51052  0.31759  1.0000
  H   H1806     1.0  0.71293  0.56019  0.29646  1.0000
  H   H1807     1.0  0.75694  0.55856  0.29166  1.0000
  H   H1808     1.0  0.97378  0.76107  0.44433  1.0000
  H   H1809     1.0  0.69881  0.56332  0.23894  1.0000
  C   C2261     1.0  0.80823  0.71789  0.40454  1.0000
  C   C2262     1.0  0.77507  0.79877  0.46991  1.0000
  C   C2263     1.0  0.71021  0.54432  0.25554  1.0000
  H   H1810     1.0  0.83525  0.65650  0.33001  1.0000
  H   H1811     1.0  0.66726  0.95897  0.45632  1.0000
  C   C2264     1.0  0.82355  0.78847  0.40334  1.0000
  C   C2265     1.0  0.84805  0.79056  0.40921  1.0000
  C   C2266     1.0  0.87023  0.79641  0.40099  1.0000
  C   C2267     1.0  0.86803  0.80002  0.38673  1.0000
  C   C2268     1.0  0.84361  0.79834  0.38080  1.0000
  C   C2269     1.0  0.82132  0.79250  0.38909  1.0000
  H   H1812     1.0  0.84975  0.78692  0.42010  1.0000
  H   H1813     1.0  0.88896  0.79773  0.40568  1.0000
  H   H1814     1.0  0.84186  0.80120  0.36976  1.0000
  H   H1815     1.0  0.80253  0.79115  0.38448  1.0000
  C   C2270     1.0  0.72276  0.87375  0.39275  1.0000
  C   C2271     1.0  0.70654  0.88803  0.39409  1.0000
  C   C2272     1.0  0.71739  0.91627  0.39399  1.0000
  C   C2273     1.0  0.74465  0.93071  0.39211  1.0000
  C   C2274     1.0  0.76084  0.91642  0.39054  1.0000
  C   C2275     1.0  0.75007  0.88820  0.39098  1.0000
  H   H1816     1.0  0.68533  0.87715  0.39506  1.0000
  H   H1817     1.0  0.70458  0.92684  0.39497  1.0000
  H   H1818     1.0  0.78186  0.92729  0.38885  1.0000
  H   H1819     1.0  0.76270  0.87763  0.38938  1.0000
  C   C2276     1.0  0.67781  0.68634  0.36054  1.0000
  C   C2277     1.0  0.66863  0.65827  0.35863  1.0000
  C   C2278     1.0  0.66295  0.64532  0.34512  1.0000
  C   C2279     1.0  0.66577  0.66018  0.33318  1.0000
  C   C2280     1.0  0.67491  0.68822  0.33509  1.0000
  C   C2281     1.0  0.68103  0.70120  0.34859  1.0000
  H   H1820     1.0  0.66582  0.64641  0.36773  1.0000
  H   H1821     1.0  0.65581  0.62378  0.34395  1.0000
  H   H1822     1.0  0.67697  0.70004  0.32603  1.0000
  H   H1823     1.0  0.68756  0.72267  0.34975  1.0000
  C   C2282     1.0  0.84711  0.68000  0.47500  1.0000
  H   H1824     1.0  0.62281  0.60444  0.24696  1.0000
  C   C2283     1.0  0.52464  0.49765  0.23234  1.0000
  C   C2284     1.0  0.90745  0.66920  0.40425  1.0000
  C   C2285     1.0  0.75843  0.55779  0.24237  1.0000
  H   H1825     1.0  0.78120  0.95574  0.42533  1.0000
  H   H1826     1.0  0.83800  0.63831  0.23866  1.0000
  C   C2286     1.0  0.70589  0.63192  0.23141  1.0000
  C   C2287     1.0  0.70829  0.74601  0.46357  1.0000
  C   C2288     1.0  0.69002  0.75697  0.46007  1.0000
  H   H1827     1.0  0.83104  0.90356  0.43884  1.0000
  C   C2289     1.0  0.80689  0.54969  0.33501  1.0000
  H   H1828     1.0  0.67339  0.58203  0.33663  1.0000
  H   H1829     1.0  0.71861  0.74060  0.45540  1.0000
  H   H1830     1.0  0.66126  0.77054  0.46819  1.0000
  C   C2290     1.0  0.71456  0.55831  0.24327  1.0000
  H   H1831     1.0  0.90570  0.85335  0.47371  1.0000
  C   C2291     1.0  0.83017  0.68665  0.41842  1.0000
  H   H1832     1.0  0.84152  0.69039  0.38395  1.0000
  C   C2292     1.0  0.89747  0.86775  0.44339  1.0000
  H   H1833     1.0  0.92222  0.80119  0.33269  1.0000
  H   H1834     1.0  0.72146  0.82576  0.47567  1.0000
  H   H1835     1.0  0.84887  0.67155  0.30662  1.0000
  H   H1836     1.0  0.90524  0.64566  0.36162  1.0000
  C   C2293     1.0  0.50627  0.52474  0.33196  1.0000
  C   C2294     1.0  0.91534  0.83393  0.44210  1.0000
  H   H1837     1.0  0.53424  0.57304  0.36197  1.0000
  H   H1838     1.0  0.82381  0.74295  0.43159  1.0000
  C   C2295     1.0  0.73972  0.62162  0.33559  1.0000
  C   C2296     1.0  0.89377  0.52333  0.23248  1.0000
  C   C2297     1.0  0.64846  0.85351  0.47511  1.0000
  C   C2298     1.0  0.81612  0.75874  0.46527  1.0000
  H   H1839     1.0  0.86323  0.73856  0.44280  1.0000
  C   C2299     1.0  0.83072  0.67562  0.37570  1.0000
  H   H1840     1.0  0.77018  0.68942  0.41074  1.0000
  C   C2300     1.0  0.86619  0.67296  0.46879  1.0000
  H   H1841     1.0  0.78847  0.58659  0.36535  1.0000
  C   C2301     1.0  0.84420  0.66357  0.36785  1.0000
  H   H1842     1.0  0.87697  0.88172  0.46957  1.0000
  H   H1843     1.0  0.79307  0.67808  0.37891  1.0000
  H   H1844     1.0  0.79397  0.75603  0.44582  1.0000
  C   C2302     1.0  0.61084  0.50152  0.23593  1.0000
  H   H1845     1.0  0.72689  0.61248  0.24251  1.0000
  C   C2303     1.0  0.80354  0.66876  0.37279  1.0000
  C   C2304     1.0  0.83574  0.72520  0.40500  1.0000
  C   C2305     1.0  0.61634  0.91825  0.43805  1.0000
  C   C2306     1.0  0.55350  0.51848  0.25762  1.0000
  C   C2307     1.0  0.73129  0.66776  0.36929  1.0000
  C   C2308     1.0  0.73337  0.68036  0.38245  1.0000
  C   C2309     1.0  0.75023  0.70741  0.38474  1.0000
  C   C2310     1.0  0.76514  0.72188  0.37394  1.0000
  C   C2311     1.0  0.76321  0.70938  0.36069  1.0000
  C   C2312     1.0  0.74601  0.68224  0.35842  1.0000
  P   P76       1.0  0.78206  0.72841  0.34667  1.0000
  C   C2313     1.0  0.77874  0.75997  0.34713  1.0000
  C   C2314     1.0  0.81703  0.73453  0.34887  1.0000
  C   C2315     1.0  0.82851  0.73441  0.36216  1.0000
  C   C2316     1.0  0.85564  0.73976  0.36381  1.0000
  C   C2317     1.0  0.87160  0.74533  0.35228  1.0000
  C   C2318     1.0  0.86048  0.74584  0.33904  1.0000
  C   C2319     1.0  0.83339  0.74079  0.33735  1.0000
  C   C2320     1.0  0.80053  0.78390  0.34453  1.0000
  C   C2321     1.0  0.79787  0.80827  0.34519  1.0000
  C   C2322     1.0  0.77345  0.80893  0.34837  1.0000
  C   C2323     1.0  0.75170  0.78524  0.35095  1.0000
  C   C2324     1.0  0.75437  0.76091  0.35049  1.0000
  C   C2325     1.0  0.76714  0.70988  0.33036  1.0000
  C   C2326     1.0  0.77810  0.69363  0.32373  1.0000
  C   C2327     1.0  0.76537  0.67787  0.31169  1.0000
  C   C2328     1.0  0.74112  0.67737  0.30646  1.0000
  C   C2329     1.0  0.72982  0.69303  0.31312  1.0000
  C   C2330     1.0  0.74277  0.70929  0.32497  1.0000
  H   H1846     1.0  0.71737  0.64709  0.36733  1.0000
  H   H1847     1.0  0.72090  0.66956  0.39067  1.0000
  H   H1848     1.0  0.75112  0.71742  0.39478  1.0000
  H   H1849     1.0  0.77771  0.74297  0.37586  1.0000
  H   H1850     1.0  0.74329  0.67230  0.34821  1.0000
  H   H1851     1.0  0.81688  0.73070  0.37134  1.0000
  H   H1852     1.0  0.86456  0.74028  0.37410  1.0000
  H   H1853     1.0  0.89271  0.74980  0.35370  1.0000
  H   H1854     1.0  0.87297  0.75049  0.33013  1.0000
  H   H1855     1.0  0.82528  0.74201  0.32708  1.0000
  H   H1856     1.0  0.81969  0.78398  0.34212  1.0000
  H   H1857     1.0  0.81481  0.82668  0.34329  1.0000
  H   H1858     1.0  0.77138  0.82781  0.34891  1.0000
  H   H1859     1.0  0.73279  0.78576  0.35353  1.0000
  H   H1860     1.0  0.73742  0.74287  0.35289  1.0000
  H   H1861     1.0  0.79605  0.69241  0.32800  1.0000
  H   H1862     1.0  0.77394  0.66549  0.30660  1.0000
  H   H1863     1.0  0.73079  0.66455  0.29738  1.0000
  H   H1864     1.0  0.71064  0.69210  0.30925  1.0000
  H   H1865     1.0  0.73320  0.72069  0.33009  1.0000
  C   C2331     1.0  0.52455  0.51554  0.33784  1.0000
  C   C2332     1.0  0.96844  0.84172  0.35714  1.0000
  P   P77       1.0  0.55501  0.53870  0.34688  1.0000
  C   C2333     1.0  0.54672  0.54066  0.36481  1.0000
  C   C2334     1.0  0.58160  0.52755  0.34542  1.0000
  C   C2335     1.0  0.64330  0.98102  0.46021  1.0000
  C   C2336     1.0  0.52855  0.49680  0.25750  1.0000
  H   H1866     1.0  0.65819  0.93670  0.47869  1.0000
  H   H1867     1.0  0.79010  0.61196  0.24154  1.0000
  H   H1868     1.0  0.60317  0.54901  0.36442  1.0000
  C   C2337     1.0  0.53674  0.55937  0.36923  1.0000
  C   C2338     1.0  0.52969  0.56044  0.38306  1.0000
  C   C2339     1.0  0.53212  0.54254  0.39250  1.0000
  H   H1869     1.0  0.54288  0.50926  0.39534  1.0000
  C   C2340     1.0  0.54853  0.52234  0.37425  1.0000
  C   C2341     1.0  0.56811  0.57125  0.33956  1.0000
  C   C2342     1.0  0.56470  0.57368  0.32518  1.0000
  C   C2343     1.0  0.57648  0.59863  0.31933  1.0000
  C   C2344     1.0  0.59187  0.62133  0.32778  1.0000
  C   C2345     1.0  0.59550  0.61909  0.34210  1.0000
  C   C2346     1.0  0.58399  0.59410  0.34795  1.0000
  H   H1870     1.0  0.58340  0.54652  0.24529  1.0000
  H   H1871     1.0  0.96006  0.78981  0.32680  1.0000
  H   H1872     1.0  0.51069  0.54590  0.33221  1.0000
  C   C2347     1.0  0.94414  0.82958  0.34941  1.0000
  H   H1873     1.0  0.56458  0.52685  0.26744  1.0000
  C   C2348     1.0  0.73000  0.53721  0.26128  1.0000
  P   P78       1.0  0.84433  0.66625  0.42705  1.0000
  C   C2349     1.0  0.62476  0.51305  0.34230  1.0000
  C   C2350     1.0  0.79959  0.81509  0.47656  1.0000
  H   H1874     1.0  0.55345  0.55624  0.31842  1.0000
  H   H1875     1.0  0.57416  0.60025  0.30817  1.0000
  H   H1876     1.0  0.60158  0.64056  0.32318  1.0000
  H   H1877     1.0  0.60787  0.63669  0.34857  1.0000
  H   H1878     1.0  0.58791  0.59264  0.35896  1.0000
  C   C2351     1.0  0.84675  0.71008  0.41220  1.0000
  H   H1879     1.0  0.69985  0.63889  0.24086  1.0000
  S   S323      1.0  0.92548  0.76860  0.43554  1.0000
  H   H1880     1.0  0.78701  0.59216  0.39413  1.0000
  C   C2352     1.0  0.65194  0.85825  0.46091  1.0000
  C   C2353     1.0  0.67150  0.88244  0.45669  1.0000
  C   C2354     1.0  0.68687  0.90211  0.46692  1.0000
  P   P79       1.0  0.67459  0.88936  0.43836  1.0000
  C   C2355     1.0  0.70907  0.90985  0.43507  1.0000
  C   C2356     1.0  0.66346  0.85839  0.42788  1.0000
  C   C2357     1.0  0.67090  0.83785  0.43194  1.0000
  C   C2358     1.0  0.66297  0.81417  0.42365  1.0000
  C   C2359     1.0  0.64769  0.81083  0.41124  1.0000
  C   C2360     1.0  0.64016  0.83111  0.40714  1.0000
  C   C2361     1.0  0.64794  0.85480  0.41543  1.0000
  C   C2362     1.0  0.72536  0.89877  0.42883  1.0000
  C   C2363     1.0  0.75153  0.91522  0.42569  1.0000
  C   C2364     1.0  0.76152  0.94283  0.42855  1.0000
  C   C2365     1.0  0.74559  0.95394  0.43492  1.0000
  C   C2366     1.0  0.71952  0.93755  0.43819  1.0000
  C   C2367     1.0  0.65431  0.90726  0.43390  1.0000
  C   C2368     1.0  0.63191  0.90426  0.44154  1.0000
  S   S324      1.0  0.92427  0.70052  0.37233  1.0000
  C   C2369     1.0  0.86518  0.66853  0.45429  1.0000
  C   C2370     1.0  0.64496  0.93796  0.41912  1.0000
  C   C2371     1.0  0.66060  0.92407  0.42258  1.0000
  C   C2372     1.0  0.93420  0.78124  0.46397  1.0000
  H   H1881     1.0  0.63921  0.84304  0.45325  1.0000
  H   H1882     1.0  0.70152  0.92123  0.46401  1.0000
  H   H1883     1.0  0.68316  0.84025  0.44139  1.0000
  H   H1884     1.0  0.66906  0.79854  0.42668  1.0000
  H   H1885     1.0  0.64224  0.79277  0.40464  1.0000
  H   H1886     1.0  0.62891  0.82872  0.39732  1.0000
  H   H1887     1.0  0.64236  0.87042  0.41185  1.0000
  H   H1888     1.0  0.71775  0.87771  0.42579  1.0000
  H   H1889     1.0  0.86820  0.71672  0.41273  1.0000
  H   H1890     1.0  0.60480  0.49346  0.32279  1.0000
  H   H1891     1.0  0.89651  0.70858  0.43606  1.0000
  H   H1892     1.0  0.70723  0.94665  0.44274  1.0000
  H   H1893     1.0  0.62641  0.89123  0.45020  1.0000
  C   C2373     1.0  0.74910  0.85619  0.44642  1.0000
  C   C2374     1.0  0.62293  0.93516  0.42688  1.0000
  C   C2375     1.0  0.79357  0.57639  0.35680  1.0000
  H   H1894     1.0  0.67759  0.92647  0.41640  1.0000
  H   H1895     1.0  0.92729  0.83394  0.35225  1.0000
  C   C2376     1.0  0.88554  0.51070  0.24496  1.0000
  C   C2377     1.0  0.80041  0.57129  0.33220  1.0000
  H   H1896     1.0  0.72666  0.52652  0.27084  1.0000
  C   C2378     1.0  0.85249  0.88882  0.45337  1.0000
  H   H1897     1.0  0.74025  0.56263  0.34560  1.0000
  H   H1898     1.0  0.84145  0.63559  0.35104  1.0000
  C   C2379     1.0  0.71209  0.61406  0.33461  1.0000
  H   H1899     1.0  0.88227  0.52168  0.25384  1.0000
  C   C2380     1.0  0.69483  0.58822  0.33780  1.0000
  C   C2381     1.0  0.73504  0.84111  0.46946  1.0000
  H   H1900     1.0  0.76055  0.59719  0.31202  1.0000
  C   C2382     1.0  0.87764  0.67494  0.42104  1.0000
  H   H1901     1.0  0.87252  0.74701  0.46810  1.0000
  C   C2383     1.0  0.79380  0.58487  0.34311  1.0000
  C   C2384     1.0  0.73285  0.57750  0.34293  1.0000
  C   C2385     1.0  0.83816  0.75608  0.47181  1.0000
  H   H1902     1.0  0.86528  0.66895  0.37014  1.0000
  H   H1903     1.0  0.64161  0.50782  0.34090  1.0000
  H   H1904     1.0  0.76883  0.64464  0.35998  1.0000
  H   H1905     1.0  0.91711  0.78625  0.46298  1.0000
  H   H1906     1.0  0.94136  0.72193  0.42715  1.0000
  H   H1907     1.0  0.79993  0.54832  0.37012  1.0000
  H   H1908     1.0  0.69151  0.53925  0.26065  1.0000
  H   H1909     1.0  0.74657  0.85294  0.43515  1.0000
  H   H1910     1.0  0.52653  0.54332  0.40320  1.0000
  C   C2386     1.0  0.75036  0.60351  0.33984  1.0000
  C   C2387     1.0  0.78760  0.62258  0.29771  1.0000
  C   C2388     1.0  0.56404  0.52973  0.24514  1.0000
  C   C2389     1.0  0.84976  0.74372  0.44912  1.0000
  C   C2390     1.0  0.76891  0.87977  0.45245  1.0000
  H   H1911     1.0  0.87066  0.95708  0.47389  1.0000
  C   C2391     1.0  0.86556  0.93806  0.46820  1.0000
  H   H1912     1.0  0.81178  0.52466  0.35072  1.0000
  C   C2392     1.0  0.79656  0.62583  0.32289  1.0000
  C   C2393     1.0  0.62432  0.52882  0.35398  1.0000
  C   C2394     1.0  0.80001  0.55473  0.35955  1.0000
  H   H1913     1.0  0.78919  0.66121  0.42257  1.0000
  C   C2395     1.0  0.64160  0.58080  0.23750  1.0000
  H   H1914     1.0  0.73988  0.49476  0.31970  1.0000
  H   H1915     1.0  0.76954  0.53854  0.25918  1.0000
  C   C2396     1.0  0.80342  0.63811  0.35379  1.0000
  H   H1916     1.0  0.59924  0.91611  0.44406  1.0000
  H   H1917     1.0  0.90081  0.88863  0.44314  1.0000
  C   C2397     1.0  0.54141  0.52342  0.38808  1.0000
  C   C2398     1.0  0.77182  0.79815  0.45538  1.0000
  C   C2399     1.0  0.79281  0.81448  0.44753  1.0000
  C   C2400     1.0  0.81698  0.83235  0.45418  1.0000
  C   C2401     1.0  0.81240  0.64363  0.29614  1.0000
  P   P80       1.0  0.84310  0.85638  0.44439  1.0000
  H   H1918     1.0  0.62976  0.51737  0.23956  1.0000
  C   C2402     1.0  0.87154  0.84776  0.44421  1.0000
  H   H1919     1.0  0.97033  0.85533  0.36599  1.0000
  Fe  Fe164     1.0  0.93857  0.74280  0.38353  1.0000
  S   S325      1.0  0.96905  0.75903  0.40194  1.0000
  C   C2403     1.0  0.88958  0.81400  0.44270  1.0000
  C   C2404     1.0  0.86772  0.82084  0.44372  1.0000
  C   C2405     1.0  0.77184  0.88407  0.46698  1.0000
  C   C2406     1.0  0.78990  0.64999  0.36190  1.0000
  C   C2407     1.0  0.73244  0.83675  0.45493  1.0000
  H   H1920     1.0  0.84239  0.94628  0.45193  1.0000
  H   H1921     1.0  0.93926  0.87622  0.44162  1.0000
  C   C2408     1.0  0.83168  0.85695  0.42647  1.0000
  C   C2409     1.0  0.80709  0.85848  0.42358  1.0000
  C   C2410     1.0  0.79788  0.85832  0.40981  1.0000
  C   C2411     1.0  0.81327  0.85689  0.39874  1.0000
  C   C2412     1.0  0.83794  0.85573  0.40146  1.0000
  C   C2413     1.0  0.84709  0.85565  0.41524  1.0000
  H   H1922     1.0  0.64995  0.95095  0.41040  1.0000
  C   C2414     1.0  0.82051  0.83171  0.46873  1.0000
  H   H1923     1.0  0.75296  0.78510  0.45013  1.0000
  H   H1924     1.0  0.78986  0.81302  0.43629  1.0000
  C   C2415     1.0  0.83063  0.64481  0.35699  1.0000
  C   C2416     1.0  0.81080  0.75360  0.45085  1.0000
  C   C2417     1.0  0.80452  0.58473  0.42758  1.0000
  H   H1925     1.0  0.80173  0.56932  0.43495  1.0000
  H   H1926     1.0  0.88665  0.79322  0.44198  1.0000
  H   H1927     1.0  0.84778  0.80514  0.44375  1.0000
  C   C2418     1.0  0.70522  0.57002  0.34200  1.0000
  S   S326      1.0  0.95449  0.78216  0.37318  1.0000
  H   H1928     1.0  0.71729  0.81828  0.45025  1.0000
  H   H1929     1.0  0.79477  0.85923  0.43200  1.0000
  H   H1930     1.0  0.77855  0.85878  0.40770  1.0000
  H   H1931     1.0  0.80594  0.85634  0.38804  1.0000
  H   H1932     1.0  0.84971  0.85416  0.39287  1.0000
  H   H1933     1.0  0.86595  0.85403  0.41696  1.0000
  H   H1934     1.0  0.74262  0.91037  0.47892  1.0000
  H   H1935     1.0  0.76357  0.90672  0.42033  1.0000
  C   C2419     1.0  0.77969  0.61375  0.31102  1.0000
  H   H1936     1.0  0.93212  0.82839  0.44107  1.0000
  C   C2420     1.0  0.82143  0.64703  0.32121  1.0000
  C   C2421     1.0  0.91930  0.86082  0.44244  1.0000
  C   C2422     1.0  0.82923  0.65587  0.30789  1.0000
  H   H1937     1.0  0.61097  0.94610  0.42419  1.0000
  H   H1938     1.0  0.78176  0.89488  0.44583  1.0000
  H   H1939     1.0  0.81481  0.63948  0.40094  1.0000
  H   H1940     1.0  0.70396  0.62797  0.33103  1.0000
  H   H1941     1.0  0.81890  0.65000  0.28580  1.0000
  C   C2423     1.0  0.75408  0.54388  0.25468  1.0000
  H   H1942     1.0  0.89635  0.54394  0.23157  1.0000
  C   C2424     1.0  0.84534  0.67166  0.44583  1.0000
  H   H1943     1.0  0.81205  0.53937  0.32656  1.0000
  H   H1944     1.0  0.80006  0.73045  0.39944  1.0000
  H   H1945     1.0  0.96927  0.71074  0.34724  1.0000
  H   H1946     1.0  0.80068  0.57722  0.32151  1.0000
  C   C2425     1.0  0.80670  0.54140  0.34864  1.0000
  H   H1947     1.0  0.69175  0.54967  0.34390  1.0000
  P   P81       1.0  0.78610  0.61330  0.33990  1.0000
  C   C2426     1.0  0.96281  0.80480  0.33506  1.0000
  C   C2427     1.0  0.87529  0.91982  0.47309  1.0000
  Fe  Fe165     1.0  0.93978  0.77135  0.41301  1.0000
  C   C2428     1.0  0.84312  0.90749  0.44844  1.0000
  H   H1948     1.0  0.77470  0.61273  0.28859  1.0000
  H   H1949     1.0  0.77705  0.56242  0.23729  1.0000
  C   C2429     1.0  0.65440  0.96298  0.46357  1.0000
  H   H1950     1.0  0.88863  0.60783  0.23705  1.0000
  C   C2430     1.0  0.85503  0.74866  0.46356  1.0000
  C   C2431     1.0  0.88190  0.66122  0.40936  1.0000
  C   C2432     1.0  0.54952  0.51945  0.23251  1.0000
  C   C2433     1.0  0.62809  0.59765  0.23725  1.0000
  S   S327      1.0  0.95457  0.81199  0.40398  1.0000
  C   C2434     1.0  0.94680  0.78312  0.47731  1.0000
  H   H1951     1.0  0.81048  0.68095  0.44605  1.0000
  C   C2435     1.0  0.94367  0.77315  0.45192  1.0000
  H   H1952     1.0  0.82949  0.61651  0.44200  1.0000
  C   C2436     1.0  0.82394  0.63160  0.42206  1.0000
  C   C2437     1.0  0.73905  0.56591  0.23682  1.0000
  C   C2438     1.0  0.79718  0.61624  0.23111  1.0000
  C   C2439     1.0  0.86890  0.89539  0.46569  1.0000
  C   C2440     1.0  0.92485  0.70470  0.42230  1.0000
  C   C2441     1.0  0.82023  0.61155  0.43155  1.0000
  C   C2442     1.0  0.53131  0.48659  0.29768  1.0000
  H   H1953     1.0  0.83929  0.84407  0.47411  1.0000
  C   C2443     1.0  0.84958  0.93194  0.45585  1.0000
  C   C2444     1.0  0.92891  0.69089  0.41071  1.0000
  C   C2445     1.0  0.64941  0.95063  0.47632  1.0000
  H   H1954     1.0  0.69699  0.49685  0.32474  1.0000
  S   S328      1.0  0.75935  0.96631  0.39113  1.0000
  H   H1955     1.0  0.75304  0.97542  0.43687  1.0000
  H   H1956     1.0  0.84866  0.74276  0.39987  1.0000
  H   H1957     1.0  0.94856  0.69736  0.40651  1.0000
  H   H1958     1.0  0.83347  0.51646  0.23803  1.0000
  C   C2446     1.0  0.79153  0.69491  0.41096  1.0000
  C   C2447     1.0  0.82700  0.68263  0.46673  1.0000
  H   H1959     1.0  0.55519  0.50706  0.37090  1.0000
  H   H1960     1.0  0.86563  0.64471  0.40396  1.0000
  H   H1961     1.0  0.80322  0.76521  0.47119  1.0000
  C   C2448     1.0  0.80241  0.67915  0.41776  1.0000
  C   C2449     1.0  0.94130  0.81107  0.33841  1.0000
  H   H1962     1.0  0.88000  0.66279  0.44970  1.0000
  H   H1963     1.0  0.85804  0.49509  0.30728  1.0000
  C   C2450     1.0  0.79622  0.59757  0.40459  1.0000
  H   H1964     1.0  0.78037  0.55693  0.41108  1.0000
  C   C2451     1.0  0.96614  0.76725  0.45343  1.0000
  H   H1965     1.0  0.91061  0.65906  0.39501  1.0000
  C   C2452     1.0  0.79250  0.57774  0.41412  1.0000
  C   C2453     1.0  0.81189  0.62440  0.40852  1.0000
  C   C2454     1.0  0.82608  0.67849  0.45220  1.0000
  C   C2455     1.0  0.89932  0.69691  0.42740  1.0000
  H   H1966     1.0  0.81227  0.68821  0.47156  1.0000
  H   H1967     1.0  0.78717  0.90256  0.47145  1.0000
  H   H1968     1.0  0.88184  0.67101  0.47524  1.0000
  C   C2456     1.0  0.71256  0.74120  0.47765  1.0000
  H   H1969     1.0  0.52216  0.57505  0.38645  1.0000
  H   H1970     1.0  0.75876  0.78630  0.47603  1.0000
  H   H1971     1.0  0.63365  0.83462  0.47827  1.0000
  C   C2457     1.0  0.75451  0.86505  0.47563  1.0000
  C   C2458     1.0  0.60387  0.50476  0.33211  1.0000
  H   H1972     1.0  0.56716  0.50678  0.32526  1.0000
  C   C2459     1.0  0.58248  0.51219  0.33359  1.0000
  H   H1973     1.0  0.49371  0.48785  0.29146  1.0000
  C   C2460     1.0  0.88238  0.48421  0.24623  1.0000
  H   H1974     1.0  0.86811  0.80896  0.47116  1.0000
  C   C2461     1.0  0.88238  0.48858  0.29168  1.0000
  H   H1975     1.0  0.52036  0.48929  0.26737  1.0000
  C   C2462     1.0  0.60289  0.53618  0.35552  1.0000
  C   C2463     1.0  0.59333  0.48601  0.24562  1.0000
  H   H1976     1.0  0.64082  0.53573  0.36171  1.0000
  C   C2464     1.0  0.72088  0.61653  0.23229  1.0000
  C   C2465     1.0  0.51409  0.48573  0.24481  1.0000
  C   C2466     1.0  0.51758  0.48785  0.33796  1.0000
  C   C2467     1.0  0.96846  0.77599  0.47889  1.0000
  C   C2468     1.0  0.48204  0.50658  0.32563  1.0000
  H   H1977     1.0  0.78947  0.51835  0.23933  1.0000
  H   H1978     1.0  0.48225  0.50958  0.25574  1.0000
  C   C2469     1.0  0.79394  0.50921  0.23010  1.0000
  H   H1979     1.0  0.72253  0.95064  0.69040  1.0000
  S   S329      1.0  0.95487  0.81204  0.52429  1.0000
  H   H1980     1.0  0.67200  0.94609  0.61439  1.0000
  Fe  Fe166     1.0  0.93116  0.78067  0.53904  1.0000
  S   S330      1.0  0.88517  0.76247  0.53887  1.0000
  S   S331      1.0  0.94829  0.75138  0.53170  1.0000
  Fe  Fe167     1.0  0.70385  0.80336  0.54772  1.0000
  S   S332      1.0  0.67282  0.76282  0.54045  1.0000
  S   S333      1.0  0.68699  0.83490  0.54995  1.0000
  Fe  Fe168     1.0  0.74703  0.78175  0.55234  1.0000
  S   S334      1.0  0.71787  0.73959  0.54615  1.0000
  S   S335      1.0  0.79262  0.79920  0.55669  1.0000
  Fe  Fe169     1.0  0.70511  0.75819  0.52812  1.0000
  S   S336      1.0  0.70436  0.73985  0.50595  1.0000
  Fe  Fe170     1.0  0.68772  0.74798  0.55918  1.0000
  S   S337      1.0  0.65377  0.71831  0.57195  1.0000
  S   S338      1.0  0.73513  0.79996  0.53412  1.0000
  S   S339      1.0  0.71796  0.78885  0.56669  1.0000
  Fe  Fe171     1.0  0.49862  0.92451  0.65006  1.0000
  S   S340      1.0  0.53924  0.95018  0.66050  1.0000
  C   C2470     1.0  0.88016  0.71081  0.51215  1.0000
  Fe  Fe172     1.0  0.51555  0.87881  0.64410  1.0000
  S   S341      1.0  0.55629  0.90073  0.65432  1.0000
  S   S342      1.0  0.50560  0.83815  0.63355  1.0000
  Fe  Fe173     1.0  0.53536  0.91295  0.67138  1.0000
  S   S343      1.0  0.53959  0.90272  0.69422  1.0000
  Fe  Fe174     1.0  0.55715  0.93598  0.64239  1.0000
  C   C2471     1.0  0.73165  0.95623  0.59114  1.0000
  S   S344      1.0  0.49428  0.88817  0.66172  1.0000
  S   S345      1.0  0.51686  0.91321  0.63136  1.0000
  Fe  Fe175     1.0  0.54043  0.67045  0.67347  1.0000
  S   S346      1.0  0.50212  0.67515  0.67010  1.0000
  S   S347      1.0  0.54503  0.65146  0.69382  1.0000
  Fe  Fe176     1.0  0.55976  0.69170  0.64398  1.0000
  S   S348      1.0  0.52184  0.69725  0.63917  1.0000
  S   S349      1.0  0.59746  0.71016  0.63085  1.0000
  Fe  Fe177     1.0  0.52696  0.71447  0.66119  1.0000
  S   S350      1.0  0.52300  0.75150  0.67002  1.0000
  Fe  Fe178     1.0  0.50002  0.65694  0.64858  1.0000
  C   C2472     1.0  0.90039  0.84064  0.48252  1.0000
  S   S351      1.0  0.56571  0.71100  0.66587  1.0000
  S   S352      1.0  0.53756  0.65011  0.65213  1.0000
  S   S353      1.0  0.75619  0.95936  0.54682  1.0000
  C   C2473     1.0  0.54796  0.66692  0.71080  1.0000
  C   C2474     1.0  0.54547  0.65174  0.72267  1.0000
  C   C2475     1.0  0.92013  0.67703  0.63849  1.0000
  C   C2476     1.0  0.58818  0.86716  0.68020  1.0000
  C   C2477     1.0  0.55370  0.69415  0.71272  1.0000
  H   H1981     1.0  0.54140  0.63073  0.72132  1.0000
  H   H1982     1.0  0.55588  0.70609  0.70371  1.0000
  C   C2478     1.0  0.54463  0.91875  0.71123  1.0000
  C   C2479     1.0  0.55669  0.94657  0.71348  1.0000
  C   C2480     1.0  0.60272  0.57693  0.63898  1.0000
  C   C2481     1.0  0.53721  0.90282  0.72292  1.0000
  H   H1983     1.0  0.56256  0.95911  0.70466  1.0000
  H   H1984     1.0  0.52779  0.88128  0.72135  1.0000
  C   C2482     1.0  0.69859  0.83267  0.59533  1.0000
  H   H1985     1.0  0.85377  0.58141  0.59646  1.0000
  C   C2483     1.0  0.94828  0.70516  0.65779  1.0000
  C   C2484     1.0  0.68861  0.94834  0.60803  1.0000
  H   H1986     1.0  0.93154  0.86883  0.49644  1.0000
  C   C2485     1.0  0.50935  0.81349  0.64368  1.0000
  C   C2486     1.0  0.51353  0.79235  0.63705  1.0000
  C   C2487     1.0  0.51734  0.77285  0.64496  1.0000
  C   C2488     1.0  0.51667  0.77432  0.65953  1.0000
  C   C2489     1.0  0.51178  0.79505  0.66610  1.0000
  C   C2490     1.0  0.50821  0.81465  0.65822  1.0000
  C   C2491     1.0  0.50299  0.71419  0.60723  1.0000
  H   H1987     1.0  0.52091  0.75681  0.63983  1.0000
  C   C2492     1.0  0.77313  0.76247  0.51366  1.0000
  C   C2493     1.0  0.57664  0.84257  0.67268  1.0000
  H   H1988     1.0  0.63473  0.92489  0.55547  1.0000
  C   C2494     1.0  0.69893  0.74755  0.48845  1.0000
  C   C2495     1.0  0.58443  0.77047  0.62752  1.0000
  C   C2496     1.0  0.70731  0.86948  0.55036  1.0000
  C   C2497     1.0  0.69598  0.88766  0.55369  1.0000
  C   C2498     1.0  0.71104  0.91538  0.55311  1.0000
  C   C2499     1.0  0.73757  0.92504  0.54925  1.0000
  C   C2500     1.0  0.74909  0.90687  0.54631  1.0000
  C   C2501     1.0  0.73400  0.87914  0.54682  1.0000
  H   H1989     1.0  0.67536  0.88028  0.55650  1.0000
  H   H1990     1.0  0.70200  0.92924  0.55538  1.0000
  H   H1991     1.0  0.76966  0.91427  0.54344  1.0000
  H   H1992     1.0  0.74288  0.86525  0.54431  1.0000
  C   C2502     1.0  0.63785  0.71902  0.58803  1.0000
  C   C2503     1.0  0.61058  0.70219  0.58903  1.0000
  C   C2504     1.0  0.59769  0.69989  0.60181  1.0000
  C   C2505     1.0  0.61195  0.71401  0.61400  1.0000
  C   C2506     1.0  0.63902  0.73147  0.61291  1.0000
  C   C2507     1.0  0.65183  0.73412  0.60006  1.0000
  H   H1993     1.0  0.59940  0.69047  0.57986  1.0000
  H   H1994     1.0  0.57681  0.68684  0.60223  1.0000
  H   H1995     1.0  0.65036  0.74273  0.62215  1.0000
  H   H1996     1.0  0.67279  0.74708  0.59960  1.0000
  C   C2508     1.0  0.85988  0.77354  0.54357  1.0000
  C   C2509     1.0  0.86582  0.79928  0.54932  1.0000
  C   C2510     1.0  0.84501  0.80672  0.55319  1.0000
  C   C2511     1.0  0.81796  0.78871  0.55130  1.0000
  C   C2512     1.0  0.81204  0.76310  0.54537  1.0000
  C   C2513     1.0  0.83284  0.75562  0.54155  1.0000
  H   H1997     1.0  0.88643  0.81331  0.55099  1.0000
  H   H1998     1.0  0.84991  0.82654  0.55782  1.0000
  H   H1999     1.0  0.79143  0.74895  0.54385  1.0000
  H   H2000     1.0  0.82792  0.73564  0.53717  1.0000
  H   H2001     1.0  0.49306  0.95701  0.67978  1.0000
  C   C2514     1.0  0.65138  0.91152  0.51625  1.0000
  H   H2002     1.0  0.62750  0.94702  0.65342  1.0000
  H   H2003     1.0  0.95118  0.66857  0.56792  1.0000
  H   H2004     1.0  0.69267  0.78659  0.51110  1.0000
  H   H2005     1.0  0.81009  0.87867  0.48518  1.0000
  H   H2006     1.0  0.60594  0.95682  0.55060  1.0000
  C   C2515     1.0  0.55861  0.76146  0.70571  1.0000
  H   H2007     1.0  0.84748  0.87215  0.49702  1.0000
  H   H2008     1.0  0.57515  0.85441  0.57186  1.0000
  C   C2516     1.0  0.64203  0.88966  0.61461  1.0000
  C   C2517     1.0  0.57286  0.56304  0.61831  1.0000
  C   C2518     1.0  0.70779  0.85303  0.60585  1.0000
  C   C2519     1.0  0.61320  0.87122  0.58333  1.0000
  C   C2520     1.0  0.77054  0.74201  0.50387  1.0000
  C   C2521     1.0  0.61054  0.88169  0.63803  1.0000
  C   C2522     1.0  0.52373  0.81537  0.59228  1.0000
  H   H2009     1.0  0.56196  0.85725  0.61885  1.0000
  C   C2523     1.0  0.68888  0.92678  0.59976  1.0000
  H   H2010     1.0  0.49383  0.58559  0.70570  1.0000
  C   C2524     1.0  0.59920  0.88777  0.49268  1.0000
  C   C2525     1.0  0.59763  0.91013  0.49950  1.0000
  H   H2011     1.0  0.59078  0.75853  0.69454  1.0000
  H   H2012     1.0  0.50674  0.71006  0.72794  1.0000
  H   H2013     1.0  0.51114  0.79617  0.67735  1.0000
  H   H2014     1.0  0.60686  0.85645  0.59120  1.0000
  H   H2015     1.0  0.54366  0.74900  0.69788  1.0000
  H   H2016     1.0  0.52173  0.75605  0.61299  1.0000
  C   C2526     1.0  0.61036  0.94699  0.69241  1.0000
  H   H2017     1.0  0.59063  0.51306  0.62804  1.0000
  H   H2018     1.0  0.67056  0.89125  0.52833  1.0000
  H   H2019     1.0  0.48707  0.61050  0.68594  1.0000
  H   H2020     1.0  0.53338  0.84522  0.49129  1.0000
  H   H2021     1.0  0.72418  0.85472  0.61298  1.0000
  H   H2022     1.0  0.56329  0.52307  0.60984  1.0000
  C   C2527     1.0  0.57416  0.53804  0.61804  1.0000
  P   P82       1.0  0.58582  0.61498  0.62887  1.0000
  C   C2528     1.0  0.59293  0.63127  0.64611  1.0000
  C   C2529     1.0  0.60972  0.63349  0.61643  1.0000
  C   C2530     1.0  0.60153  0.63348  0.60240  1.0000
  C   C2531     1.0  0.62008  0.64777  0.59278  1.0000
  C   C2532     1.0  0.64688  0.66212  0.59708  1.0000
  C   C2533     1.0  0.65533  0.66159  0.61092  1.0000
  C   C2534     1.0  0.63691  0.64699  0.62053  1.0000
  C   C2535     1.0  0.60746  0.65907  0.64787  1.0000
  C   C2536     1.0  0.61071  0.67200  0.66106  1.0000
  C   C2537     1.0  0.59929  0.65731  0.67257  1.0000
  C   C2538     1.0  0.58456  0.62965  0.67090  1.0000
  C   C2539     1.0  0.58123  0.61667  0.65771  1.0000
  C   C2540     1.0  0.55280  0.61260  0.62418  1.0000
  C   C2541     1.0  0.52997  0.58966  0.62686  1.0000
  C   C2542     1.0  0.50448  0.58882  0.62394  1.0000
  C   C2543     1.0  0.89603  0.61115  0.63096  1.0000
  C   C2544     1.0  0.52424  0.63405  0.61616  1.0000
  C   C2545     1.0  0.54972  0.63494  0.61908  1.0000
  H   H2023     1.0  0.56118  0.56728  0.61017  1.0000
  H   H2024     1.0  0.58083  0.62264  0.59886  1.0000
  H   H2025     1.0  0.61366  0.64837  0.58203  1.0000
  H   H2026     1.0  0.66100  0.67390  0.58967  1.0000
  H   H2027     1.0  0.67613  0.67272  0.61421  1.0000
  H   H2028     1.0  0.64383  0.64658  0.63118  1.0000
  H   H2029     1.0  0.61548  0.67103  0.63901  1.0000
  H   H2030     1.0  0.62127  0.69358  0.66220  1.0000
  H   H2031     1.0  0.60102  0.66742  0.68272  1.0000
  H   H2032     1.0  0.57483  0.61854  0.67976  1.0000
  H   H2033     1.0  0.56877  0.59544  0.65648  1.0000
  H   H2034     1.0  0.53174  0.57269  0.63152  1.0000
  C   C2546     1.0  0.85618  0.57847  0.61878  1.0000
  H   H2035     1.0  0.61825  0.88849  0.48950  1.0000
  H   H2036     1.0  0.52203  0.65160  0.61256  1.0000
  H   H2037     1.0  0.56705  0.65336  0.61789  1.0000
  C   C2547     1.0  0.85876  0.74273  0.49838  1.0000
  P   P83       1.0  0.84640  0.76513  0.49027  1.0000
  C   C2548     1.0  0.50892  0.79044  0.71228  1.0000
  C   C2549     1.0  0.87299  0.79825  0.49224  1.0000
  C   C2550     1.0  0.88789  0.80705  0.50500  1.0000
  C   C2551     1.0  0.90856  0.83262  0.50654  1.0000
  C   C2552     1.0  0.70982  0.97356  0.60790  1.0000
  C   C2553     1.0  0.61176  0.95596  0.59021  1.0000
  H   H2038     1.0  0.73297  0.81473  0.49928  1.0000
  C   C2554     1.0  0.81996  0.78516  0.50907  1.0000
  C   C2555     1.0  0.79772  0.78408  0.51618  1.0000
  H   H2039     1.0  0.77412  0.98058  0.50659  1.0000
  H   H2040     1.0  0.48683  0.57130  0.62621  1.0000
  H   H2041     1.0  0.67515  0.93964  0.68495  1.0000
  H   H2042     1.0  0.75056  0.95750  0.48423  1.0000
  H   H2043     1.0  0.88347  0.79417  0.51379  1.0000
  H   H2044     1.0  0.91981  0.83933  0.51646  1.0000
  H   H2045     1.0  0.48301  0.66611  0.71587  1.0000
  H   H2046     1.0  0.62668  0.85344  0.64390  1.0000
  H   H2047     1.0  0.83888  0.80173  0.51165  1.0000
  H   H2048     1.0  0.79969  0.79942  0.52411  1.0000
  C   C2556     1.0  0.69690  0.80741  0.50973  1.0000
  C   C2557     1.0  0.61117  0.90384  0.71539  1.0000
  H   H2049     1.0  0.56005  0.83876  0.66530  1.0000
  H   H2050     1.0  0.70779  0.81856  0.59427  1.0000
  C   C2558     1.0  0.76284  0.90665  0.49802  1.0000
  C   C2559     1.0  0.69932  0.92588  0.51915  1.0000
  P   P84       1.0  0.57310  0.77737  0.59966  1.0000
  H   H2051     1.0  0.65434  0.86025  0.62347  1.0000
  C   C2560     1.0  0.59226  0.78169  0.58420  1.0000
  C   C2561     1.0  0.59054  0.79828  0.57367  1.0000
  C   C2562     1.0  0.60563  0.80154  0.56183  1.0000
  C   C2563     1.0  0.62228  0.78806  0.56032  1.0000
  C   C2564     1.0  0.62424  0.77169  0.57077  1.0000
  C   C2565     1.0  0.60959  0.76879  0.58274  1.0000
  H   H2052     1.0  0.57958  0.88164  0.67883  1.0000
  C   C2566     1.0  0.62544  0.90332  0.61636  1.0000
  C   C2567     1.0  0.68637  0.84546  0.51432  1.0000
  C   C2568     1.0  0.85416  0.70799  0.51455  1.0000
  H   H2053     1.0  0.94379  0.60532  0.63084  1.0000
  C   C2569     1.0  0.59486  0.78221  0.61502  1.0000
  C   C2570     1.0  0.62872  0.78954  0.63882  1.0000
  C   C2571     1.0  0.63923  0.80164  0.62648  1.0000
  C   C2572     1.0  0.62235  0.79825  0.61467  1.0000
  C   C2573     1.0  0.53596  0.79742  0.59155  1.0000
  H   H2054     1.0  0.58897  0.88845  0.55387  1.0000
  H   H2055     1.0  0.57774  0.80882  0.57453  1.0000
  H   H2056     1.0  0.60453  0.81456  0.55380  1.0000
  H   H2057     1.0  0.63401  0.79054  0.55116  1.0000
  H   H2058     1.0  0.63745  0.76154  0.56964  1.0000
  H   H2059     1.0  0.61176  0.75642  0.59087  1.0000
  C   C2574     1.0  0.69629  0.87156  0.60693  1.0000
  C   C2575     1.0  0.61403  0.96578  0.54093  1.0000
  H   H2060     1.0  0.90765  0.61911  0.64068  1.0000
  H   H2061     1.0  0.60097  0.94465  0.58086  1.0000
  C   C2576     1.0  0.48396  0.72953  0.69867  1.0000
  H   H2062     1.0  0.66052  0.81329  0.62599  1.0000
  H   H2063     1.0  0.63088  0.80788  0.60524  1.0000
  H   H2064     1.0  0.66797  0.76104  0.49269  1.0000
  H   H2065     1.0  0.76463  0.85410  0.52206  1.0000
  H   H2066     1.0  0.63152  0.89771  0.51869  1.0000
  C   C2577     1.0  0.62134  0.92624  0.72484  1.0000
  C   C2578     1.0  0.68047  0.93086  0.69382  1.0000
  H   H2067     1.0  0.56562  0.72484  0.58637  1.0000
  C   C2579     1.0  0.72629  0.85099  0.50210  1.0000
  C   C2580     1.0  0.62304  0.94714  0.66436  1.0000
  P   P85       1.0  0.51658  0.76460  0.72015  1.0000
  C   C2581     1.0  0.77105  0.96004  0.50412  1.0000
  C   C2582     1.0  0.55123  0.77147  0.71778  1.0000
  C   C2583     1.0  0.68010  0.81825  0.51524  1.0000
  H   H2068     1.0  0.53962  0.85143  0.69830  1.0000
  C   C2584     1.0  0.55535  0.84096  0.61098  1.0000
  H   H2069     1.0  0.88880  0.69931  0.51788  1.0000
  C   C2585     1.0  0.93844  0.66929  0.60256  1.0000
  C   C2586     1.0  0.68117  0.95251  0.50639  1.0000
  C   C2587     1.0  0.67528  0.86968  0.59758  1.0000
  P   P86       1.0  0.66122  0.89425  0.59912  1.0000
  C   C2588     1.0  0.81763  0.76464  0.49921  1.0000
  H   H2070     1.0  0.75618  0.76132  0.51952  1.0000
  H   H2071     1.0  0.61628  0.54770  0.64650  1.0000
  H   H2072     1.0  0.92912  0.72368  0.59154  1.0000
  C   C2589     1.0  0.93322  0.70592  0.59104  1.0000
  C   C2590     1.0  0.93976  0.69735  0.57837  1.0000
  C   C2591     1.0  0.94560  0.67480  0.57772  1.0000
  C   C2592     1.0  0.94473  0.66067  0.58972  1.0000
  C   C2593     1.0  0.58961  0.53243  0.62827  1.0000
  C   C2594     1.0  0.61001  0.89955  0.62808  1.0000
  H   H2073     1.0  0.56338  0.75804  0.62815  1.0000
  C   C2595     1.0  0.60399  0.55192  0.63869  1.0000
  H   H2074     1.0  0.61556  0.81293  0.68566  1.0000
  H   H2075     1.0  0.71404  0.88300  0.50750  1.0000
  H   H2076     1.0  0.68432  0.97079  0.50128  1.0000
  H   H2077     1.0  0.48560  0.71096  0.61324  1.0000
  H   H2078     1.0  0.73629  0.93185  0.71088  1.0000
  H   H2079     1.0  0.66280  0.80576  0.52076  1.0000
  C   C2596     1.0  0.67345  0.90769  0.52168  1.0000
  H   H2080     1.0  0.62444  0.91696  0.60864  1.0000
  C   C2597     1.0  0.66631  0.84932  0.58696  1.0000
  C   C2598     1.0  0.63896  0.89189  0.58435  1.0000
  H   H2081     1.0  0.61443  0.59200  0.64695  1.0000
  H   H2082     1.0  0.84275  0.69439  0.52223  1.0000
  C   C2599     1.0  0.63837  0.97489  0.58928  1.0000
  H   H2083     1.0  0.52336  0.85049  0.60299  1.0000
  H   H2084     1.0  0.94094  0.70859  0.56911  1.0000
  H   H2085     1.0  0.60908  0.97844  0.66247  1.0000
  C   C2600     1.0  0.59155  0.87980  0.71969  1.0000
  H   H2086     1.0  0.57674  0.80358  0.66911  1.0000
  H   H2087     1.0  0.64182  0.79164  0.64789  1.0000
  C   C2601     1.0  0.84344  0.72383  0.50769  1.0000
  H   H2088     1.0  0.82372  0.72196  0.51021  1.0000
  H   H2089     1.0  0.59313  0.76436  0.64883  1.0000
  H   H2090     1.0  0.59821  0.87852  0.64699  1.0000
  H   H2091     1.0  0.58442  0.82634  0.61748  1.0000
  C   C2602     1.0  0.65518  0.93372  0.50830  1.0000
  S   S354      1.0  0.59669  0.96230  0.63202  1.0000
  C   C2603     1.0  0.79268  0.74303  0.49667  1.0000
  C   C2604     1.0  0.64665  0.91097  0.57408  1.0000
  C   C2605     1.0  0.58658  0.58240  0.62899  1.0000
  C   C2606     1.0  0.55799  0.80113  0.60058  1.0000
  C   C2607     1.0  0.91501  0.84931  0.49528  1.0000
  H   H2092     1.0  0.67161  0.81564  0.57749  1.0000
  H   H2093     1.0  0.57076  0.92665  0.50755  1.0000
  C   C2608     1.0  0.60130  0.77420  0.63937  1.0000
  H   H2094     1.0  0.78943  0.95626  0.52365  1.0000
  H   H2095     1.0  0.63466  0.91528  0.66902  1.0000
  C   C2609     1.0  0.77576  0.91980  0.51070  1.0000
  C   C2610     1.0  0.77983  0.94637  0.51371  1.0000
  C   C2611     1.0  0.60813  0.82822  0.68407  1.0000
  H   H2096     1.0  0.78240  0.90953  0.51841  1.0000
  H   H2097     1.0  0.65084  0.84784  0.57928  1.0000
  C   C2612     1.0  0.78228  0.85753  0.51628  1.0000
  H   H2098     1.0  0.80165  0.84662  0.53341  1.0000
  C   C2613     1.0  0.52955  0.81376  0.70793  1.0000
  C   C2614     1.0  0.70753  0.93729  0.69692  1.0000
  H   H2099     1.0  0.69519  0.91255  0.48892  1.0000
  H   H2100     1.0  0.67384  0.85380  0.51922  1.0000
  H   H2101     1.0  0.58345  0.86224  0.71268  1.0000
  C   C2615     1.0  0.80342  0.85358  0.52284  1.0000
  C   C2616     1.0  0.49608  0.70882  0.71808  1.0000
  C   C2617     1.0  0.52359  0.73977  0.60708  1.0000
  C   C2618     1.0  0.93270  0.69207  0.60312  1.0000
  H   H2102     1.0  0.72639  0.73229  0.48017  1.0000
  C   C2619     1.0  0.70935  0.86187  0.50778  1.0000
  H   H2103     1.0  0.89705  0.62002  0.59587  1.0000
  C   C2620     1.0  0.92340  0.69342  0.65055  1.0000
  C   C2621     1.0  0.96169  0.61667  0.62552  1.0000
  C   C2622     1.0  0.59524  0.86994  0.57235  1.0000
  C   C2623     1.0  0.80788  0.87156  0.49565  1.0000
  C   C2624     1.0  0.62446  0.96139  0.51674  1.0000
  H   H2104     1.0  0.84317  0.85562  0.52103  1.0000
  H   H2105     1.0  0.52941  0.68006  0.58681  1.0000
  H   H2106     1.0  0.52799  0.78041  0.58410  1.0000
  H   H2107     1.0  0.48563  0.74703  0.69314  1.0000
  C   C2625     1.0  0.57256  0.90924  0.50284  1.0000
  C   C2626     1.0  0.53340  0.83709  0.60201  1.0000
  C   C2627     1.0  0.50067  0.96325  0.70212  1.0000
  C   C2628     1.0  0.71056  0.93097  0.59128  1.0000
  H   H2108     1.0  0.93981  0.79005  0.48641  1.0000
  H   H2109     1.0  0.70394  0.88755  0.61499  1.0000
  C   C2629     1.0  0.54648  0.74412  0.59957  1.0000
  C   C2630     1.0  0.54832  0.72236  0.59221  1.0000
  C   C2631     1.0  0.70315  0.94850  0.51171  1.0000
  C   C2632     1.0  0.50506  0.69267  0.59994  1.0000
  C   C2633     1.0  0.71991  0.82359  0.50319  1.0000
  C   C2634     1.0  0.60300  0.88912  0.56223  1.0000
  P   P87       1.0  0.62726  0.94060  0.50243  1.0000
  C   C2635     1.0  0.78415  0.86617  0.50254  1.0000
  C   C2636     1.0  0.57121  0.78827  0.72749  1.0000
  C   C2637     1.0  0.56773  0.82314  0.61026  1.0000
  H   H2110     1.0  0.71093  0.91489  0.58450  1.0000
  H   H2111     1.0  0.60413  0.92816  0.52975  1.0000
  H   H2112     1.0  0.55018  0.81655  0.70901  1.0000
  H   H2113     1.0  0.84791  0.68340  0.48624  1.0000
  P   P88       1.0  0.75696  0.87204  0.49437  1.0000
  C   C2638     1.0  0.62873  0.90953  0.56307  1.0000
  C   C2639     1.0  0.82682  0.85866  0.51585  1.0000
  C   C2640     1.0  0.89021  0.61170  0.60581  1.0000
  H   H2114     1.0  0.92807  0.69944  0.61283  1.0000
  H   H2115     1.0  0.57826  0.93727  0.60342  1.0000
  H   H2116     1.0  0.71647  0.92311  0.52342  1.0000
  C   C2641     1.0  0.60623  0.96478  0.68346  1.0000
  H   H2117     1.0  0.60888  0.97842  0.48942  1.0000
  C   C2642     1.0  0.67797  0.83090  0.58590  1.0000
  C   C2643     1.0  0.82915  0.86786  0.50231  1.0000
  P   P89       1.0  0.62575  0.90529  0.69859  1.0000
  H   H2118     1.0  0.86416  0.58038  0.64103  1.0000
  H   H2119     1.0  0.48183  0.61043  0.61657  1.0000
  C   C2644     1.0  0.62662  0.86763  0.63629  1.0000
  H   H2120     1.0  0.66612  0.92752  0.57466  1.0000
  C   C2645     1.0  0.61299  0.94969  0.52909  1.0000
  C   C2646     1.0  0.64233  0.87159  0.62464  1.0000
  C   C2647     1.0  0.62105  0.92922  0.68741  1.0000
  C   C2648     1.0  0.62030  0.85316  0.69134  1.0000
  C   C2649     1.0  0.52770  0.69677  0.59241  1.0000
  S   S355      1.0  0.96174  0.79694  0.55721  1.0000
  H   H2121     1.0  0.49289  0.84602  0.69503  1.0000
  C   C2650     1.0  0.87141  0.58917  0.63120  1.0000
  C   C2651     1.0  0.47652  0.80729  0.70405  1.0000
  C   C2652     1.0  0.49685  0.73200  0.71187  1.0000
  C   C2653     1.0  0.59874  0.95168  0.60306  1.0000
  H   H2122     1.0  0.74796  0.95946  0.58430  1.0000
  C   C2654     1.0  0.63356  0.95659  0.48595  1.0000
  H   H2123     1.0  0.91581  0.73207  0.50114  1.0000
  P   P90       1.0  0.93752  0.65100  0.61809  1.0000
  C   C2655     1.0  0.52367  0.83365  0.70179  1.0000
  H   H2124     1.0  0.50633  0.81212  0.58556  1.0000
  C   C2656     1.0  0.58633  0.82294  0.67471  1.0000
  C   C2657     1.0  0.60515  0.78297  0.71368  1.0000
  H   H2125     1.0  0.59729  0.91023  0.62933  1.0000
  C   C2658     1.0  0.61210  0.96626  0.61535  1.0000
  C   C2659     1.0  0.75775  0.94699  0.49156  1.0000
  H   H2126     1.0  0.53019  0.88513  0.50266  1.0000
  H   H2127     1.0  0.57743  0.84707  0.48464  1.0000
  C   C2660     1.0  0.62707  0.92926  0.67325  1.0000
  H   H2128     1.0  0.83710  0.56141  0.61897  1.0000
  C   C2661     1.0  0.48231  0.78726  0.71016  1.0000
  C   C2662     1.0  0.61048  0.87291  0.68936  1.0000
  H   H2129     1.0  0.75133  0.72521  0.50206  1.0000
  H   H2130     1.0  0.51411  0.79131  0.62579  1.0000
  C   C2663     1.0  0.71529  0.92673  0.70846  1.0000
  H   H2131     1.0  0.79043  0.72674  0.48930  1.0000
  H   H2132     1.0  0.50477  0.83074  0.66340  1.0000
  H   H2133     1.0  0.63716  0.85682  0.69849  1.0000
  C   C2664     1.0  0.96664  0.68417  0.64094  1.0000
  C   C2665     1.0  0.96391  0.63920  0.61816  1.0000
  C   C2666     1.0  0.87926  0.81531  0.48106  1.0000
  H   H2134     1.0  0.90078  0.66819  0.63294  1.0000
  H   H2135     1.0  0.66109  0.86952  0.49618  1.0000
  H   H2136     1.0  0.72312  0.96357  0.51070  1.0000
  C   C2667     1.0  0.58544  0.76699  0.70374  1.0000
  C   C2668     1.0  0.61262  0.96490  0.66946  1.0000
  H   H2137     1.0  0.94921  0.64315  0.58899  1.0000
  C   C2669     1.0  0.89538  0.72931  0.50277  1.0000
  C   C2670     1.0  0.66402  0.87310  0.48519  1.0000
  C   C2671     1.0  0.49722  0.83052  0.69990  1.0000
  C   C2672     1.0  0.66088  0.91366  0.70225  1.0000
  C   C2673     1.0  0.86558  0.58973  0.60610  1.0000
  C   C2674     1.0  0.68321  0.89735  0.48110  1.0000
  C   C2675     1.0  0.88473  0.74519  0.49597  1.0000
  H   H2138     1.0  0.60457  0.94681  0.70308  1.0000
  H   H2139     1.0  0.80223  0.81485  0.48780  1.0000
  C   C2676     1.0  0.55735  0.70611  0.72633  1.0000
  C   C2677     1.0  0.68024  0.75796  0.48484  1.0000
  H   H2140     1.0  0.90669  0.69709  0.65426  1.0000
  C   C2678     1.0  0.75344  0.92032  0.48856  1.0000
  C   C2679     1.0  0.90563  0.62264  0.61826  1.0000
  Fe  Fe179     1.0  0.97332  0.78378  0.51789  1.0000
  H   H2141     1.0  0.62589  0.78685  0.71225  1.0000
  H   H2142     1.0  0.89710  0.76006  0.48918  1.0000
  C   C2680     1.0  0.62175  0.97408  0.48232  1.0000
  H   H2143     1.0  0.70200  0.90173  0.72597  1.0000
  C   C2681     1.0  0.96988  0.70054  0.65297  1.0000
  C   C2682     1.0  0.94176  0.67227  0.63361  1.0000
  C   C2683     1.0  0.50162  0.61094  0.61852  1.0000
  C   C2684     1.0  0.66891  0.90327  0.71388  1.0000
  C   C2685     1.0  0.55129  0.86333  0.49354  1.0000
  C   C2686     1.0  0.57612  0.86436  0.48983  1.0000
  C   C2687     1.0  0.48484  0.95839  0.68979  1.0000
  C   C2688     1.0  0.56219  0.95822  0.72722  1.0000
  C   C2689     1.0  0.69598  0.90976  0.71695  1.0000
  H   H2144     1.0  0.65424  0.89018  0.72064  1.0000
  H   H2145     1.0  0.88798  0.92475  0.48258  1.0000
  C   C2690     1.0  0.48997  0.96486  0.71500  1.0000
  H   H2146     1.0  0.95089  0.71787  0.66712  1.0000
  H   H2147     1.0  0.48921  0.67280  0.60024  1.0000
  H   H2148     1.0  0.48037  0.61985  0.72320  1.0000
  C   C2691     1.0  0.48243  0.68366  0.71129  1.0000
  H   H2149     1.0  0.63667  0.94491  0.72181  1.0000
  H   H2150     1.0  0.48948  0.90519  0.70479  1.0000
  H   H2151     1.0  0.56257  0.72732  0.72768  1.0000
  H   H2152     1.0  0.50229  0.96842  0.72456  1.0000
  S   S356      1.0  0.69473  0.97966  0.54086  1.0000
  C   C2692     1.0  0.59805  0.79377  0.72550  1.0000
  C   C2693     1.0  0.73134  0.97749  0.59950  1.0000
  S   S357      1.0  0.65334  0.98011  0.57248  1.0000
  H   H2153     1.0  0.59766  0.97822  0.68731  1.0000
  H   H2154     1.0  0.52120  0.96570  0.70166  1.0000
  C   C2694     1.0  0.54950  0.88580  0.49998  1.0000
  H   H2155     1.0  0.57226  0.97973  0.72881  1.0000
  H   H2156     1.0  0.80781  0.76174  0.89263  1.0000
  C   C2695     1.0  0.57504  0.83906  0.83738  1.0000
  H   H2157     1.0  0.90347  0.82028  0.90400  1.0000
  Fe  Fe180     1.0  0.94506  0.78350  0.89973  1.0000
  S   S358      1.0  0.89927  0.76602  0.89628  1.0000
  S   S359      1.0  0.78169  0.97861  0.90712  1.0000
  Fe  Fe181     1.0  0.76731  0.79896  0.90318  1.0000
  S   S360      1.0  0.73875  0.75678  0.90698  1.0000
  S   S361      1.0  0.81213  0.81624  0.89923  1.0000
  Fe  Fe182     1.0  0.72629  0.82131  0.91098  1.0000
  S   S362      1.0  0.69557  0.78069  0.91573  1.0000
  S   S363      1.0  0.71200  0.85463  0.91386  1.0000
  Fe  Fe183     1.0  0.72940  0.77462  0.92670  1.0000
  S   S364      1.0  0.73117  0.75587  0.94762  1.0000
  Fe  Fe184     1.0  0.70697  0.76651  0.89555  1.0000
  S   S365      1.0  0.67166  0.73664  0.88136  1.0000
  S   S366      1.0  0.75917  0.81618  0.92330  1.0000
  S   S367      1.0  0.73638  0.80765  0.89041  1.0000
  Fe  Fe185     1.0  0.55931  0.89233  0.79423  1.0000
  S   S368      1.0  0.59103  0.93193  0.78927  1.0000
  S   S369      1.0  0.57416  0.85956  0.79378  1.0000
  Fe  Fe186     1.0  0.51897  0.91632  0.79985  1.0000
  S   S370      1.0  0.54910  0.95803  0.79614  1.0000
  C   C2696     1.0  0.69014  0.71578  0.82431  1.0000
  Fe  Fe187     1.0  0.55872  0.93846  0.77716  1.0000
  S   S371      1.0  0.56476  0.95805  0.75599  1.0000
  Fe  Fe188     1.0  0.57940  0.94781  0.80875  1.0000
  H   H2158     1.0  0.96065  0.63840  0.90180  1.0000
  S   S372      1.0  0.52798  0.89739  0.78053  1.0000
  S   S373      1.0  0.54837  0.90760  0.81396  1.0000
  Fe  Fe189     1.0  0.51439  0.65198  0.79765  1.0000
  S   S374      1.0  0.55706  0.66452  0.79087  1.0000
  S   S375      1.0  0.48787  0.60658  0.79682  1.0000
  Fe  Fe190     1.0  0.52154  0.71014  0.80075  1.0000
  S   S376      1.0  0.56318  0.72522  0.79366  1.0000
  S   S377      1.0  0.50257  0.73901  0.80609  1.0000
  Fe  Fe191     1.0  0.54783  0.69229  0.77690  1.0000
  S   S378      1.0  0.55985  0.70745  0.75504  1.0000
  Fe  Fe192     1.0  0.56906  0.69686  0.80847  1.0000
  S   S379      1.0  0.60901  0.72020  0.82136  1.0000
  S   S380      1.0  0.50535  0.67890  0.78305  1.0000
  S   S381      1.0  0.52717  0.68236  0.81609  1.0000
  C   C2697     1.0  0.73132  0.75160  0.97623  1.0000
  H   H2159     1.0  0.48950  0.78484  0.80370  1.0000
  H   H2160     1.0  0.93190  0.77667  0.97263  1.0000
  C   C2698     1.0  0.57757  0.75405  0.85304  1.0000
  C   C2699     1.0  0.50839  0.94747  0.83177  1.0000
  H   H2161     1.0  0.61329  0.80614  0.73322  1.0000
  C   C2700     1.0  0.51002  0.76257  0.73860  1.0000
  C   C2701     1.0  0.55387  0.82689  0.79831  1.0000
  C   C2702     1.0  0.52644  0.81844  0.80000  1.0000
  C   C2703     1.0  0.51082  0.79157  0.80280  1.0000
  C   C2704     1.0  0.52267  0.77326  0.80408  1.0000
  C   C2705     1.0  0.55030  0.78233  0.80325  1.0000
  C   C2706     1.0  0.56575  0.80884  0.80011  1.0000
  H   H2162     1.0  0.51725  0.83244  0.79890  1.0000
  H   H2163     1.0  0.66464  0.68306  0.85354  1.0000
  H   H2164     1.0  0.55994  0.76909  0.80516  1.0000
  H   H2165     1.0  0.58706  0.81543  0.79917  1.0000
  C   C2707     1.0  0.72659  0.76535  0.96500  1.0000
  C   C2708     1.0  0.71789  0.78562  0.96791  1.0000
  H   H2166     1.0  0.59721  0.75666  0.85708  1.0000
  H   H2167     1.0  0.67485  0.70228  0.80330  1.0000
  S   S382      1.0  0.96621  0.80793  0.91919  1.0000
  H   H2168     1.0  0.71390  0.79619  0.95941  1.0000
  H   H2169     1.0  0.70091  0.72446  0.84634  1.0000
  C   C2709     1.0  0.80857  0.97447  0.94311  1.0000
  C   C2710     1.0  0.73190  0.88885  0.91179  1.0000
  C   C2711     1.0  0.71960  0.90686  0.91191  1.0000
  C   C2712     1.0  0.73458  0.93430  0.91037  1.0000
  C   C2713     1.0  0.76211  0.94408  0.90879  1.0000
  C   C2714     1.0  0.77446  0.92605  0.90862  1.0000
  C   C2715     1.0  0.75941  0.89849  0.91007  1.0000
  H   H2170     1.0  0.69829  0.89953  0.91309  1.0000
  H   H2171     1.0  0.72474  0.94780  0.91036  1.0000
  H   H2172     1.0  0.79574  0.93342  0.90733  1.0000
  H   H2173     1.0  0.76905  0.88474  0.90989  1.0000
  C   C2716     1.0  0.65348  0.73430  0.86507  1.0000
  C   C2717     1.0  0.62851  0.71256  0.86241  1.0000
  C   C2718     1.0  0.61415  0.70850  0.84939  1.0000
  C   C2719     1.0  0.62477  0.72582  0.83860  1.0000
  C   C2720     1.0  0.64946  0.74793  0.84135  1.0000
  C   C2721     1.0  0.66358  0.75232  0.85449  1.0000
  H   H2174     1.0  0.62035  0.69850  0.87047  1.0000
  H   H2175     1.0  0.59518  0.69154  0.84763  1.0000
  H   H2176     1.0  0.65797  0.76157  0.83316  1.0000
  H   H2177     1.0  0.68272  0.76909  0.85626  1.0000
  C   C2722     1.0  0.65086  0.67483  0.81825  1.0000
  H   H2178     1.0  0.49690  0.91615  0.76341  1.0000
  C   C2723     1.0  0.62084  0.70356  0.77725  1.0000
  H   H2179     1.0  0.86892  0.83880  0.90520  1.0000
  H   H2180     1.0  0.58139  0.60257  0.79597  1.0000
  C   C2724     1.0  0.92551  0.83637  0.95893  1.0000
  H   H2181     1.0  0.53670  0.90193  0.74552  1.0000
  C   C2725     1.0  0.54225  0.91449  0.73666  1.0000
  H   H2182     1.0  0.89974  0.73922  0.86945  1.0000
  C   C2726     1.0  0.87547  0.78051  0.89746  1.0000
  C   C2727     1.0  0.84828  0.76420  0.89427  1.0000
  C   C2728     1.0  0.82855  0.77451  0.89524  1.0000
  C   C2729     1.0  0.83579  0.80148  0.89918  1.0000
  C   C2730     1.0  0.86300  0.81784  0.90230  1.0000
  C   C2731     1.0  0.88269  0.80742  0.90157  1.0000
  H   H2183     1.0  0.84240  0.74340  0.89104  1.0000
  C   C2732     1.0  0.72587  0.86378  0.87276  1.0000
  C   C2733     1.0  0.72417  0.84867  0.86045  1.0000
  C   C2734     1.0  0.71181  0.85285  0.84834  1.0000
  C   C2735     1.0  0.70173  0.87260  0.84845  1.0000
  C   C2736     1.0  0.70396  0.88834  0.86070  1.0000
  C   C2737     1.0  0.71565  0.88333  0.87292  1.0000
  P   P91       1.0  0.69286  0.91533  0.86103  1.0000
  C   C2738     1.0  0.67167  0.91379  0.84585  1.0000
  C   C2739     1.0  0.67498  0.91350  0.87672  1.0000
  C   C2740     1.0  0.67587  0.93694  0.88352  1.0000
  C   C2741     1.0  0.66194  0.93556  0.89564  1.0000
  C   C2742     1.0  0.64715  0.91077  0.90110  1.0000
  C   C2743     1.0  0.64608  0.88729  0.89435  1.0000
  C   C2744     1.0  0.65978  0.88859  0.88214  1.0000
  C   C2745     1.0  0.64561  0.91205  0.84732  1.0000
  C   C2746     1.0  0.63033  0.91324  0.83561  1.0000
  C   C2747     1.0  0.64072  0.91595  0.82237  1.0000
  C   C2748     1.0  0.66670  0.91800  0.82082  1.0000
  C   C2749     1.0  0.68224  0.91725  0.83252  1.0000
  C   C2750     1.0  0.72142  0.94728  0.86140  1.0000
  C   C2751     1.0  0.81084  0.78621  0.97676  1.0000
  C   C2752     1.0  0.85891  0.73085  0.95709  1.0000
  C   C2753     1.0  0.90182  0.58797  0.89054  1.0000
  C   C2754     1.0  0.92551  0.60185  0.89858  1.0000
  C   C2755     1.0  0.74533  0.95119  0.86882  1.0000
  H   H2184     1.0  0.73498  0.86031  0.88228  1.0000
  H   H2185     1.0  0.73203  0.83341  0.86039  1.0000
  H   H2186     1.0  0.71002  0.84075  0.83888  1.0000
  H   H2187     1.0  0.69220  0.87526  0.83896  1.0000
  H   H2188     1.0  0.71702  0.89465  0.88261  1.0000
  H   H2189     1.0  0.68728  0.95636  0.87950  1.0000
  H   H2190     1.0  0.66274  0.95387  0.90076  1.0000
  H   H2191     1.0  0.63659  0.90983  0.91057  1.0000
  H   H2192     1.0  0.63486  0.86808  0.89865  1.0000
  H   H2193     1.0  0.65872  0.87021  0.87704  1.0000
  H   H2194     1.0  0.63728  0.91067  0.85749  1.0000
  H   H2195     1.0  0.61066  0.91296  0.83677  1.0000
  H   H2196     1.0  0.62880  0.91715  0.81337  1.0000
  H   H2197     1.0  0.67495  0.92086  0.81058  1.0000
  H   H2198     1.0  0.70273  0.92002  0.83124  1.0000
  H   H2199     1.0  0.70107  0.96702  0.84940  1.0000
  H   H2200     1.0  0.52803  0.74064  0.76857  1.0000
  P   P92       1.0  0.60004  0.80884  0.84902  1.0000
  C   C2756     1.0  0.97422  0.67049  0.86584  1.0000
  H   H2201     1.0  0.74723  0.93554  0.87470  1.0000
  H   H2202     1.0  0.55987  0.89005  0.84945  1.0000
  C   C2757     1.0  0.48867  0.84030  0.75545  1.0000
  H   H2203     1.0  0.65477  0.82004  0.79854  1.0000
  H   H2204     1.0  0.51619  0.70406  0.84546  1.0000
  C   C2758     1.0  0.83425  0.72786  0.96210  1.0000
  C   C2759     1.0  0.64375  0.58493  0.80738  1.0000
  H   H2205     1.0  0.66349  0.80842  0.89719  1.0000
  H   H2206     1.0  0.61853  0.60045  0.81775  1.0000
  C   C2760     1.0  0.67541  0.82455  0.96343  1.0000
  C   C2761     1.0  0.64485  0.81793  0.80830  1.0000
  H   H2207     1.0  0.63133  0.70510  0.79906  1.0000
  C   C2762     1.0  0.56762  0.87472  0.84949  1.0000
  C   C2763     1.0  0.61040  0.66136  0.76452  1.0000
  C   C2764     1.0  0.61563  0.65058  0.77672  1.0000
  H   H2208     1.0  0.70611  0.73392  0.82120  1.0000
  H   H2209     1.0  0.60368  0.64906  0.75491  1.0000
  H   H2210     1.0  0.61262  0.62978  0.77641  1.0000
  C   C2765     1.0  0.77387  0.86563  0.96907  1.0000
  C   C2766     1.0  0.89986  0.83339  0.95453  1.0000
  C   C2767     1.0  0.87805  0.82048  0.96284  1.0000
  H   H2211     1.0  0.58517  0.89949  0.75298  1.0000
  P   P93       1.0  0.84492  0.81613  0.95680  1.0000
  C   C2768     1.0  0.83057  0.78712  0.94484  1.0000
  H   H2212     1.0  0.94809  0.67673  0.85022  1.0000
  H   H2213     1.0  0.93112  0.59217  0.90701  1.0000
  C   C2769     1.0  0.81142  0.96802  0.95697  1.0000
  C   C2770     1.0  0.83640  0.98078  0.96418  1.0000
  C   C2771     1.0  0.55545  0.94227  0.73891  1.0000
  H   H2214     1.0  0.52063  0.96412  0.76990  1.0000
  C   C2772     1.0  0.84698  0.77793  0.93729  1.0000
  C   C2773     1.0  0.83563  0.75581  0.92783  1.0000
  C   C2774     1.0  0.80790  0.74299  0.92567  1.0000
  C   C2775     1.0  0.79147  0.75217  0.93305  1.0000
  C   C2776     1.0  0.80273  0.77420  0.94256  1.0000
  C   C2777     1.0  0.84752  0.84557  0.94783  1.0000
  C   C2778     1.0  0.83348  0.84320  0.93499  1.0000
  C   C2779     1.0  0.83632  0.86602  0.92789  1.0000
  C   C2780     1.0  0.85296  0.89140  0.93358  1.0000
  C   C2781     1.0  0.86701  0.89399  0.94635  1.0000
  C   C2782     1.0  0.86446  0.87117  0.95341  1.0000
  C   C2783     1.0  0.63440  0.98069  0.83919  1.0000
  H   H2215     1.0  0.89700  0.84078  0.94452  1.0000
  C   C2784     1.0  0.62121  0.96997  0.85128  1.0000
  C   C2785     1.0  0.71959  0.96892  0.85463  1.0000
  C   C2786     1.0  0.58567  0.64830  0.82198  1.0000
  C   C2787     1.0  0.61183  0.92466  0.73830  1.0000
  H   H2216     1.0  0.54715  0.65196  0.74536  1.0000
  H   H2217     1.0  0.86850  0.78787  0.93846  1.0000
  H   H2218     1.0  0.84842  0.74905  0.92190  1.0000
  H   H2219     1.0  0.79918  0.72635  0.91804  1.0000
  H   H2220     1.0  0.76996  0.74253  0.93124  1.0000
  H   H2221     1.0  0.78964  0.78141  0.94791  1.0000
  H   H2222     1.0  0.82062  0.82381  0.93023  1.0000
  H   H2223     1.0  0.82572  0.86387  0.91786  1.0000
  H   H2224     1.0  0.54318  0.78749  0.83856  1.0000
  C   C2788     1.0  0.93560  0.73309  0.86636  1.0000
  H   H2225     1.0  0.87580  0.87343  0.96319  1.0000
  C   C2789     1.0  0.63282  0.60368  0.80971  1.0000
  H   H2226     1.0  0.63764  0.56728  0.81348  1.0000
  C   C2790     1.0  0.93485  0.64088  0.88482  1.0000
  C   C2791     1.0  0.82415  0.81179  0.97164  1.0000
  H   H2227     1.0  0.49143  0.61501  0.76739  1.0000
  C   C2792     1.0  0.89481  0.60031  0.87952  1.0000
  P   P94       1.0  0.78333  0.94351  0.96531  1.0000
  C   C2793     1.0  0.50234  0.96714  0.82552  1.0000
  C   C2794     1.0  0.78319  0.91073  0.96193  1.0000
  C   C2795     1.0  0.78767  0.90326  0.94842  1.0000
  C   C2796     1.0  0.78545  0.87729  0.94533  1.0000
  C   C2797     1.0  0.77862  0.85849  0.95564  1.0000
  C   C2798     1.0  0.59260  0.90057  0.74255  1.0000
  H   H2228     1.0  0.76760  0.85070  0.97689  1.0000
  C   C2799     1.0  0.96146  0.77424  0.95907  1.0000
  C   C2800     1.0  0.76725  0.97592  0.86900  1.0000
  H   H2229     1.0  0.72502  0.88100  0.97787  1.0000
  H   H2230     1.0  0.94940  0.82841  0.97489  1.0000
  C   C2801     1.0  0.75299  0.94359  0.95730  1.0000
  C   C2802     1.0  0.75083  0.96796  0.95538  1.0000
  C   C2803     1.0  0.72798  0.96835  0.94869  1.0000
  C   C2804     1.0  0.70716  0.94445  0.94379  1.0000
  C   C2805     1.0  0.70914  0.92009  0.94561  1.0000
  C   C2806     1.0  0.73197  0.91963  0.95229  1.0000
  C   C2807     1.0  0.67214  0.69793  0.81421  1.0000
  H   H2231     1.0  0.58361  0.88431  0.87074  1.0000
  C   C2808     1.0  0.96896  0.69176  0.90867  1.0000
  C   C2809     1.0  0.92957  0.82641  0.97161  1.0000
  H   H2232     1.0  0.79201  0.91715  0.94011  1.0000
  H   H2233     1.0  0.78833  0.87159  0.93478  1.0000
  H   H2234     1.0  0.77641  0.83818  0.95314  1.0000
  C   C2810     1.0  0.47654  0.85560  0.74924  1.0000
  H   H2235     1.0  0.49492  0.82302  0.77440  1.0000
  H   H2236     1.0  0.56604  0.79685  0.73669  1.0000
  C   C2811     1.0  0.66686  0.68700  0.84252  1.0000
  H   H2237     1.0  0.47988  0.86007  0.73838  1.0000
  C   C2812     1.0  0.65838  0.81798  0.97456  1.0000
  H   H2238     1.0  0.49263  0.92789  0.83314  1.0000
  H   H2239     1.0  0.68975  0.94491  0.93833  1.0000
  H   H2240     1.0  0.69331  0.90158  0.94147  1.0000
  H   H2241     1.0  0.73329  0.90059  0.95312  1.0000
  C   C2813     1.0  0.69947  0.84726  0.96466  1.0000
  C   C2814     1.0  0.55716  0.72828  0.85206  1.0000
  H   H2242     1.0  0.87933  0.69957  0.88356  1.0000
  C   C2815     1.0  0.54919  0.60078  0.80864  1.0000
  H   H2243     1.0  0.55286  0.64696  0.83416  1.0000
  C   C2816     1.0  0.63500  0.97707  0.86456  1.0000
  C   C2817     1.0  0.61813  0.81228  0.83328  1.0000
  C   C2818     1.0  0.77623  0.89166  0.97225  1.0000
  C   C2819     1.0  0.52711  0.74563  0.84169  1.0000
  H   H2244     1.0  0.50134  0.83350  0.74945  1.0000
  C   C2820     1.0  0.68737  0.71040  0.83846  1.0000
  H   H2245     1.0  0.94218  0.84600  0.95238  1.0000
  H   H2246     1.0  0.67015  0.81183  0.95392  1.0000
  C   C2821     1.0  0.61300  0.68783  0.76480  1.0000
  C   C2822     1.0  0.62383  0.66636  0.78927  1.0000
  C   C2823     1.0  0.61019  0.80747  0.87759  1.0000
  C   C2824     1.0  0.62096  0.81065  0.86432  1.0000
  C   C2825     1.0  0.62619  0.69287  0.78944  1.0000
  H   H2247     1.0  0.65825  0.86039  0.81258  1.0000
  P   P95       1.0  0.62765  0.65145  0.80529  1.0000
  C   C2826     1.0  0.93742  0.69375  0.87651  1.0000
  H   H2248     1.0  0.81830  0.72703  0.95487  1.0000
  H   H2249     1.0  0.60825  0.69598  0.75544  1.0000
  H   H2250     1.0  0.60025  0.95669  0.85047  1.0000
  C   C2827     1.0  0.54107  0.61316  0.81942  1.0000
  H   H2251     1.0  0.55514  0.86148  0.82795  1.0000
  C   C2828     1.0  0.87965  0.73254  0.96642  1.0000
  H   H2252     1.0  0.88902  0.56757  0.89278  1.0000
  H   H2253     1.0  0.57298  0.82705  0.82786  1.0000
  C   C2829     1.0  0.48730  0.92939  0.76115  1.0000
  C   C2830     1.0  0.59103  0.85168  0.86148  1.0000
  C   C2831     1.0  0.64887  0.66910  0.83246  1.0000
  H   H2254     1.0  0.94833  0.67922  0.91051  1.0000
  C   C2832     1.0  0.56492  0.85869  0.83740  1.0000
  C   C2833     1.0  0.58238  0.87817  0.73323  1.0000
  C   C2834     1.0  0.64052  0.62651  0.80179  1.0000
  C   C2835     1.0  0.49854  0.75715  0.76701  1.0000
  H   H2255     1.0  0.62189  0.72377  0.77757  1.0000
  H   H2256     1.0  0.78977  0.96462  0.93710  1.0000
  C   C2836     1.0  0.58094  0.87142  0.86148  1.0000
  C   C2837     1.0  0.55932  0.63692  0.82608  1.0000
  H   H2257     1.0  0.63523  0.85562  0.83467  1.0000
  C   C2838     1.0  0.59416  0.63582  0.81133  1.0000
  H   H2258     1.0  0.83123  0.85361  0.97464  1.0000
  C   C2839     1.0  0.66016  0.63094  0.79198  1.0000
  H   H2259     1.0  0.63323  0.65099  0.83583  1.0000
  C   C2840     1.0  0.57562  0.61205  0.80458  1.0000
  H   H2260     1.0  0.97325  0.67181  0.83023  1.0000
  C   C2841     1.0  0.66277  0.58910  0.79732  1.0000
  C   C2842     1.0  0.82141  0.83370  0.97834  1.0000
  C   C2843     1.0  0.55444  0.69092  0.73820  1.0000
  H   H2261     1.0  0.67132  0.57462  0.79557  1.0000
  C   C2844     1.0  0.58759  0.83486  0.84950  1.0000
  H   H2262     1.0  0.90590  0.63580  0.86788  1.0000
  H   H2263     1.0  0.71273  0.85205  0.95604  1.0000
  H   H2264     1.0  0.90333  0.67088  0.88846  1.0000
  H   H2265     1.0  0.86209  0.73209  0.94598  1.0000
  H   H2266     1.0  0.53465  0.58290  0.80316  1.0000
  C   C2845     1.0  0.48009  0.61782  0.75859  1.0000
  H   H2267     1.0  0.68611  0.61560  0.78202  1.0000
  H   H2268     1.0  0.53803  0.74498  0.74374  1.0000
  H   H2269     1.0  0.66716  0.64898  0.78617  1.0000
  C   C2846     1.0  0.83016  0.72596  0.97643  1.0000
  C   C2847     1.0  0.67105  0.61215  0.78967  1.0000
  C   C2848     1.0  0.63371  0.83785  0.82873  1.0000
  C   C2849     1.0  0.91136  0.62661  0.87659  1.0000
  C   C2850     1.0  0.49101  0.77090  0.74409  1.0000
  H   H2270     1.0  0.62780  0.77470  0.80674  1.0000
  H   H2271     1.0  0.60163  0.84996  0.87080  1.0000
  H   H2272     1.0  0.50771  0.74225  0.83696  1.0000
  H   H2273     1.0  0.81254  0.76901  0.97177  1.0000
  H   H2274     1.0  0.59917  0.66718  0.82689  1.0000
  C   C2851     1.0  0.52331  0.75165  0.74759  1.0000
  C   C2852     1.0  0.91012  0.72638  0.87129  1.0000
  H   H2275     1.0  0.52041  0.60477  0.82228  1.0000
  H   H2276     1.0  0.85511  0.90898  0.92798  1.0000
  H   H2277     1.0  0.58967  0.80475  0.87875  1.0000
  C   C2853     1.0  0.89855  0.70386  0.87920  1.0000
  H   H2278     1.0  0.94506  0.75119  0.86076  1.0000
  C   C2854     1.0  0.48527  0.76810  0.75822  1.0000
  C   C2855     1.0  0.94210  0.62816  0.89567  1.0000
  C   C2856     1.0  0.64689  0.84063  0.81624  1.0000
  C   C2857     1.0  0.55521  0.97765  0.83358  1.0000
  C   C2858     1.0  0.51761  0.74902  0.76172  1.0000
  C   C2859     1.0  0.94929  0.71700  0.86911  1.0000
  H   H2279     1.0  0.53955  0.93724  0.84032  1.0000
  H   H2280     1.0  0.56711  0.85966  0.73648  1.0000
  H   H2281     1.0  0.88015  0.91366  0.95067  1.0000
  C   C2860     1.0  0.53481  0.95272  0.83579  1.0000
  H   H2282     1.0  0.83943  0.97596  0.97473  1.0000
  C   C2861     1.0  0.91221  0.68767  0.88192  1.0000
  C   C2862     1.0  0.95074  0.77493  0.97216  1.0000
  P   P96       1.0  0.95638  0.67447  0.88067  1.0000
  C   C2863     1.0  0.62564  0.80720  0.88943  1.0000
  C   C2864     1.0  0.57283  0.77596  0.84848  1.0000
  H   H2283     1.0  0.61730  0.80477  0.89965  1.0000
  H   H2284     1.0  0.89883  0.73510  0.96251  1.0000
  H   H2285     1.0  0.87663  0.58945  0.87317  1.0000
  C   C2865     1.0  0.65162  0.80914  0.88806  1.0000
  C   C2866     1.0  0.62964  0.79244  0.81287  1.0000
  C   C2867     1.0  0.66208  0.81118  0.87485  1.0000
  C   C2868     1.0  0.54746  0.77144  0.84262  1.0000
  H   H2286     1.0  0.68169  0.81126  0.87382  1.0000
  H   H2287     1.0  0.48047  0.77947  0.73757  1.0000
  C   C2869     1.0  0.53191  0.72408  0.84642  1.0000
  C   C2870     1.0  0.88219  0.80989  0.97542  1.0000
  C   C2871     1.0  0.54856  0.66364  0.73630  1.0000
  H   H2288     1.0  0.95091  0.77561  0.94960  1.0000
  C   C2872     1.0  0.61629  0.78961  0.82529  1.0000
  S   S383      1.0  0.96373  0.75357  0.90223  1.0000
  H   H2289     1.0  0.61915  0.94217  0.74546  1.0000
  H   H2290     1.0  0.65532  0.81315  0.85286  1.0000
  H   H2291     1.0  0.73785  0.73575  0.97410  1.0000
  H   H2292     1.0  0.60432  0.76966  0.82847  1.0000
  C   C2873     1.0  0.64697  0.81216  0.86301  1.0000
  H   H2293     1.0  0.96940  0.72292  0.86575  1.0000
  C   C2874     1.0  0.50091  0.95669  0.76478  1.0000
  H   H2294     1.0  0.56112  0.71151  0.85544  1.0000
  H   H2295     1.0  0.50569  0.61261  0.74331  1.0000
  H   H2296     1.0  0.70025  0.95335  0.97724  1.0000
  C   C2875     1.0  0.48818  0.61655  0.74502  1.0000
  H   H2297     1.0  0.62435  0.96911  0.87382  1.0000
  H   H2298     1.0  0.49409  0.75500  0.77794  1.0000
  C   C2876     1.0  0.96547  0.67249  0.85216  1.0000
  C   C2877     1.0  0.48910  0.97435  0.76185  1.0000
  H   H2299     1.0  0.78542  0.97890  0.87500  1.0000
  H   H2300     1.0  0.48189  0.96264  0.82204  1.0000
  C   C2878     1.0  0.48498  0.83429  0.76950  1.0000
  H   H2301     1.0  0.63991  0.80010  0.97366  1.0000
  S   S384      1.0  0.61772  0.97427  0.82215  1.0000
  C   C2879     1.0  0.70650  0.86340  0.97703  1.0000
  H   H2302     1.0  0.57562  0.98093  0.83627  1.0000
  H   H2303     1.0  0.69818  0.90802  0.97959  1.0000
  C   C2880     1.0  0.90791  0.81299  0.97980  1.0000
  H   H2304     1.0  0.48647  0.91057  0.73023  1.0000
