data_image0
_chemical_formula_structural       CHFeHSFeHCHS2HC2SHCH3CH2C3H2C7HCHCH3C2HCHPC3FeC2HC3HC3SH2C2H3FeSCHSC3HC2HC4HCHC2H3CH2CFeCH2C2HCPCH2SFeS2FeS2Fe2S4FeS2H2CHC6H5C4HC7PC8HC7H6CH3C2H4CHSCHC3H4CH3C3H4CHCHCH3C4H3CHC4H2CH4PC3SH3C2HC6H2CHCH2CHC2H2C2HC5H3CHCH2C2H2C3H2CHFeC3H3C2FeH2C3HCHCHC3HC3HCPSC2HCH2C2PH2CHC3HCH2CHCH2CHC3SPCHC7H3C2H2C4H2FeS2FeSHFeCFeS3FeCSFeSFeS2HFeS3FeSFeHSC3H3C3HC2HC8H4C2H3CHC6HC4H2C6H2CH3C3H4CH3SH3SH2C2HC2HCHC2HPCH2CH2FeCHCH3C3HC2HCHC2HCHC2HC2HCHC3H6C2HCHCHCH2SHCHCFeHCHCH2C2PCH2CHC2H2CH2C2HCH2C3HC4SC2HC5H2C2H2CHCHC3PC2HC2H3C2H4CHCH2CSCH2CHCSC4H2FeS2HCH4FeS2FeSHFeSFeS3C2SC6H4CHCH2C5HC2HC3HCH3C3HCHCHCH5C2SHCHCH5C2HC5HCHCH2C2PCHCH2C7PC18H5SH2CH11C2HC5HPHC4HC2HCHC3HC2SH2CHCFeH2C4SCPCSC3HCSCH3C2H3SHC2HSCHC7H5C5HCH2PC2H2SC3HC2H3C3HCHCH4C3HC6HPC3H2C9H2CH2C2H2CH9C3FeC2HC2H2CFeH3CHC2H2C5PHCH3C2SCHC2HCSC2S2HS2FeSHSH7C2HFeCHC7H3CH3C6PC18H18C8HCFe2CSC4HC3PC7HFeSC4H2CSH2FeCH5C3H4SHC3H3C2HC2HC2HCHPCH3SCH2C3H2CH2CHCHC3H2FeS2FeS2FeCFeS3CHCFeSCFeS2CHC3HC7H4C5HCH2C3HCHC2HCH3C3HCHCHC5HPHCH2CHC11SH2SCH4CH6C5H4C3H2CHCHCHC2H2CHC2SCHCPC2HC2H6CH4CHC6HC3H2FePH2C3HCHCSH4C2H2SCHC2H2C2SH6SC2HCFeS2H3CHSH2FeSHFeS2FeSFeS3FeCSH2C6H4C2HC6H5C4HCH2CHC3SC2HCHCH3C2H2C2H2C3HCHCHCH3C2HC6PC3HC11HFeCH7CH9C4HCH3C2HC9PC9H2CH2CH2C6PC3HC2H6C5PHCH4CSHCH5CFeCSH2SCH2CHC2PH2FeSC2H3CHC2S2FeS2FeS2FeHFeS3C3H2C4H3C6H4CSCHC2H3C4H2C3HC5HPC2HC6H2C10HC2H7CH7C3HC2PC2H4C3H4FeHSHC4H3C3H2CH2C5HC2SHCH3C3H4CH3C2HPH2C3SCH2C2H2C5H2C2HCHC2FeH3C4HC2H3C3H2CH2C3H2CHC2SHSFeC2H2CHC2HCHC2HCH2CH3C2PHC3SH2C2HSC2FeS2CH2C2SCHCH2CHC3H3CFeCHC2HFeH2CH3CHC3
_chemical_formula_sum              "C960 H768 Fe64 S128 P32"
_cell_length_a       53.6638
_cell_length_b       53.6294
_cell_length_c       37.5731
_cell_angle_alpha    87.8801
_cell_angle_beta     88.4311
_cell_angle_gamma    118.821

_space_group_name_H-M_alt    "P 1"
_space_group_IT_number       1

loop_
  _space_group_symop_operation_xyz
  'x, y, z'

loop_
  _atom_site_type_symbol
  _atom_site_label
  _atom_site_symmetry_multiplicity
  _atom_site_fract_x
  _atom_site_fract_y
  _atom_site_fract_z
  _atom_site_occupancy
  C   C1        1.0  0.49110  0.99835  0.35353  1.0000
  H   H1        1.0  0.39313  0.02062  0.42264  1.0000
  Fe  Fe1       1.0  0.45652  0.08545  0.39910  1.0000
  H   H2        1.0  0.44588  0.00920  0.19787  1.0000
  S   S1        1.0  0.44335  0.04299  0.37253  1.0000
  Fe  Fe2       1.0  0.44874  0.13531  0.42633  1.0000
  H   H3        1.0  0.38214  0.17350  0.45784  1.0000
  C   C2        1.0  0.41604  0.00779  0.38645  1.0000
  H   H4        1.0  0.46813  0.19534  0.48009  1.0000
  S   S2        1.0  0.46347  0.12751  0.37284  1.0000
  S   S3        1.0  0.43768  0.09162  0.45021  1.0000
  H   H5        1.0  0.48452  0.22035  0.41617  1.0000
  C   C3        1.0  0.48268  0.18638  0.25339  1.0000
  C   C4        1.0  0.33584  0.27293  0.43226  1.0000
  S   S4        1.0  0.42236  0.15785  0.43275  1.0000
  H   H6        1.0  0.31316  0.26197  0.42839  1.0000
  C   C5        1.0  0.34718  0.29481  0.45594  1.0000
  H   H7        1.0  0.46896  0.16492  0.30600  1.0000
  H   H8        1.0  0.47010  0.12162  0.28895  1.0000
  H   H9        1.0  0.42238  0.17723  0.29097  1.0000
  C   C6        1.0  0.39378  0.00279  0.41096  1.0000
  H   H10       1.0  0.45419  0.27343  0.47177  1.0000
  H   H11       1.0  0.41559  0.22821  0.18184  1.0000
  C   C7        1.0  0.48255  0.22099  0.31274  1.0000
  C   C8        1.0  0.48956  0.18349  0.21799  1.0000
  C   C9        1.0  0.37652  0.30902  0.46123  1.0000
  H   H12       1.0  0.33300  0.30029  0.47064  1.0000
  H   H13       1.0  0.44562  0.22386  0.38660  1.0000
  C   C10       1.0  0.44611  0.21049  0.24976  1.0000
  C   C11       1.0  0.44393  0.22419  0.21834  1.0000
  C   C12       1.0  0.41716  0.21754  0.20607  1.0000
  C   C13       1.0  0.39243  0.19681  0.22466  1.0000
  C   C14       1.0  0.39445  0.18247  0.25532  1.0000
  C   C15       1.0  0.42117  0.18905  0.26762  1.0000
  C   C16       1.0  0.48906  0.04219  0.48527  1.0000
  H   H14       1.0  0.39638  0.27131  0.40699  1.0000
  C   C17       1.0  0.40113  0.18548  0.47231  1.0000
  H   H15       1.0  0.46277  0.23958  0.20283  1.0000
  C   C18       1.0  0.46248  0.22341  0.37053  1.0000
  H   H16       1.0  0.41655  0.30971  0.44877  1.0000
  H   H17       1.0  0.44448  0.22505  0.32095  1.0000
  H   H18       1.0  0.37170  0.19155  0.21501  1.0000
  C   C19       1.0  0.48326  0.13656  0.23407  1.0000
  C   C20       1.0  0.47523  0.16369  0.27877  1.0000
  H   H19       1.0  0.37531  0.16600  0.26940  1.0000
  C   C21       1.0  0.44948  0.19776  0.48489  1.0000
  H   H20       1.0  0.34474  0.24742  0.39642  1.0000
  P   P1        1.0  0.48039  0.21760  0.26510  1.0000
  C   C22       1.0  0.38274  0.27826  0.42012  1.0000
  C   C23       1.0  0.49018  0.15882  0.20850  1.0000
  C   C24       1.0  0.46169  0.22356  0.33330  1.0000
  Fe  Fe3       1.0  0.48276  0.11361  0.46660  1.0000
  C   C25       1.0  0.35362  0.26470  0.41429  1.0000
  C   C26       1.0  0.47552  0.29009  0.46358  1.0000
  H   H21       1.0  0.46704  0.03169  0.43643  1.0000
  C   C27       1.0  0.42492  0.18180  0.46590  1.0000
  C   C28       1.0  0.44272  0.00130  0.47970  1.0000
  C   C29       1.0  0.46646  0.02548  0.46435  1.0000
  H   H22       1.0  0.48389  0.11751  0.22678  1.0000
  C   C30       1.0  0.47559  0.13892  0.26911  1.0000
  C   C31       1.0  0.39416  0.30023  0.44365  1.0000
  C   C32       1.0  0.48211  0.31869  0.46327  1.0000
  S   S5        1.0  0.49206  0.15705  0.44692  1.0000
  H   H23       1.0  0.48516  0.01455  0.34652  1.0000
  H   H24       1.0  0.48640  0.00167  0.40969  1.0000
  C   C33       1.0  0.40119  0.20387  0.49789  1.0000
  C   C34       1.0  0.48442  0.22147  0.38732  1.0000
  H   H25       1.0  0.48851  0.27531  0.25242  1.0000
  H   H26       1.0  0.46597  0.32425  0.47134  1.0000
  H   H27       1.0  0.49112  0.26069  0.45487  1.0000
  Fe  Fe4       1.0  0.45529  0.27780  0.58046  1.0000
  S   S6        1.0  0.42245  0.24151  0.54989  1.0000
  C   C35       1.0  0.42531  0.21970  0.51716  1.0000
  H   H28       1.0  0.46857  0.22915  0.52485  1.0000
  S   S7        1.0  0.44598  0.29215  0.63294  1.0000
  C   C36       1.0  0.46976  0.15403  0.56033  1.0000
  C   C37       1.0  0.35683  0.31272  0.55753  1.0000
  C   C38       1.0  0.46389  0.01090  0.53750  1.0000
  H   H29       1.0  0.46269  0.13768  0.54106  1.0000
  C   C39       1.0  0.45389  0.03113  0.60503  1.0000
  C   C40       1.0  0.46401  0.19015  0.59055  1.0000
  H   H30       1.0  0.40958  0.29858  0.52968  1.0000
  C   C41       1.0  0.45529  0.03402  0.64205  1.0000
  C   C42       1.0  0.44977  0.21698  0.51021  1.0000
  C   C43       1.0  0.44501  0.07326  0.63609  1.0000
  C   C44       1.0  0.45059  0.05484  0.65753  1.0000
  H   H31       1.0  0.45238  0.20178  0.59467  1.0000
  C   C45       1.0  0.34766  0.29531  0.58902  1.0000
  H   H32       1.0  0.44698  0.04821  0.55510  1.0000
  C   C46       1.0  0.36101  0.27953  0.59922  1.0000
  C   C47       1.0  0.38332  0.28089  0.57774  1.0000
  H   H33       1.0  0.39332  0.26823  0.58531  1.0000
  H   H34       1.0  0.33026  0.29417  0.60559  1.0000
  H   H35       1.0  0.43509  0.16292  0.55273  1.0000
  C   C48       1.0  0.44387  0.07071  0.59924  1.0000
  H   H36       1.0  0.43996  0.08521  0.58240  1.0000
  H   H37       1.0  0.35399  0.26610  0.62366  1.0000
  C   C49       1.0  0.45430  0.16833  0.56676  1.0000
  Fe  Fe5       1.0  0.48988  0.29978  0.64671  1.0000
  C   C50       1.0  0.44803  0.04961  0.58375  1.0000
  H   H38       1.0  0.44164  0.08959  0.64796  1.0000
  H   H39       1.0  0.45155  0.05686  0.68612  1.0000
  C   C51       1.0  0.39258  0.29828  0.54627  1.0000
  C   C52       1.0  0.48897  0.19739  0.60834  1.0000
  H   H40       1.0  0.45994  0.02009  0.65890  1.0000
  C   C53       1.0  0.37982  0.31484  0.53630  1.0000
  P   P2        1.0  0.46044  0.00435  0.58547  1.0000
  C   C54       1.0  0.48780  0.03500  0.52166  1.0000
  H   H41       1.0  0.34583  0.32438  0.55001  1.0000
  H   H42       1.0  0.38220  0.20571  0.50290  1.0000
  S   S8        1.0  0.47458  0.32173  0.55409  1.0000
  Fe  Fe6       1.0  0.17899  0.48869  0.36214  1.0000
  S   S9        1.0  0.14977  0.44569  0.39018  1.0000
  S   S10       1.0  0.21498  0.49990  0.32094  1.0000
  Fe  Fe7       1.0  0.15681  0.51925  0.40770  1.0000
  S   S11       1.0  0.12665  0.47988  0.44062  1.0000
  S   S12       1.0  0.16082  0.56241  0.41317  1.0000
  Fe  Fe8       1.0  0.16308  0.47000  0.44037  1.0000
  Fe  Fe9       1.0  0.11509  0.45866  0.38879  1.0000
  S   S13       1.0  0.06932  0.44014  0.36996  1.0000
  S   S14       1.0  0.19393  0.51161  0.41222  1.0000
  S   S15       1.0  0.14377  0.49927  0.35594  1.0000
  S   S16       1.0  0.41907  0.58745  0.41768  1.0000
  Fe  Fe10      1.0  0.29672  0.63712  0.19513  1.0000
  S   S17       1.0  0.32295  0.62462  0.15986  1.0000
  S   S18       1.0  0.25148  0.60952  0.21744  1.0000
  H   H43       1.0  0.33647  0.60875  0.45358  1.0000
  H   H44       1.0  0.42839  0.36581  0.43188  1.0000
  C   C55       1.0  0.15593  0.56473  0.45875  1.0000
  H   H45       1.0  0.13965  0.43162  0.30177  1.0000
  C   C56       1.0  0.22651  0.53164  0.29410  1.0000
  C   C57       1.0  0.21102  0.54638  0.29438  1.0000
  C   C58       1.0  0.21952  0.57064  0.27143  1.0000
  C   C59       1.0  0.24377  0.58077  0.24837  1.0000
  C   C60       1.0  0.25995  0.56666  0.24887  1.0000
  C   C61       1.0  0.25114  0.54197  0.27147  1.0000
  H   H46       1.0  0.19209  0.53875  0.31161  1.0000
  H   H47       1.0  0.20705  0.58149  0.27116  1.0000
  H   H48       1.0  0.27860  0.57417  0.23097  1.0000
  H   H49       1.0  0.26313  0.53056  0.27096  1.0000
  H   H50       1.0  0.18155  0.46539  0.26312  1.0000
  C   C62       1.0  0.13698  0.49234  0.24480  1.0000
  C   C63       1.0  0.02899  0.39469  0.41487  1.0000
  C   C64       1.0  0.03422  0.41400  0.38584  1.0000
  C   C65       1.0  0.08807  0.53634  0.42314  1.0000
  H   H51       1.0  0.04667  0.39579  0.42922  1.0000
  C   C66       1.0  0.35568  0.62671  0.44215  1.0000
  C   C67       1.0  0.36000  0.59684  0.34934  1.0000
  C   C68       1.0  0.34800  0.59574  0.31651  1.0000
  C   C69       1.0  0.32524  0.57026  0.30665  1.0000
  C   C70       1.0  0.31436  0.54579  0.32961  1.0000
  C   C71       1.0  0.32656  0.54665  0.36251  1.0000
  C   C72       1.0  0.34910  0.57249  0.37244  1.0000
  P   P3        1.0  0.31240  0.51566  0.39322  1.0000
  C   C73       1.0  0.29966  0.52529  0.43268  1.0000
  C   C74       1.0  0.28381  0.48581  0.37321  1.0000
  C   C75       1.0  0.25519  0.47831  0.38060  1.0000
  C   C76       1.0  0.23349  0.45516  0.36467  1.0000
  C   C77       1.0  0.24014  0.43957  0.34091  1.0000
  C   C78       1.0  0.26857  0.44704  0.33312  1.0000
  C   C79       1.0  0.29034  0.47009  0.34914  1.0000
  C   C80       1.0  0.30656  0.52002  0.46695  1.0000
  H   H52       1.0  0.37324  0.54104  0.45936  1.0000
  C   C81       1.0  0.28283  0.53866  0.42911  1.0000
  C   C82       1.0  0.33841  0.50456  0.40385  1.0000
  C   C83       1.0  0.36720  0.52093  0.39247  1.0000
  C   C84       1.0  0.38708  0.51261  0.40297  1.0000
  C   C85       1.0  0.37829  0.48771  0.42450  1.0000
  C   C86       1.0  0.34951  0.47081  0.43494  1.0000
  C   C87       1.0  0.32964  0.47899  0.42425  1.0000
  H   H53       1.0  0.37801  0.61644  0.35679  1.0000
  H   H54       1.0  0.35650  0.61449  0.29836  1.0000
  H   H55       1.0  0.31609  0.56959  0.28106  1.0000
  H   H56       1.0  0.29637  0.52643  0.32158  1.0000
  H   H57       1.0  0.35858  0.57366  0.39785  1.0000
  H   H58       1.0  0.24932  0.49011  0.39850  1.0000
  C   C88       1.0  0.15919  0.52974  0.17888  1.0000
  H   H59       1.0  0.22321  0.42188  0.32835  1.0000
  H   H60       1.0  0.27372  0.43503  0.31455  1.0000
  H   H61       1.0  0.31227  0.47572  0.34265  1.0000
  C   C89       1.0  0.14944  0.58525  0.47123  1.0000
  C   C90       1.0  0.30200  0.61454  0.38428  1.0000
  H   H62       1.0  0.10142  0.54967  0.21032  1.0000
  H   H63       1.0  0.37470  0.54066  0.37673  1.0000
  H   H64       1.0  0.40948  0.52614  0.39553  1.0000
  H   H65       1.0  0.39381  0.48175  0.43349  1.0000
  C   C91       1.0  0.16727  0.52541  0.11592  1.0000
  H   H66       1.0  0.30747  0.46581  0.43296  1.0000
  S   S19       1.0  0.17622  0.45920  0.49344  1.0000
  C   C92       1.0  0.41482  0.57728  0.46328  1.0000
  H   H67       1.0  0.22324  0.58609  0.41693  1.0000
  C   C93       1.0  0.08862  0.52770  0.20378  1.0000
  C   C94       1.0  0.14202  0.54764  0.28234  1.0000
  C   C95       1.0  0.06675  0.48780  0.44817  1.0000
  H   H68       1.0  0.08879  0.50172  0.39655  1.0000
  H   H69       1.0  0.09617  0.43676  0.30457  1.0000
  H   H70       1.0  0.09451  0.47561  0.26963  1.0000
  H   H71       1.0  0.21301  0.45201  0.44131  1.0000
  C   C96       1.0  0.38754  0.55690  0.25482  1.0000
  H   H72       1.0  0.27720  0.54286  0.40296  1.0000
  H   H73       1.0  0.28485  0.58364  0.34407  1.0000
  H   H74       1.0  0.19708  0.55709  0.20590  1.0000
  C   C97       1.0  0.28006  0.59252  0.36709  1.0000
  C   C98       1.0  0.41176  0.64479  0.24786  1.0000
  C   C99       1.0  0.44393  0.64244  0.29094  1.0000
  H   H75       1.0  0.18036  0.62387  0.23682  1.0000
  H   H76       1.0  0.04163  0.44933  0.17921  1.0000
  H   H77       1.0  0.30430  0.62375  0.04376  1.0000
  H   H78       1.0  0.01452  0.42672  0.34500  1.0000
  C   C100      1.0  0.13876  0.44830  0.28559  1.0000
  H   H79       1.0  0.10055  0.55213  0.40195  1.0000
  C   C101      1.0  0.14674  0.55118  0.24510  1.0000
  H   H80       1.0  0.21147  0.44971  0.37025  1.0000
  C   C102      1.0  0.16926  0.60257  0.24952  1.0000
  H   H81       1.0  0.14774  0.60009  0.45260  1.0000
  H   H82       1.0  0.23486  0.56476  0.36601  1.0000
  H   H83       1.0  0.08539  0.56664  0.45687  1.0000
  C   C103      1.0  0.16504  0.59886  0.28661  1.0000
  C   C104      1.0  0.15133  0.57140  0.30305  1.0000
  C   C105      1.0  0.16000  0.57886  0.22880  1.0000
  C   C106      1.0  0.27218  0.54563  0.45929  1.0000
  H   H84       1.0  0.17287  0.61731  0.30255  1.0000
  H   H85       1.0  0.14838  0.56846  0.33190  1.0000
  H   H86       1.0  0.25695  0.44800  0.44761  1.0000
  C   C107      1.0  0.11431  0.45127  0.28721  1.0000
  H   H87       1.0  0.41197  0.57132  0.20503  1.0000
  C   C108      1.0  0.22223  0.45418  0.46697  1.0000
  C   C109      1.0  0.11479  0.62728  0.42065  1.0000
  C   C110      1.0  0.12656  0.62044  0.39142  1.0000
  C   C111      1.0  0.15609  0.63461  0.38438  1.0000
  H   H88       1.0  0.21753  0.59753  0.33655  1.0000
  H   H89       1.0  0.20027  0.61691  0.38392  1.0000
  C   C112      1.0  0.31648  0.63744  0.02082  1.0000
  H   H90       1.0  0.11282  0.60418  0.37417  1.0000
  H   H91       1.0  0.16463  0.62928  0.36137  1.0000
  H   H92       1.0  0.13150  0.52660  0.29554  1.0000
  H   H93       1.0  0.06253  0.46601  0.44568  1.0000
  P   P4        1.0  0.13568  0.52054  0.21836  1.0000
  C   C113      1.0  0.25180  0.58190  0.37940  1.0000
  C   C114      1.0  0.16156  0.48932  0.24357  1.0000
  C   C115      1.0  0.24707  0.45179  0.47069  1.0000
  S   S20       1.0  0.37992  0.62628  0.22530  1.0000
  H   H94       1.0  0.34250  0.45170  0.45209  1.0000
  H   H95       1.0  0.40174  0.60859  0.28358  1.0000
  H   H96       1.0  0.09195  0.61637  0.42617  1.0000
  C   C116      1.0  0.16232  0.46727  0.26372  1.0000
  C   C117      1.0  0.24533  0.59384  0.40829  1.0000
  H   H97       1.0  0.26178  0.62550  0.44728  1.0000
  C   C118      1.0  0.38048  0.62444  0.44005  1.0000
  C   C119      1.0  0.26719  0.61607  0.42540  1.0000
  C   C120      1.0  0.09960  0.50866  0.20570  1.0000
  C   C121      1.0  0.11345  0.47332  0.26719  1.0000
  C   C122      1.0  0.29575  0.62606  0.41407  1.0000
  C   C123      1.0  0.05475  0.47123  0.18604  1.0000
  H   H98       1.0  0.18041  0.50410  0.22762  1.0000
  H   H99       1.0  0.25834  0.55491  0.45619  1.0000
  C   C124      1.0  0.41755  0.63000  0.27509  1.0000
  H   H100      1.0  0.16372  0.58224  0.20012  1.0000
  C   C125      1.0  0.08259  0.48044  0.19624  1.0000
  H   H101      1.0  0.09081  0.46552  0.19685  1.0000
  H   H102      1.0  0.44815  0.63044  0.31136  1.0000
  C   C126      1.0  0.35583  0.65173  0.42936  1.0000
  H   H103      1.0  0.05234  0.53315  0.19234  1.0000
  C   C127      1.0  0.14870  0.51825  0.14609  1.0000
  C   C128      1.0  0.41260  0.56716  0.23333  1.0000
  H   H104      1.0  0.32375  0.62259  0.37411  1.0000
  H   H105      1.0  0.21080  0.54959  0.09498  1.0000
  C   C129      1.0  0.04382  0.49018  0.18476  1.0000
  C   C130      1.0  0.20696  0.55543  0.15082  1.0000
  H   H106      1.0  0.15911  0.51647  0.09069  1.0000
  C   C131      1.0  0.18847  0.54823  0.18093  1.0000
  C   C132      1.0  0.07953  0.54449  0.45405  1.0000
  C   C133      1.0  0.08166  0.50801  0.42019  1.0000
  C   C134      1.0  0.06078  0.51842  0.19349  1.0000
  C   C135      1.0  0.20860  0.45807  0.49676  1.0000
  H   H107      1.0  0.16356  0.52993  0.47339  1.0000
  H   H108      1.0  0.36805  0.55377  0.24313  1.0000
  H   H109      1.0  0.12631  0.50372  0.14364  1.0000
  C   C136      1.0  0.19638  0.54403  0.11828  1.0000
  H   H110      1.0  0.22954  0.56990  0.15293  1.0000
  C   C137      1.0  0.38792  0.55198  0.29155  1.0000
  H   H111      1.0  0.36867  0.54478  0.30826  1.0000
  H   H112      1.0  0.38045  0.60536  0.45070  1.0000
  C   C138      1.0  0.39044  0.55259  0.47650  1.0000
  C   C139      1.0  0.01080  0.41207  0.36762  1.0000
  H   H113      1.0  0.41408  0.55448  0.33533  1.0000
  H   H114      1.0  0.31950  0.50984  0.47089  1.0000
  C   C140      1.0  0.41338  0.55737  0.30678  1.0000
  C   C141      1.0  0.43824  0.57241  0.24846  1.0000
  C   C142      1.0  0.43835  0.56724  0.28532  1.0000
  H   H115      1.0  0.42635  0.52770  0.20491  1.0000
  H   H116      1.0  0.02221  0.48298  0.17695  1.0000
  C   C143      1.0  0.44136  0.36952  0.45474  1.0000
  H   H117      1.0  0.45440  0.61278  0.47688  1.0000
  Fe  Fe11      1.0  0.46514  0.61779  0.40256  1.0000
  C   C144      1.0  0.22585  0.62034  0.33715  1.0000
  C   C145      1.0  0.13253  0.64843  0.44271  1.0000
  C   C146      1.0  0.01927  0.59607  0.47748  1.0000
  H   H118      1.0  0.19376  0.64089  0.46717  1.0000
  H   H119      1.0  0.42882  0.48785  0.17771  1.0000
  H   H120      1.0  0.25453  0.63022  0.29099  1.0000
  C   C147      1.0  0.21576  0.63133  0.36366  1.0000
  C   C148      1.0  0.00711  0.49070  0.39994  1.0000
  Fe  Fe12      1.0  0.35742  0.64791  0.19826  1.0000
  H   H121      1.0  0.02358  0.61696  0.46710  1.0000
  H   H122      1.0  0.45771  0.57111  0.29778  1.0000
  C   C149      1.0  0.43639  0.59278  0.48620  1.0000
  C   C150      1.0  0.15788  0.54537  0.48280  1.0000
  C   C151      1.0  0.27858  0.53966  0.49331  1.0000
  H   H123      1.0  0.01571  0.51967  0.44150  1.0000
  C   C152      1.0  0.47090  0.38686  0.45034  1.0000
  H   H124      1.0  0.02919  0.49613  0.39540  1.0000
  C   C153      1.0  0.49040  0.53079  0.45613  1.0000
  H   H125      1.0  0.48060  0.39614  0.42418  1.0000
  C   C154      1.0  0.24660  0.63871  0.31150  1.0000
  C   C155      1.0  0.47134  0.60995  0.18576  1.0000
  C   C156      1.0  0.05799  0.49576  0.47931  1.0000
  H   H126      1.0  0.42766  0.52635  0.48442  1.0000
  C   C157      1.0  0.99719  0.43866  0.47083  1.0000
  C   C158      1.0  0.06463  0.52434  0.48209  1.0000
  C   C159      1.0  0.48789  0.39223  0.47969  1.0000
  H   H127      1.0  0.12352  0.65401  0.46527  1.0000
  C   C160      1.0  0.40539  0.64662  0.42392  1.0000
  P   P5        1.0  0.32401  0.65506  0.43572  1.0000
  S   S21       1.0  0.32968  0.65690  0.23523  1.0000
  C   C161      1.0  0.31597  0.64990  0.48370  1.0000
  C   C162      1.0  0.44556  0.52233  0.48372  1.0000
  H   H128      1.0  0.29750  0.60392  0.48430  1.0000
  C   C163      1.0  0.44823  0.50761  0.18088  1.0000
  H   H129      1.0  0.01072  0.45270  0.44902  1.0000
  H   H130      1.0  0.42450  0.64463  0.42250  1.0000
  C   C164      1.0  0.99587  0.57158  0.46626  1.0000
  C   C165      1.0  0.00085  0.37315  0.42454  1.0000
  P   P6        1.0  0.39051  0.33538  0.49416  1.0000
  H   H131      1.0  0.34770  0.41412  0.48915  1.0000
  H   H132      1.0  0.47550  0.49274  0.15766  1.0000
  C   C166      1.0  0.48217  0.61048  0.15109  1.0000
  H   H133      1.0  0.99719  0.35787  0.44639  1.0000
  C   C167      1.0  0.17410  0.65546  0.40688  1.0000
  C   C168      1.0  0.35315  0.38274  0.46050  1.0000
  C   C169      1.0  0.29588  0.52702  0.49709  1.0000
  H   H134      1.0  0.36135  0.35089  0.43861  1.0000
  C   C170      1.0  0.46719  0.53587  0.45707  1.0000
  H   H135      1.0  0.46616  0.55061  0.43734  1.0000
  H   H136      1.0  0.22094  0.57242  0.48132  1.0000
  C   C171      1.0  0.47452  0.51037  0.16955  1.0000
  H   H137      1.0  0.20440  0.52110  0.49508  1.0000
  C   C172      1.0  0.36371  0.36341  0.46143  1.0000
  H   H138      1.0  0.34231  0.38461  0.43748  1.0000
  H   H139      1.0  0.45230  0.62864  0.21953  1.0000
  C   C173      1.0  0.44693  0.53031  0.19636  1.0000
  H   H140      1.0  0.23783  0.63419  0.02510  1.0000
  C   C174      1.0  0.45984  0.64673  0.16598  1.0000
  C   C175      1.0  0.46048  0.62846  0.19300  1.0000
  C   C176      1.0  0.47199  0.55598  0.20066  1.0000
  S   S22       1.0  0.48523  0.61400  0.35163  1.0000
  P   P7        1.0  0.47061  0.58545  0.22071  1.0000
  C   C177      1.0  0.47040  0.64696  0.13153  1.0000
  H   H141      1.0  0.35235  0.65841  0.31414  1.0000
  C   C178      1.0  0.99934  0.50402  0.42601  1.0000
  C   C179      1.0  0.48168  0.62893  0.12412  1.0000
  C   C180      1.0  0.25369  0.65331  0.01039  1.0000
  C   C181      1.0  0.35633  0.39954  0.48942  1.0000
  C   C182      1.0  0.37712  0.36047  0.49167  1.0000
  C   C183      1.0  0.42866  0.35708  0.48851  1.0000
  C   C184      1.0  0.21618  0.65594  0.46748  1.0000
  H   H142      1.0  0.48988  0.62915  0.09737  1.0000
  H   H143      1.0  0.49085  0.59664  0.14463  1.0000
  H   H144      1.0  0.45089  0.66054  0.17178  1.0000
  C   C185      1.0  0.49239  0.51233  0.48207  1.0000
  C   C186      1.0  0.23052  0.65676  0.49830  1.0000
  H   H145      1.0  0.46972  0.66106  0.11061  1.0000
  H   H146      1.0  0.39991  0.66151  0.31777  1.0000
  C   C187      1.0  0.22538  0.66069  0.36380  1.0000
  C   C188      1.0  0.00176  0.59105  0.58356  1.0000
  C   C189      1.0  0.31044  0.59026  0.66680  1.0000
  C   C190      1.0  0.36068  0.57828  0.55563  1.0000
  H   H147      1.0  0.15968  0.42933  0.61678  1.0000
  H   H148      1.0  0.39041  0.35386  0.73244  1.0000
  Fe  Fe13      1.0  0.34650  0.43692  0.60679  1.0000
  S   S23       1.0  0.36332  0.47606  0.63898  1.0000
  S   S24       1.0  0.35277  0.39771  0.61750  1.0000
  Fe  Fe14      1.0  0.31473  0.45867  0.55793  1.0000
  S   S25       1.0  0.32987  0.49951  0.58529  1.0000
  H   H149      1.0  0.37310  0.41049  0.54135  1.0000
  Fe  Fe15      1.0  0.37168  0.49990  0.58599  1.0000
  C   C191      1.0  0.22034  0.46001  0.53020  1.0000
  Fe  Fe16      1.0  0.32016  0.47295  0.63628  1.0000
  S   S26       1.0  0.29705  0.48316  0.68008  1.0000
  S   S27       1.0  0.35811  0.46153  0.55369  1.0000
  S   S28       1.0  0.30172  0.43131  0.60899  1.0000
  Fe  Fe17      1.0  0.33911  0.62325  0.78168  1.0000
  C   C192      1.0  0.24082  0.61019  0.87524  1.0000
  S   S29       1.0  0.36093  0.60045  0.75642  1.0000
  Fe  Fe18      1.0  0.32009  0.64153  0.85013  1.0000
  S   S30       1.0  0.31438  0.63193  0.91174  1.0000
  Fe  Fe19      1.0  0.28615  0.63009  0.78092  1.0000
  S   S31       1.0  0.24468  0.60823  0.75262  1.0000
  S   S32       1.0  0.29873  0.60337  0.81596  1.0000
  H   H150      1.0  0.41371  0.62710  0.80257  1.0000
  Fe  Fe20      1.0  0.08305  0.61353  0.61736  1.0000
  S   S33       1.0  0.11121  0.59908  0.64496  1.0000
  S   S34       1.0  0.03590  0.58782  0.63662  1.0000
  S   S35       1.0  0.16453  0.64506  0.59096  1.0000
  Fe  Fe21      1.0  0.12892  0.60046  0.59009  1.0000
  S   S36       1.0  0.13754  0.56505  0.57715  1.0000
  Fe  Fe22      1.0  0.14477  0.64499  0.64418  1.0000
  H   H151      1.0  0.10268  0.49615  0.52058  1.0000
  S   S37       1.0  0.09913  0.61185  0.56217  1.0000
  C   C193      1.0  0.22759  0.62590  0.73252  1.0000
  C   C194      1.0  0.20406  0.61017  0.71211  1.0000
  C   C195      1.0  0.18881  0.62275  0.69693  1.0000
  H   H152      1.0  0.04405  0.56498  0.53701  1.0000
  H   H153      1.0  0.19752  0.58805  0.70827  1.0000
  H   H154      1.0  0.17054  0.61026  0.68157  1.0000
  C   C196      1.0  0.23161  0.58411  0.53523  1.0000
  C   C197      1.0  0.37130  0.44342  0.72276  1.0000
  C   C198      1.0  0.44011  0.47766  0.83850  1.0000
  H   H155      1.0  0.37520  0.48036  0.74902  1.0000
  C   C199      1.0  0.44772  0.40946  0.68888  1.0000
  C   C200      1.0  0.21220  0.52609  0.55090  1.0000
  H   H156      1.0  0.03173  0.41064  0.52650  1.0000
  C   C201      1.0  0.32474  0.64529  0.95534  1.0000
  C   C202      1.0  0.17881  0.54704  0.63884  1.0000
  C   C203      1.0  0.31476  0.51663  0.69943  1.0000
  C   C204      1.0  0.34414  0.53443  0.69374  1.0000
  C   C205      1.0  0.35792  0.56013  0.71115  1.0000
  C   C206      1.0  0.34244  0.56851  0.73399  1.0000
  C   C207      1.0  0.31296  0.55106  0.73900  1.0000
  C   C208      1.0  0.29923  0.52517  0.72192  1.0000
  H   H157      1.0  0.35635  0.52808  0.67654  1.0000
  H   H158      1.0  0.38073  0.57348  0.70714  1.0000
  H   H159      1.0  0.30080  0.55723  0.75654  1.0000
  H   H160      1.0  0.27649  0.51157  0.72642  1.0000
  C   C209      1.0  0.43494  0.58215  0.52125  1.0000
  C   C210      1.0  0.47048  0.49882  0.50884  1.0000
  H   H161      1.0  0.37523  0.64306  0.51906  1.0000
  H   H162      1.0  0.28755  0.59377  0.71269  1.0000
  H   H163      1.0  0.40947  0.62231  0.61131  1.0000
  C   C211      1.0  0.00618  0.44194  0.50593  1.0000
  H   H164      1.0  0.45316  0.64765  0.55902  1.0000
  C   C212      1.0  0.19662  0.65112  0.70274  1.0000
  C   C213      1.0  0.30105  0.61807  0.53728  1.0000
  C   C214      1.0  0.40466  0.37552  0.72233  1.0000
  C   C215      1.0  0.23200  0.57427  0.57008  1.0000
  C   C216      1.0  0.15117  0.53431  0.69509  1.0000
  C   C217      1.0  0.37869  0.58697  0.58403  1.0000
  H   H165      1.0  0.26335  0.63426  0.91890  1.0000
  C   C218      1.0  0.00580  0.59634  0.79293  1.0000
  C   C219      1.0  0.02521  0.59790  0.73350  1.0000
  C   C220      1.0  0.99835  0.58890  0.72008  1.0000
  C   C221      1.0  0.44980  0.53450  0.67887  1.0000
  H   H166      1.0  0.02089  0.60872  0.57127  1.0000
  H   H167      1.0  0.32531  0.46887  0.74133  1.0000
  C   C222      1.0  0.42953  0.38044  0.60980  1.0000
  C   C223      1.0  0.43323  0.40783  0.60085  1.0000
  C   C224      1.0  0.41008  0.41347  0.60256  1.0000
  C   C225      1.0  0.38287  0.39190  0.61416  1.0000
  C   C226      1.0  0.37914  0.36451  0.62298  1.0000
  C   C227      1.0  0.40220  0.35872  0.62052  1.0000
  H   H168      1.0  0.45418  0.42494  0.59273  1.0000
  H   H169      1.0  0.41332  0.43447  0.59486  1.0000
  C   C228      1.0  0.18092  0.44599  0.62171  1.0000
  H   H170      1.0  0.20420  0.50351  0.55610  1.0000
  H   H171      1.0  0.03175  0.53276  0.63046  1.0000
  H   H172      1.0  0.30020  0.52152  0.52341  1.0000
  C   C229      1.0  0.30948  0.62789  0.98592  1.0000
  C   C230      1.0  0.38893  0.61778  0.85161  1.0000
  C   C231      1.0  0.22204  0.54515  0.57832  1.0000
  H   H173      1.0  0.37848  0.44183  0.79622  1.0000
  H   H174      1.0  0.99467  0.42439  0.56043  1.0000
  H   H175      1.0  0.36698  0.61454  0.90200  1.0000
  H   H176      1.0  0.37470  0.59593  0.84548  1.0000
  C   C232      1.0  0.44989  0.47872  0.77497  1.0000
  H   H177      1.0  0.45818  0.55612  0.68709  1.0000
  H   H178      1.0  0.40676  0.66006  0.75880  1.0000
  H   H179      1.0  0.21718  0.62917  0.60282  1.0000
  S   S38       1.0  0.11525  0.66007  0.62205  1.0000
  H   H180      1.0  0.29259  0.59677  0.54959  1.0000
  H   H181      1.0  0.00354  0.52171  0.51614  1.0000
  H   H182      1.0  0.99589  0.58615  0.69179  1.0000
  S   S39       1.0  0.29001  0.45039  0.50755  1.0000
  H   H183      1.0  0.44763  0.48324  0.86505  1.0000
  H   H184      1.0  0.45226  0.59360  0.53846  1.0000
  C   C233      1.0  0.06452  0.45509  0.52467  1.0000
  C   C234      1.0  0.45007  0.52955  0.64264  1.0000
  H   H185      1.0  0.43395  0.36460  0.69567  1.0000
  C   C235      1.0  0.09400  0.47339  0.52511  1.0000
  C   C236      1.0  0.37636  0.62762  0.53740  1.0000
  H   H186      1.0  0.39580  0.45516  0.85633  1.0000
  C   C237      1.0  0.21233  0.53606  0.51597  1.0000
  H   H187      1.0  0.34537  0.59152  0.51055  1.0000
  C   C238      1.0  0.38464  0.62821  0.88344  1.0000
  C   C239      1.0  0.24822  0.63009  0.63869  1.0000
  H   H188      1.0  0.37076  0.52193  0.52092  1.0000
  P   P8        1.0  0.04102  0.46987  0.51642  1.0000
  C   C240      1.0  0.31474  0.43085  0.71372  1.0000
  H   H189      1.0  0.23970  0.58927  0.59074  1.0000
  H   H190      1.0  0.18293  0.55703  0.61224  1.0000
  C   C241      1.0  0.25904  0.56846  0.67353  1.0000
  H   H191      1.0  0.39219  0.37679  0.54303  1.0000
  H   H192      1.0  0.11688  0.42459  0.53577  1.0000
  Fe  Fe23      1.0  0.13339  0.65720  0.56842  1.0000
  C   C242      1.0  0.00939  0.50321  0.59051  1.0000
  H   H193      1.0  0.23064  0.64402  0.96251  1.0000
  C   C243      1.0  0.22680  0.60985  0.84434  1.0000
  H   H194      1.0  0.37941  0.39240  0.74577  1.0000
  H   H195      1.0  0.46668  0.41394  0.67284  1.0000
  H   H196      1.0  0.19786  0.41702  0.62865  1.0000
  C   C244      1.0  0.45959  0.48597  0.80922  1.0000
  C   C245      1.0  0.05413  0.42547  0.52809  1.0000
  C   C246      1.0  0.03678  0.59370  0.50273  1.0000
  H   H197      1.0  0.21885  0.64274  0.52136  1.0000
  C   C247      1.0  0.38119  0.37821  0.51993  1.0000
  C   C248      1.0  0.22987  0.46053  0.63424  1.0000
  H   H198      1.0  0.04310  0.60199  0.71546  1.0000
  C   C249      1.0  0.15284  0.54609  0.51930  1.0000
  H   H199      1.0  0.46521  0.48497  0.75252  1.0000
  C   C250      1.0  0.18756  0.52047  0.68585  1.0000
  C   C251      1.0  0.40114  0.45455  0.79938  1.0000
  H   H200      1.0  0.45609  0.45275  0.68550  1.0000
  C   C252      1.0  0.39836  0.39736  0.72948  1.0000
  H   H201      1.0  0.47124  0.48447  0.52923  1.0000
  C   C253      1.0  0.44137  0.43129  0.69570  1.0000
  C   C254      1.0  0.39493  0.63655  0.56552  1.0000
  H   H202      1.0  0.26966  0.54420  0.51679  1.0000
  C   C255      1.0  0.42925  0.38155  0.70186  1.0000
  C   C256      1.0  0.10218  0.43300  0.53333  1.0000
  H   H203      1.0  0.17018  0.47955  0.61509  1.0000
  C   C257      1.0  0.47531  0.38030  0.51338  1.0000
  H   H204      1.0  0.21901  0.59164  0.82789  1.0000
  C   C258      1.0  0.37060  0.39745  0.51894  1.0000
  C   C259      1.0  0.30812  0.57855  0.63365  1.0000
  C   C260      1.0  0.33291  0.45475  0.73182  1.0000
  H   H205      1.0  0.24650  0.45510  0.63951  1.0000
  H   H206      1.0  0.06488  0.39170  0.53434  1.0000
  H   H207      1.0  0.48224  0.49789  0.81307  1.0000
  H   H208      1.0  0.16162  0.51107  0.73445  1.0000
  H   H209      1.0  0.05455  0.61272  0.51197  1.0000
  H   H210      1.0  0.35824  0.34762  0.63194  1.0000
  C   C261      1.0  0.16625  0.52090  0.70766  1.0000
  C   C262      1.0  0.02896  0.60166  0.76992  1.0000
  H   H211      1.0  0.43683  0.51577  0.73211  1.0000
  C   C263      1.0  0.42058  0.46336  0.76976  1.0000
  H   H212      1.0  0.00874  0.59923  0.82118  1.0000
  C   C264      1.0  0.19420  0.53377  0.65138  1.0000
  H   H213      1.0  0.23859  0.60648  0.52929  1.0000
  C   C265      1.0  0.28591  0.58527  0.68660  1.0000
  H   H214      1.0  0.24058  0.56505  0.68973  1.0000
  H   H215      1.0  0.33115  0.60250  0.67776  1.0000
  S   S40       1.0  0.32552  0.64774  0.74495  1.0000
  H   H216      1.0  0.14580  0.55782  0.65108  1.0000
  C   C266      1.0  0.24553  0.45824  0.53387  1.0000
  H   H217      1.0  0.41582  0.45716  0.64838  1.0000
  C   C267      1.0  0.44579  0.36300  0.51786  1.0000
  Fe  Fe24      1.0  0.46846  0.33684  0.60720  1.0000
  H   H218      1.0  0.13902  0.60168  0.51748  1.0000
  C   C268      1.0  0.25886  0.45382  0.50413  1.0000
  H   H219      1.0  0.19915  0.51008  0.69603  1.0000
  C   C269      1.0  0.25645  0.55610  0.64054  1.0000
  H   H220      1.0  0.31108  0.39544  0.68461  1.0000
  H   H221      1.0  0.44249  0.64890  0.66115  1.0000
  C   C270      1.0  0.30873  0.64119  0.55857  1.0000
  C   C271      1.0  0.42617  0.47869  0.65714  1.0000
  P   P9        1.0  0.22190  0.53292  0.62386  1.0000
  C   C272      1.0  0.28125  0.56160  0.62048  1.0000
  H   H222      1.0  0.43644  0.35427  0.54427  1.0000
  H   H223      1.0  0.32712  0.58181  0.61880  1.0000
  C   C273      1.0  0.41619  0.42525  0.71524  1.0000
  H   H224      1.0  0.37989  0.57115  0.60172  1.0000
  C   C274      1.0  0.44517  0.65617  0.68798  1.0000
  C   C275      1.0  0.41167  0.55622  0.53351  1.0000
  H   H225      1.0  0.43738  0.49788  0.60359  1.0000
  H   H226      1.0  0.30616  0.63788  0.58740  1.0000
  C   C276      1.0  0.03324  0.52007  0.60955  1.0000
  H   H227      1.0  0.24417  0.59234  0.88271  1.0000
  H   H228      1.0  0.27973  0.55192  0.59527  1.0000
  C   C277      1.0  0.43780  0.51155  0.70432  1.0000
  C   C278      1.0  0.21467  0.49627  0.62619  1.0000
  H   H229      1.0  0.25746  0.50505  0.63855  1.0000
  C   C279      1.0  0.35930  0.59852  0.53254  1.0000
  H   H230      1.0  0.23578  0.60774  0.64728  1.0000
  H   H231      1.0  0.45855  0.54726  0.62281  1.0000
  C   C280      1.0  0.18699  0.47447  0.62068  1.0000
  C   C281      1.0  0.23605  0.48905  0.63332  1.0000
  C   C282      1.0  0.20240  0.43903  0.62832  1.0000
  H   H232      1.0  0.40067  0.64305  0.69808  1.0000
  C   C283      1.0  0.43823  0.50166  0.63178  1.0000
  C   C284      1.0  0.11268  0.46241  0.52986  1.0000
  C   C285      1.0  0.23769  0.64225  0.61386  1.0000
  C   C286      1.0  0.15744  0.54732  0.66073  1.0000
  S   S41       1.0  0.46007  0.37523  0.60943  1.0000
  C   C287      1.0  0.41093  0.63578  0.82697  1.0000
  C   C288      1.0  0.01148  0.48721  0.56313  1.0000
  H   H233      1.0  0.43047  0.49378  0.53052  1.0000
  C   C289      1.0  0.41091  0.46188  0.83359  1.0000
  C   C290      1.0  0.44719  0.50388  0.50963  1.0000
  C   C291      1.0  0.24984  0.65884  0.97484  1.0000
  C   C292      1.0  0.03754  0.48796  0.55454  1.0000
  C   C293      1.0  0.00343  0.57696  0.61472  1.0000
  H   H234      1.0  0.25427  0.45967  0.55978  1.0000
  H   H235      1.0  0.13546  0.47667  0.52945  1.0000
  C   C294      1.0  0.32480  0.41335  0.69988  1.0000
  C   C295      1.0  0.42627  0.48347  0.69360  1.0000
  H   H236      1.0  0.20976  0.46255  0.55345  1.0000
  H   H237      1.0  0.29197  0.60681  0.98260  1.0000
  C   C296      1.0  0.40285  0.65645  0.89108  1.0000
  H   H238      1.0  0.28211  0.63755  0.67334  1.0000
  C   C297      1.0  0.14558  0.56602  0.53175  1.0000
  H   H239      1.0  0.15429  0.53099  0.53788  1.0000
  C   C298      1.0  0.22190  0.56501  0.50816  1.0000
  C   C299      1.0  0.05919  0.52097  0.60126  1.0000
  C   C300      1.0  0.38896  0.54186  0.51151  1.0000
  P   P10       1.0  0.40847  0.45354  0.72560  1.0000
  C   C301      1.0  0.42168  0.65293  0.70868  1.0000
  C   C302      1.0  0.39563  0.61599  0.58915  1.0000
  H   H240      1.0  0.34812  0.55582  0.55121  1.0000
  C   C303      1.0  0.25169  0.63407  0.89578  1.0000
  C   C304      1.0  0.06138  0.50503  0.57393  1.0000
  H   H241      1.0  0.36764  0.64306  0.62316  1.0000
  H   H242      1.0  0.47897  0.64869  0.80758  1.0000
  H   H243      1.0  0.39897  0.33765  0.62789  1.0000
  C   C305      1.0  0.03093  0.56682  0.51674  1.0000
  C   C306      1.0  0.35301  0.41967  0.70421  1.0000
  H   H244      1.0  0.36062  0.40655  0.69184  1.0000
  H   H245      1.0  0.21363  0.63343  0.80929  1.0000
  H   H246      1.0  0.08197  0.50686  0.56763  1.0000
  H   H247      1.0  0.07786  0.53451  0.61557  1.0000
  C   C307      1.0  0.27432  0.64695  0.65351  1.0000
  H   H248      1.0  0.29314  0.42651  0.70940  1.0000
  C   C308      1.0  0.07293  0.41453  0.53243  1.0000
  H   H249      1.0  0.48845  0.38424  0.53614  1.0000
  H   H250      1.0  0.13485  0.53494  0.71206  1.0000
  C   C309      1.0  0.36114  0.46116  0.73612  1.0000
  S   S42       1.0  0.41191  0.54112  0.57543  1.0000
  C   C310      1.0  0.14430  0.58598  0.50787  1.0000
  H   H251      1.0  0.34430  0.65935  0.66663  1.0000
  H   H252      1.0  0.05915  0.53143  0.50614  1.0000
  C   C311      1.0  0.23615  0.65463  0.73726  1.0000
  H   H253      1.0  0.04986  0.60870  0.78021  1.0000
  C   C312      1.0  0.00775  0.54235  0.50528  1.0000
  S   S43       1.0  0.36169  0.65977  0.81750  1.0000
  C   C313      1.0  0.24854  0.65780  0.88567  1.0000
  C   C314      1.0  0.22382  0.63350  0.83383  1.0000
  C   C315      1.0  0.23502  0.65758  0.85409  1.0000
  C   C316      1.0  0.30413  0.62230  0.50012  1.0000
  H   H254      1.0  0.99289  0.47504  0.54807  1.0000
  H   H255      1.0  0.35426  0.97122  0.43778  1.0000
  Fe  Fe25      1.0  0.34456  0.69752  0.20208  1.0000
  S   S44       1.0  0.37497  0.68997  0.16712  1.0000
  S   S45       1.0  0.36119  0.73789  0.23310  1.0000
  H   H256      1.0  0.46359  0.86121  0.28110  1.0000
  C   C317      1.0  0.41998  0.73209  0.32106  1.0000
  H   H257      1.0  0.34809  0.70239  0.31474  1.0000
  H   H258      1.0  0.36418  0.71489  0.44918  1.0000
  H   H259      1.0  0.25579  0.70204  0.33887  1.0000
  H   H260      1.0  0.46938  0.80868  0.46024  1.0000
  Fe  Fe26      1.0  0.33449  0.87084  0.40481  1.0000
  S   S46       1.0  0.35528  0.85645  0.36338  1.0000
  S   S47       1.0  0.34252  0.91621  0.41455  1.0000
  Fe  Fe27      1.0  0.30045  0.80995  0.44187  1.0000
  S   S48       1.0  0.31927  0.79197  0.40340  1.0000
  H   H261      1.0  0.42808  0.68446  0.21664  1.0000
  Fe  Fe28      1.0  0.36026  0.83144  0.40897  1.0000
  S   S49       1.0  0.39938  0.82703  0.41369  1.0000
  Fe  Fe29      1.0  0.31239  0.81754  0.36059  1.0000
  S   S50       1.0  0.29473  0.79345  0.31076  1.0000
  S   S51       1.0  0.34272  0.84823  0.45075  1.0000
  S   S52       1.0  0.29030  0.83348  0.39845  1.0000
  C   C318      1.0  0.40538  0.97216  0.21176  1.0000
  C   C319      1.0  0.34042  0.74131  0.38299  1.0000
  S   S53       1.0  0.27752  0.77807  0.48905  1.0000
  C   C320      1.0  0.34078  0.74979  0.25802  1.0000
  C   C321      1.0  0.35444  0.77067  0.28276  1.0000
  C   C322      1.0  0.33997  0.78297  0.30048  1.0000
  C   C323      1.0  0.31191  0.77525  0.29277  1.0000
  C   C324      1.0  0.29798  0.75394  0.26862  1.0000
  C   C325      1.0  0.31223  0.74099  0.25161  1.0000
  H   H262      1.0  0.37664  0.77814  0.28738  1.0000
  H   H263      1.0  0.35102  0.79951  0.31879  1.0000
  H   H264      1.0  0.27628  0.74788  0.26244  1.0000
  H   H265      1.0  0.30156  0.72520  0.23232  1.0000
  C   C326      1.0  0.41626  0.98412  0.37158  1.0000
  H   H266      1.0  0.28118  0.87245  0.32114  1.0000
  C   C327      1.0  0.43568  0.83906  0.46731  1.0000
  H   H267      1.0  0.27143  0.70850  0.41666  1.0000
  H   H268      1.0  0.27352  0.68235  0.29253  1.0000
  C   C328      1.0  0.21963  0.76056  0.48542  1.0000
  C   C329      1.0  0.43858  0.72526  0.46363  1.0000
  C   C330      1.0  0.45854  0.82017  0.29826  1.0000
  C   C331      1.0  0.24688  0.67913  0.33852  1.0000
  C   C332      1.0  0.42221  0.70703  0.32076  1.0000
  H   H269      1.0  0.41533  0.79264  0.21385  1.0000
  C   C333      1.0  0.40765  0.82987  0.45841  1.0000
  C   C334      1.0  0.31381  0.68971  0.38714  1.0000
  H   H270      1.0  0.45205  0.84471  0.44646  1.0000
  C   C335      1.0  0.39460  0.95598  0.38092  1.0000
  C   C336      1.0  0.37181  0.95108  0.40437  1.0000
  C   C337      1.0  0.37172  0.97468  0.41953  1.0000
  H   H271      1.0  0.39505  0.93806  0.36948  1.0000
  C   C338      1.0  0.35571  0.74084  0.41216  1.0000
  H   H272      1.0  0.33070  0.75751  0.48965  1.0000
  H   H273      1.0  0.29657  0.70966  0.47081  1.0000
  H   H274      1.0  0.41223  0.76351  0.37920  1.0000
  C   C339      1.0  0.42772  0.80052  0.23718  1.0000
  C   C340      1.0  0.31949  0.71584  0.37050  1.0000
  C   C341      1.0  0.49186  0.99103  0.38941  1.0000
  H   H275      1.0  0.22572  0.78069  0.47111  1.0000
  C   C342      1.0  0.48477  0.79705  0.37612  1.0000
  H   H276      1.0  0.44473  0.73803  0.43875  1.0000
  C   C343      1.0  0.44694  0.79130  0.29089  1.0000
  H   H277      1.0  0.30797  0.71651  0.34756  1.0000
  C   C344      1.0  0.35081  0.71479  0.42816  1.0000
  H   H278      1.0  0.17447  0.74633  0.48491  1.0000
  H   H279      1.0  0.47051  0.82821  0.32178  1.0000
  H   H280      1.0  0.36454  0.81477  0.47863  1.0000
  H   H281      1.0  0.28175  0.66763  0.05408  1.0000
  H   H282      1.0  0.44961  0.93743  0.24644  1.0000
  C   C345      1.0  0.45700  0.78022  0.36491  1.0000
  C   C346      1.0  0.23096  0.73223  0.40761  1.0000
  S   S54       1.0  0.34793  0.67902  0.06935  1.0000
  H   H283      1.0  0.48250  0.77849  0.25068  1.0000
  C   C347      1.0  0.36863  0.70353  0.31772  1.0000
  H   H284      1.0  0.47541  0.70623  0.24366  1.0000
  C   C348      1.0  0.39288  0.73001  0.32028  1.0000
  H   H285      1.0  0.42274  0.75956  0.25343  1.0000
  H   H286      1.0  0.17539  0.67922  0.45293  1.0000
  H   H287      1.0  0.43556  0.84354  0.22737  1.0000
  H   H288      1.0  0.42680  0.84897  0.34276  1.0000
  H   H289      1.0  0.34499  0.76151  0.36985  1.0000
  C   C349      1.0  0.39783  0.68055  0.31890  1.0000
  C   C350      1.0  0.23065  0.67478  0.43789  1.0000
  H   H290      1.0  0.42036  0.78230  0.43939  1.0000
  C   C351      1.0  0.46497  0.94052  0.46546  1.0000
  C   C352      1.0  0.43233  0.67279  0.23751  1.0000
  C   C353      1.0  0.25989  0.69370  0.43913  1.0000
  C   C354      1.0  0.27422  0.69439  0.46990  1.0000
  C   C355      1.0  0.32951  0.68892  0.41618  1.0000
  H   H291      1.0  0.23531  0.72839  0.43455  1.0000
  C   C356      1.0  0.37108  0.67880  0.31706  1.0000
  H   H292      1.0  0.39056  0.74894  0.32014  1.0000
  C   C357      1.0  0.40919  0.90474  0.49370  1.0000
  H   H293      1.0  0.38148  0.69256  0.40000  1.0000
  H   H294      1.0  0.24599  0.77664  0.41456  1.0000
  C   C358      1.0  0.25726  0.66811  0.31234  1.0000
  C   C359      1.0  0.43821  0.78575  0.42189  1.0000
  P   P11       1.0  0.45146  0.76674  0.32079  1.0000
  C   C360      1.0  0.19059  0.74116  0.49355  1.0000
  H   H295      1.0  0.23673  0.78688  0.35283  1.0000
  C   C361      1.0  0.23689  0.75971  0.39636  1.0000
  H   H296      1.0  0.40804  0.73804  0.48071  1.0000
  H   H297      1.0  0.21531  0.74776  0.31157  1.0000
  C   C362      1.0  0.16202  0.66264  0.43571  1.0000
  C   C363      1.0  0.36919  0.82202  0.20970  1.0000
  C   C364      1.0  0.38502  0.83198  0.17731  1.0000
  C   C365      1.0  0.40201  0.86127  0.16969  1.0000
  C   C366      1.0  0.40313  0.88062  0.19446  1.0000
  C   C367      1.0  0.38718  0.87077  0.22715  1.0000
  C   C368      1.0  0.37040  0.84126  0.23461  1.0000
  P   P12       1.0  0.38930  0.89565  0.25992  1.0000
  C   C369      1.0  0.40953  0.89426  0.29706  1.0000
  C   C370      1.0  0.40717  0.93154  0.23987  1.0000
  C   C371      1.0  0.43706  0.94697  0.23698  1.0000
  C   C372      1.0  0.38079  0.67358  0.41190  1.0000
  C   C373      1.0  0.41394  0.92349  0.46434  1.0000
  C   C374      1.0  0.45165  0.70896  0.47220  1.0000
  C   C375      1.0  0.39141  0.94422  0.22679  1.0000
  C   C376      1.0  0.42157  0.91724  0.31937  1.0000
  C   C377      1.0  0.43485  0.91536  0.35006  1.0000
  C   C378      1.0  0.43687  0.89084  0.35837  1.0000
  C   C379      1.0  0.42586  0.86829  0.33576  1.0000
  C   C380      1.0  0.41215  0.86986  0.30532  1.0000
  C   C381      1.0  0.35462  0.88870  0.27773  1.0000
  C   C382      1.0  0.35292  0.90569  0.30429  1.0000
  C   C383      1.0  0.32654  0.89996  0.31965  1.0000
  C   C384      1.0  0.30154  0.87733  0.30851  1.0000
  C   C385      1.0  0.30287  0.86092  0.28128  1.0000
  C   C386      1.0  0.32921  0.86679  0.26556  1.0000
  H   H298      1.0  0.35588  0.79930  0.21545  1.0000
  H   H299      1.0  0.38400  0.81692  0.15813  1.0000
  H   H300      1.0  0.41421  0.86897  0.14446  1.0000
  H   H301      1.0  0.41637  0.90315  0.18779  1.0000
  H   H302      1.0  0.35808  0.83308  0.25969  1.0000
  S   S55       1.0  0.30946  0.67860  0.16371  1.0000
  H   H303      1.0  0.46753  0.70884  0.45387  1.0000
  H   H304      1.0  0.44266  0.70767  0.32091  1.0000
  C   C387      1.0  0.48200  0.76363  0.30534  1.0000
  H   H305      1.0  0.36834  0.93266  0.22828  1.0000
  H   H306      1.0  0.42008  0.93639  0.31369  1.0000
  H   H307      1.0  0.44289  0.93265  0.36790  1.0000
  H   H308      1.0  0.44620  0.88889  0.38285  1.0000
  H   H309      1.0  0.48692  0.74651  0.35630  1.0000
  H   H310      1.0  0.40291  0.85154  0.28932  1.0000
  H   H311      1.0  0.37188  0.92325  0.31358  1.0000
  H   H312      1.0  0.32555  0.91279  0.34075  1.0000
  H   H313      1.0  0.28349  0.84315  0.27285  1.0000
  H   H314      1.0  0.42479  0.68781  0.39602  1.0000
  H   H315      1.0  0.32929  0.85385  0.24430  1.0000
  C   C388      1.0  0.43374  0.77521  0.38777  1.0000
  C   C389      1.0  0.45914  0.68504  0.25277  1.0000
  H   H316      1.0  0.37169  0.76083  0.42181  1.0000
  C   C390      1.0  0.43512  0.98751  0.20940  1.0000
  C   C391      1.0  0.21956  0.71013  0.38422  1.0000
  C   C392      1.0  0.21306  0.71564  0.34983  1.0000
  C   C393      1.0  0.21931  0.74327  0.33851  1.0000
  C   C394      1.0  0.23134  0.76534  0.36176  1.0000
  H   H317      1.0  0.39309  0.98195  0.20208  1.0000
  P   P13       1.0  0.21227  0.67468  0.39826  1.0000
  H   H318      1.0  0.39598  0.92386  0.45223  1.0000
  C   C395      1.0  0.46584  0.80113  0.43346  1.0000
  C   C396      1.0  0.43180  0.78170  0.25991  1.0000
  C   C397      1.0  0.38645  0.82303  0.48525  1.0000
  C   C398      1.0  0.46517  0.66969  0.27912  1.0000
  H   H319      1.0  0.20369  0.69871  0.33158  1.0000
  C   C399      1.0  0.43901  0.82911  0.24489  1.0000
  C   C400      1.0  0.41789  0.72511  0.48720  1.0000
  H   H320      1.0  0.31811  0.71116  0.02072  1.0000
  C   C401      1.0  0.45096  0.97489  0.22188  1.0000
  H   H321      1.0  0.44450  0.95533  0.42732  1.0000
  C   C402      1.0  0.40546  0.67094  0.40923  1.0000
  C   C403      1.0  0.45465  0.83899  0.27524  1.0000
  C   C404      1.0  0.44167  0.94131  0.45021  1.0000
  H   H322      1.0  0.48182  0.90092  0.43520  1.0000
  C   C405      1.0  0.48908  0.80721  0.41034  1.0000
  C   C406      1.0  0.49250  0.77095  0.26967  1.0000
  S   S56       1.0  0.48016  0.66441  0.39424  1.0000
  H   H323      1.0  0.33162  0.69444  0.49429  1.0000
  H   H324      1.0  0.29753  0.67031  0.37670  1.0000
  C   C407      1.0  0.45993  0.92194  0.49544  1.0000
  H   H325      1.0  0.47402  0.98679  0.21987  1.0000
  C   C408      1.0  0.24062  0.75411  0.49673  1.0000
  Fe  Fe30      1.0  0.33841  0.66755  0.13048  1.0000
  H   H326      1.0  0.42496  0.98865  0.46355  1.0000
  H   H327      1.0  0.43305  0.98757  0.35229  1.0000
  C   C409      1.0  0.27829  0.67221  0.02684  1.0000
  C   C410      1.0  0.33887  0.66480  0.02594  1.0000
  C   C411      1.0  0.29888  0.69682  0.00793  1.0000
  C   C412      1.0  0.32839  0.74647  0.83735  1.0000
  S   S57       1.0  0.43042  0.83977  0.57448  1.0000
  C   C413      1.0  0.48155  0.74430  0.77373  1.0000
  P   P14       1.0  0.26606  0.69007  0.90929  1.0000
  C   C414      1.0  0.22049  0.66709  0.72272  1.0000
  S   S58       1.0  0.36851  0.72813  0.76108  1.0000
  C   C415      1.0  0.36899  0.75093  0.55651  1.0000
  C   C416      1.0  0.40873  0.91759  0.59315  1.0000
  C   C417      1.0  0.43085  0.94497  0.58327  1.0000
  H   H328      1.0  0.40354  0.74650  0.63481  1.0000
  C   C418      1.0  0.27091  0.68306  0.95529  1.0000
  S   S59       1.0  0.47154  0.79817  0.57349  1.0000
  C   C419      1.0  0.20337  0.70901  0.52448  1.0000
  H   H329      1.0  0.29372  0.73981  0.53816  1.0000
  H   H330      1.0  0.20066  0.74768  0.91695  1.0000
  H   H331      1.0  0.19745  0.68922  0.53933  1.0000
  C   C420      1.0  0.28945  0.67623  0.64458  1.0000
  C   C421      1.0  0.43122  0.96902  0.59751  1.0000
  H   H332      1.0  0.28148  0.74952  0.91865  1.0000
  H   H333      1.0  0.37167  0.70326  0.99869  1.0000
  H   H334      1.0  0.46427  0.84853  0.50972  1.0000
  S   S60       1.0  0.48138  0.76958  0.66304  1.0000
  H   H335      1.0  0.45729  0.71636  0.62002  1.0000
  C   C422      1.0  0.33537  0.75214  0.51587  1.0000
  C   C423      1.0  0.29516  0.70238  0.97238  1.0000
  H   H336      1.0  0.39421  0.70878  0.53722  1.0000
  S   S61       1.0  0.14582  0.69167  0.52405  1.0000
  C   C424      1.0  0.31958  0.66858  0.54263  1.0000
  H   H337      1.0  0.37912  0.76492  0.50101  1.0000
  C   C425      1.0  0.34745  0.67246  0.96048  1.0000
  C   C426      1.0  0.44903  0.75768  0.68837  1.0000
  C   C427      1.0  0.43525  0.72999  0.70453  1.0000
  C   C428      1.0  0.41007  0.72042  0.72604  1.0000
  C   C429      1.0  0.39881  0.73868  0.73205  1.0000
  C   C430      1.0  0.41233  0.76621  0.71545  1.0000
  C   C431      1.0  0.43723  0.77563  0.69348  1.0000
  H   H338      1.0  0.44425  0.71604  0.70056  1.0000
  H   H339      1.0  0.39966  0.69918  0.73859  1.0000
  H   H340      1.0  0.40380  0.78049  0.71995  1.0000
  H   H341      1.0  0.44768  0.79700  0.68118  1.0000
  H   H342      1.0  0.39044  0.75521  0.56175  1.0000
  C   C432      1.0  0.38635  0.91401  0.61637  1.0000
  C   C433      1.0  0.38609  0.93781  0.62987  1.0000
  C   C434      1.0  0.43897  0.75489  0.80159  1.0000
  C   C435      1.0  0.43220  0.90407  0.50925  1.0000
  C   C436      1.0  0.18237  0.71549  0.51361  1.0000
  H   H343      1.0  0.35981  0.68610  0.93763  1.0000
  C   C437      1.0  0.34863  0.72223  0.87179  1.0000
  H   H344      1.0  0.37137  0.75391  0.82911  1.0000
  H   H345      1.0  0.45582  0.68131  0.51088  1.0000
  P   P15       1.0  0.45661  0.68836  0.80174  1.0000
  C   C438      1.0  0.35151  0.74227  0.84490  1.0000
  C   C439      1.0  0.40840  0.96520  0.62054  1.0000
  H   H346      1.0  0.40889  0.89902  0.58299  1.0000
  H   H347      1.0  0.21053  0.76130  0.59304  1.0000
  S   S62       1.0  0.17619  0.66671  0.68686  1.0000
  C   C440      1.0  0.36204  0.67481  0.64951  1.0000
  C   C441      1.0  0.23223  0.72815  0.51606  1.0000
  C   C442      1.0  0.29972  0.71140  0.88489  1.0000
  H   H348      1.0  0.32531  0.68645  0.55921  1.0000
  C   C443      1.0  0.37545  0.66568  0.62479  1.0000
  C   C444      1.0  0.46609  0.70334  0.61055  1.0000
  H   H349      1.0  0.36232  0.71101  0.67308  1.0000
  H   H350      1.0  0.36916  0.89277  0.62378  1.0000
  H   H351      1.0  0.36855  0.93501  0.64759  1.0000
  C   C445      1.0  0.32324  0.67299  0.50545  1.0000
  C   C446      1.0  0.42156  0.83522  0.52994  1.0000
  C   C447      1.0  0.21307  0.73666  0.91551  1.0000
  H   H352      1.0  0.22667  0.68907  0.72727  1.0000
  C   C448      1.0  0.25442  0.77203  0.58312  1.0000
  H   H353      1.0  0.33044  0.76128  0.81561  1.0000
  C   C449      1.0  0.22683  0.75541  0.59823  1.0000
  H   H354      1.0  0.25428  0.66697  0.75292  1.0000
  H   H355      1.0  0.17658  0.69550  0.90980  1.0000
  H   H356      1.0  0.42708  0.73084  0.59080  1.0000
  H   H357      1.0  0.25952  0.79086  0.56618  1.0000
  C   C450      1.0  0.39348  0.82620  0.52102  1.0000
  C   C451      1.0  0.30249  0.73097  0.85712  1.0000
  C   C452      1.0  0.24525  0.70823  0.91116  1.0000
  H   H358      1.0  0.42182  0.75858  0.81095  1.0000
  C   C453      1.0  0.48889  0.69160  0.81928  1.0000
  C   C454      1.0  0.44487  0.69328  0.50483  1.0000
  C   C455      1.0  0.40868  0.71490  0.60665  1.0000
  C   C456      1.0  0.22026  0.73109  0.61991  1.0000
  C   C457      1.0  0.24101  0.72293  0.62565  1.0000
  C   C458      1.0  0.26829  0.73850  0.60865  1.0000
  H   H359      1.0  0.28456  0.73385  0.85020  1.0000
  P   P16       1.0  0.29482  0.72743  0.61550  1.0000
  C   C459      1.0  0.31193  0.74373  0.65551  1.0000
  C   C460      1.0  0.27810  0.68898  0.62153  1.0000
  C   C461      1.0  0.46387  0.66478  0.57674  1.0000
  H   H360      1.0  0.30921  0.68904  0.65720  1.0000
  H   H361      1.0  0.40748  0.98319  0.63119  1.0000
  C   C462      1.0  0.35428  0.68211  0.99535  1.0000
  C   C463      1.0  0.25864  0.73760  0.91616  1.0000
  C   C464      1.0  0.33715  0.77007  0.65336  1.0000
  C   C465      1.0  0.35147  0.78150  0.68419  1.0000
  C   C466      1.0  0.34038  0.76708  0.71740  1.0000
  C   C467      1.0  0.31459  0.74159  0.71994  1.0000
  C   C468      1.0  0.30015  0.73017  0.68919  1.0000
  C   C469      1.0  0.32089  0.73784  0.57849  1.0000
  C   C470      1.0  0.27520  0.76386  0.58866  1.0000
  H   H362      1.0  0.36616  0.71813  0.87671  1.0000
  H   H363      1.0  0.46259  0.79634  0.77428  1.0000
  C   C471      1.0  0.34816  0.74150  0.58444  1.0000
  H   H364      1.0  0.19898  0.71837  0.63217  1.0000
  H   H365      1.0  0.23547  0.70429  0.64317  1.0000
  C   C472      1.0  0.48310  0.77081  0.76676  1.0000
  C   C473      1.0  0.36261  0.75632  0.52225  1.0000
  H   H366      1.0  0.31142  0.72157  0.95828  1.0000
  H   H367      1.0  0.48098  0.96404  0.61040  1.0000
  C   C474      1.0  0.46188  0.77615  0.78080  1.0000
  H   H368      1.0  0.24373  0.68079  0.58661  1.0000
  H   H369      1.0  0.34608  0.78164  0.62790  1.0000
  H   H370      1.0  0.37145  0.80132  0.68224  1.0000
  H   H371      1.0  0.35195  0.77545  0.74115  1.0000
  H   H372      1.0  0.30614  0.73036  0.74570  1.0000
  H   H373      1.0  0.28011  0.71045  0.69172  1.0000
  H   H374      1.0  0.44778  0.94740  0.56468  1.0000
  H   H375      1.0  0.29642  0.77714  0.57669  1.0000
  H   H376      1.0  0.35357  0.73791  0.61093  1.0000
  C   C475      1.0  0.39530  0.72390  0.63152  1.0000
  C   C476      1.0  0.39899  0.68569  0.60318  1.0000
  C   C477      1.0  0.21550  0.69303  0.90956  1.0000
  Fe  Fe31      1.0  0.47171  0.83944  0.58047  1.0000
  C   C478      1.0  0.32275  0.70668  0.89149  1.0000
  C   C479      1.0  0.43717  0.72822  0.80829  1.0000
  H   H377      1.0  0.25308  0.77451  0.92165  1.0000
  C   C480      1.0  0.37205  0.70390  0.65303  1.0000
  C   C481      1.0  0.19951  0.70728  0.91143  1.0000
  H   H378      1.0  0.43888  0.69630  0.87288  1.0000
  H   H379      1.0  0.41842  0.71172  0.82270  1.0000
  C   C482      1.0  0.24260  0.75179  0.91807  1.0000
  Fe  Fe32      1.0  0.34427  0.68229  0.78314  1.0000
  H   H380      1.0  0.32039  0.69040  0.91123  1.0000
  H   H381      1.0  0.49048  0.67213  0.68545  1.0000
  H   H382      1.0  0.42857  0.88929  0.53171  1.0000
  C   C483      1.0  0.45106  0.68076  0.58841  1.0000
  H   H383      1.0  0.42215  0.97590  0.52753  1.0000
  C   C484      1.0  0.31447  0.74253  0.54373  1.0000
  C   C485      1.0  0.44258  0.84135  0.50308  1.0000
  H   H384      1.0  0.24803  0.72277  0.52492  1.0000
  H   H385      1.0  0.37711  0.82119  0.54176  1.0000
  C   C486      1.0  0.42477  0.69367  0.52925  1.0000
  C   C487      1.0  0.41053  0.70889  0.51959  1.0000
  C   C488      1.0  0.45208  0.67481  0.75771  1.0000
  C   C489      1.0  0.45875  0.72288  0.79493  1.0000
  C   C490      1.0  0.25272  0.67157  0.60496  1.0000
  P   P17       1.0  0.41707  0.67404  0.57195  1.0000
  H   H386      1.0  0.38764  0.89050  0.50415  1.0000
  C   C491      1.0  0.47573  0.67863  0.73640  1.0000
  H   H387      1.0  0.27046  0.67715  0.52375  1.0000
  H   H388      1.0  0.23371  0.67620  0.84459  1.0000
  H   H389      1.0  0.47729  0.92056  0.50774  1.0000
  C   C492      1.0  0.47220  0.66913  0.70178  1.0000
  C   C493      1.0  0.42490  0.67450  0.86649  1.0000
  S   S63       1.0  0.30365  0.66648  0.81732  1.0000
  C   C494      1.0  0.44133  0.99405  0.51613  1.0000
  H   H390      1.0  0.20460  0.67019  0.90702  1.0000
  C   C495      1.0  0.42834  0.66465  0.83354  1.0000
  C   C496      1.0  0.42516  0.66240  0.74330  1.0000
  H   H391      1.0  0.39946  0.66440  0.91586  1.0000
  C   C497      1.0  0.49129  0.67157  0.58653  1.0000
  S   S64       1.0  0.49189  0.84721  0.63312  1.0000
  C   C498      1.0  0.25953  0.67607  0.49959  1.0000
  C   C499      1.0  0.50740  0.27511  0.24191  1.0000
  S   S65       1.0  0.54904  0.18529  0.37504  1.0000
  S   S66       1.0  0.50150  0.10548  0.41750  1.0000
  H   H392      1.0  0.52295  0.21898  0.37995  1.0000
  S   S67       1.0  0.62694  0.30185  0.15402  1.0000
  S   S68       1.0  0.85753  0.29809  0.39534  1.0000
  Fe  Fe33      1.0  0.62837  0.27274  0.19807  1.0000
  S   S69       1.0  0.59043  0.22923  0.21341  1.0000
  H   H393      1.0  0.59444  0.23752  0.34369  1.0000
  S   S70       1.0  0.67079  0.27801  0.17839  1.0000
  H   H394      1.0  0.59159  0.17702  0.48178  1.0000
  H   H395      1.0  0.64498  0.32113  0.38266  1.0000
  H   H396      1.0  0.56421  0.29247  0.28491  1.0000
  H   H397      1.0  0.71664  0.32143  0.00915  1.0000
  H   H398      1.0  0.69125  0.29082  0.45502  1.0000
  H   H399      1.0  0.70204  0.14887  0.27504  1.0000
  H   H400      1.0  0.70997  0.06118  0.42297  1.0000
  C   C500      1.0  0.55444  0.29211  0.38773  1.0000
  C   C501      1.0  0.55648  0.04339  0.46937  1.0000
  H   H401      1.0  0.83759  0.24278  0.36216  1.0000
  Fe  Fe34      1.0  0.68942  0.31417  0.21534  1.0000
  C   C502      1.0  0.52472  0.30449  0.44562  1.0000
  H   H402      1.0  0.49460  0.20036  0.19772  1.0000
  C   C503      1.0  0.84352  0.22137  0.40811  1.0000
  C   C504      1.0  0.55970  0.19731  0.32995  1.0000
  C   C505      1.0  0.54562  0.18047  0.30193  1.0000
  C   C506      1.0  0.55527  0.19058  0.26639  1.0000
  C   C507      1.0  0.57897  0.21759  0.25855  1.0000
  C   C508      1.0  0.59296  0.23448  0.28664  1.0000
  C   C509      1.0  0.58337  0.22435  0.32216  1.0000
  H   H403      1.0  0.52756  0.15952  0.30770  1.0000
  H   H404      1.0  0.54448  0.17733  0.24483  1.0000
  H   H405      1.0  0.61140  0.25511  0.28106  1.0000
  C   C510      1.0  0.53463  0.25062  0.23182  1.0000
  H   H406      1.0  0.53928  0.15057  0.47583  1.0000
  H   H407      1.0  0.57074  0.06343  0.45500  1.0000
  H   H408      1.0  0.53735  0.23195  0.23463  1.0000
  C   C511      1.0  0.75089  0.27906  0.38045  1.0000
  C   C512      1.0  0.76479  0.26596  0.36383  1.0000
  C   C513      1.0  0.74938  0.24198  0.34434  1.0000
  C   C514      1.0  0.72004  0.23091  0.34173  1.0000
  C   C515      1.0  0.70601  0.24429  0.35777  1.0000
  C   C516      1.0  0.72163  0.26836  0.37738  1.0000
  P   P18       1.0  0.66852  0.23122  0.35173  1.0000
  C   C517      1.0  0.66191  0.22350  0.30541  1.0000
  C   C518      1.0  0.64661  0.19984  0.38051  1.0000
  C   C519      1.0  0.61758  0.19104  0.38682  1.0000
  C   C520      1.0  0.60026  0.16666  0.40865  1.0000
  C   C521      1.0  0.61179  0.15086  0.42450  1.0000
  C   C522      1.0  0.64063  0.15936  0.41835  1.0000
  C   C523      1.0  0.65812  0.18396  0.39675  1.0000
  C   C524      1.0  0.63518  0.20248  0.29534  1.0000
  C   C525      1.0  0.63003  0.19754  0.25931  1.0000
  C   C526      1.0  0.65146  0.21344  0.23310  1.0000
  C   C527      1.0  0.67816  0.23424  0.24289  1.0000
  C   C528      1.0  0.68330  0.23948  0.27880  1.0000
  C   C529      1.0  0.65995  0.25905  0.36131  1.0000
  C   C530      1.0  0.66378  0.27975  0.33462  1.0000
  C   C531      1.0  0.65829  0.30195  0.34232  1.0000
  C   C532      1.0  0.64920  0.30386  0.37680  1.0000
  C   C533      1.0  0.64514  0.28325  0.40355  1.0000
  C   C534      1.0  0.65067  0.26099  0.39594  1.0000
  H   H409      1.0  0.76298  0.29784  0.39521  1.0000
  H   H410      1.0  0.70846  0.21250  0.32621  1.0000
  H   H411      1.0  0.71152  0.27931  0.38967  1.0000
  H   H412      1.0  0.60829  0.20305  0.37478  1.0000
  H   H413      1.0  0.57786  0.16006  0.41344  1.0000
  H   H414      1.0  0.59841  0.13222  0.44191  1.0000
  H   H415      1.0  0.64933  0.14694  0.43081  1.0000
  H   H416      1.0  0.68055  0.19069  0.39312  1.0000
  H   H417      1.0  0.61792  0.19038  0.31490  1.0000
  H   H418      1.0  0.60906  0.18207  0.25156  1.0000
  H   H419      1.0  0.64708  0.21016  0.20515  1.0000
  H   H420      1.0  0.69468  0.24695  0.22258  1.0000
  H   H421      1.0  0.70379  0.25657  0.28557  1.0000
  H   H422      1.0  0.67116  0.27904  0.30777  1.0000
  H   H423      1.0  0.66119  0.31758  0.32126  1.0000
  H   H424      1.0  0.54090  0.02130  0.42199  1.0000
  H   H425      1.0  0.63768  0.28451  0.43016  1.0000
  H   H426      1.0  0.64783  0.24540  0.41706  1.0000
  C   C535      1.0  0.54731  0.21880  0.46593  1.0000
  C   C536      1.0  0.78332  0.30383  0.26141  1.0000
  C   C537      1.0  0.55270  0.24355  0.44603  1.0000
  C   C538      1.0  0.54532  0.26311  0.46033  1.0000
  C   C539      1.0  0.71654  0.07883  0.47460  1.0000
  C   C540      1.0  0.53800  0.29370  0.32855  1.0000
  C   C541      1.0  0.57766  0.29048  0.37226  1.0000
  C   C542      1.0  0.58093  0.29023  0.33531  1.0000
  H   H427      1.0  0.67257  0.17141  0.49153  1.0000
  C   C543      1.0  0.50510  0.22020  0.32977  1.0000
  Fe  Fe35      1.0  0.83727  0.31178  0.43808  1.0000
  Fe  Fe36      1.0  0.67073  0.30973  0.13655  1.0000
  C   C544      1.0  0.82724  0.22598  0.38302  1.0000
  S   S71       1.0  0.80010  0.28771  0.47878  1.0000
  C   C545      1.0  0.55475  0.30061  0.21312  1.0000
  C   C546      1.0  0.50593  0.22035  0.36691  1.0000
  C   C547      1.0  0.72967  0.22810  0.44972  1.0000
  C   C548      1.0  0.70439  0.21279  0.47055  1.0000
  H   H428      1.0  0.69422  0.14586  0.46191  1.0000
  C   C549      1.0  0.70464  0.16887  0.45849  1.0000
  C   C550      1.0  0.73025  0.18414  0.43774  1.0000
  C   C551      1.0  0.74265  0.21392  0.43357  1.0000
  P   P19       1.0  0.74554  0.16557  0.41395  1.0000
  C   C552      1.0  0.73510  0.13162  0.43724  1.0000
  C   C553      1.0  0.73175  0.15964  0.36990  1.0000
  C   C554      1.0  0.74855  0.16002  0.34031  1.0000
  C   C555      1.0  0.73789  0.15634  0.30620  1.0000
  C   C556      1.0  0.71024  0.15165  0.30150  1.0000
  C   C557      1.0  0.69304  0.15014  0.33100  1.0000
  C   C558      1.0  0.70367  0.15386  0.36509  1.0000
  H   H429      1.0  0.52279  0.29522  0.31157  1.0000
  Fe  Fe37      1.0  0.84862  0.32652  0.35774  1.0000
  S   S72       1.0  0.82681  0.31156  0.30531  1.0000
  C   C559      1.0  0.67521  0.30831  0.03409  1.0000
  C   C560      1.0  0.72625  0.10672  0.41863  1.0000
  C   C561      1.0  0.78396  0.18719  0.41169  1.0000
  C   C562      1.0  0.79761  0.20930  0.38510  1.0000
  H   H430      1.0  0.56212  0.24675  0.41940  1.0000
  H   H431      1.0  0.76035  0.23243  0.33052  1.0000
  C   C563      1.0  0.80053  0.18259  0.43669  1.0000
  S   S73       1.0  0.68864  0.31494  0.07817  1.0000
  H   H432      1.0  0.73999  0.25113  0.44729  1.0000
  H   H433      1.0  0.74958  0.29797  0.22649  1.0000
  Fe  Fe38      1.0  0.50688  0.14742  0.39536  1.0000
  C   C564      1.0  0.69207  0.18324  0.47517  1.0000
  H   H434      1.0  0.76262  0.22642  0.41846  1.0000
  H   H435      1.0  0.76984  0.16314  0.34347  1.0000
  H   H436      1.0  0.75109  0.15709  0.28338  1.0000
  H   H437      1.0  0.67141  0.14602  0.32746  1.0000
  H   H438      1.0  0.68991  0.15196  0.38772  1.0000
  C   C565      1.0  0.71699  0.08041  0.43732  1.0000
  C   C566      1.0  0.69440  0.31397  0.00459  1.0000
  C   C567      1.0  0.64648  0.29855  0.02742  1.0000
  H   H439      1.0  0.84276  0.19634  0.45469  1.0000
  H   H440      1.0  0.72628  0.10746  0.38981  1.0000
  H   H441      1.0  0.78541  0.21380  0.36598  1.0000
  H   H442      1.0  0.86648  0.23477  0.40690  1.0000
  S   S74       1.0  0.64672  0.30681  0.23707  1.0000
  H   H443      1.0  0.69461  0.22374  0.48379  1.0000
  C   C568      1.0  0.56124  0.29209  0.31348  1.0000
  C   C569      1.0  0.53448  0.29359  0.36557  1.0000
  C   C570      1.0  0.71255  0.30884  0.45296  1.0000
  H   H444      1.0  0.51641  0.29501  0.37659  1.0000
  H   H445      1.0  0.59884  0.28886  0.32344  1.0000
  H   H446      1.0  0.63133  0.29410  0.04952  1.0000
  C   C571      1.0  0.73497  0.30630  0.46755  1.0000
  C   C572      1.0  0.83016  0.19973  0.43498  1.0000
  H   H447      1.0  0.59334  0.28967  0.38889  1.0000
  C   C573      1.0  0.78541  0.32808  0.31499  1.0000
  C   C574      1.0  0.79658  0.31484  0.29329  1.0000
  H   H448      1.0  0.50715  0.06141  0.47364  1.0000
  C   C575      1.0  0.53000  0.30034  0.22633  1.0000
  C   C576      1.0  0.53911  0.01941  0.45078  1.0000
  H   H449      1.0  0.74194  0.14881  0.48922  1.0000
  C   C577      1.0  0.75929  0.30614  0.25131  1.0000
  H   H450      1.0  0.55272  0.20363  0.45445  1.0000
  P   P20       1.0  0.55247  0.29556  0.43523  1.0000
  C   C578      1.0  0.55702  0.27575  0.21595  1.0000
  H   H451      1.0  0.57637  0.27598  0.20639  1.0000
  H   H452      1.0  0.78761  0.27474  0.36554  1.0000
  H   H453      1.0  0.79181  0.29363  0.24430  1.0000
  S   S75       1.0  0.71888  0.32432  0.26189  1.0000
  C   C579      1.0  0.54854  0.14553  0.49827  1.0000
  H   H454      1.0  0.79077  0.16610  0.45786  1.0000
  H   H455      1.0  0.52171  0.21880  0.31439  1.0000
  C   C580      1.0  0.49666  0.28296  0.45442  1.0000
  C   C581      1.0  0.74812  0.31925  0.27330  1.0000
  C   C582      1.0  0.50930  0.24987  0.24401  1.0000
  H   H456      1.0  0.81720  0.24306  0.48089  1.0000
  H   H457      1.0  0.73119  0.28642  0.48090  1.0000
  C   C583      1.0  0.73502  0.12983  0.47455  1.0000
  H   H458      1.0  0.70904  0.05844  0.48915  1.0000
  H   H459      1.0  0.49619  0.15704  0.18133  1.0000
  C   C584      1.0  0.59748  0.32407  0.47988  1.0000
  H   H460      1.0  0.52850  0.31979  0.22469  1.0000
  C   C585      1.0  0.58660  0.32428  0.44638  1.0000
  H   H461      1.0  0.57242  0.32018  0.20130  1.0000
  C   C586      1.0  0.53323  0.25776  0.49532  1.0000
  C   C587      1.0  0.79779  0.23580  0.49727  1.0000
  C   C588      1.0  0.72565  0.10358  0.49319  1.0000
  H   H462      1.0  0.77996  0.32769  0.47605  1.0000
  H   H463      1.0  0.73038  0.29345  0.77273  1.0000
  Fe  Fe39      1.0  0.64258  0.14639  0.56748  1.0000
  S   S76       1.0  0.66155  0.12231  0.54090  1.0000
  S   S77       1.0  0.62733  0.17139  0.53340  1.0000
  Fe  Fe40      1.0  0.65608  0.13320  0.64100  1.0000
  S   S78       1.0  0.67610  0.10754  0.62024  1.0000
  S   S79       1.0  0.65308  0.14113  0.69932  1.0000
  Fe  Fe41      1.0  0.69698  0.14367  0.57796  1.0000
  C   C589      1.0  0.71829  0.25324  0.74974  1.0000
  Fe  Fe42      1.0  0.63862  0.08802  0.58485  1.0000
  S   S80       1.0  0.61012  0.04350  0.56447  1.0000
  S   S81       1.0  0.67958  0.17017  0.60143  1.0000
  S   S82       1.0  0.61734  0.11123  0.60906  1.0000
  C   C590      1.0  0.56644  0.23644  0.71390  1.0000
  H   H464      1.0  0.71389  0.24151  0.77528  1.0000
  C   C591      1.0  0.53614  0.30528  0.71498  1.0000
  Fe  Fe43      1.0  0.65679  0.30385  0.85766  1.0000
  S   S83       1.0  0.68390  0.28949  0.82616  1.0000
  C   C592      1.0  0.81701  0.32214  0.58454  1.0000
  Fe  Fe44      1.0  0.65062  0.27600  0.78485  1.0000
  S   S84       1.0  0.63563  0.24584  0.73963  1.0000
  S   S85       1.0  0.62163  0.28657  0.81801  1.0000
  C   C593      1.0  0.65653  0.30051  0.96250  1.0000
  H   H465      1.0  0.88106  0.20729  0.76545  1.0000
  C   C594      1.0  0.53846  0.01538  0.52504  1.0000
  C   C595      1.0  0.59839  0.00763  0.58073  1.0000
  C   C596      1.0  0.59476  0.23169  0.53879  1.0000
  H   H466      1.0  0.62147  0.01802  0.62870  1.0000
  C   C597      1.0  0.79247  0.28430  0.73360  1.0000
  C   C598      1.0  0.65002  0.17134  0.71041  1.0000
  C   C599      1.0  0.64811  0.18930  0.68396  1.0000
  C   C600      1.0  0.64421  0.21232  0.69346  1.0000
  C   C601      1.0  0.64332  0.21834  0.72938  1.0000
  C   C602      1.0  0.64624  0.20104  0.75587  1.0000
  C   C603      1.0  0.64925  0.17741  0.74639  1.0000
  H   H467      1.0  0.64899  0.18513  0.65619  1.0000
  H   H468      1.0  0.64180  0.22552  0.67289  1.0000
  H   H469      1.0  0.64510  0.20525  0.78363  1.0000
  H   H470      1.0  0.65055  0.16356  0.76704  1.0000
  C   C604      1.0  0.73220  0.29747  0.71538  1.0000
  C   C605      1.0  0.77374  0.23964  0.62480  1.0000
  C   C606      1.0  0.53879  0.20762  0.66647  1.0000
  C   C607      1.0  0.82470  0.25817  0.62473  1.0000
  C   C608      1.0  0.57275  0.13224  0.55580  1.0000
  H   H471      1.0  0.51023  0.09218  0.65334  1.0000
  C   C609      1.0  0.70272  0.25740  0.59589  1.0000
  H   H472      1.0  0.72733  0.20897  0.55464  1.0000
  H   H473      1.0  0.72527  0.10254  0.52213  1.0000
  C   C610      1.0  0.52202  0.13590  0.63891  1.0000
  C   C611      1.0  0.60703  0.00102  0.61288  1.0000
  C   C612      1.0  0.52757  0.11369  0.64870  1.0000
  H   H474      1.0  0.57225  0.18967  0.56436  1.0000
  C   C613      1.0  0.57813  0.16038  0.50153  1.0000
  H   H475      1.0  0.70719  0.21643  0.71933  1.0000
  C   C614      1.0  0.84840  0.24667  0.74597  1.0000
  C   C615      1.0  0.59030  0.15334  0.53000  1.0000
  H   H476      1.0  0.55931  0.06239  0.62145  1.0000
  C   C616      1.0  0.79554  0.30804  0.75136  1.0000
  H   H477      1.0  0.58181  0.12729  0.57827  1.0000
  H   H478      1.0  0.85324  0.26875  0.74315  1.0000
  H   H479      1.0  0.50015  0.13127  0.63697  1.0000
  C   C617      1.0  0.51604  0.03679  0.60653  1.0000
  C   C618      1.0  0.86432  0.21212  0.75848  1.0000
  C   C619      1.0  0.78556  0.25351  0.50076  1.0000
  H   H480      1.0  0.71443  0.24223  0.66137  1.0000
  C   C620      1.0  0.56346  0.21951  0.59196  1.0000
  H   H481      1.0  0.52814  0.27290  0.50753  1.0000
  C   C621      1.0  0.72727  0.28240  0.74829  1.0000
  H   H482      1.0  0.78680  0.31566  0.66731  1.0000
  C   C622      1.0  0.53110  0.12427  0.52413  1.0000
  C   C623      1.0  0.57797  0.14706  0.64726  1.0000
  C   C624      1.0  0.80849  0.29080  0.80426  1.0000
  C   C625      1.0  0.80584  0.26725  0.78640  1.0000
  C   C626      1.0  0.79801  0.26397  0.75078  1.0000
  H   H483      1.0  0.59659  0.31487  0.89168  1.0000
  P   P21       1.0  0.79318  0.23284  0.72829  1.0000
  H   H484      1.0  0.75473  0.23417  0.61043  1.0000
  C   C627      1.0  0.82090  0.22458  0.74032  1.0000
  H   H485      1.0  0.51703  0.22819  0.54125  1.0000
  H   H486      1.0  0.49604  0.20069  0.73931  1.0000
  C   C628      1.0  0.81544  0.19619  0.74373  1.0000
  H   H487      1.0  0.53960  0.01357  0.55357  1.0000
  C   C629      1.0  0.77167  0.23419  0.66172  1.0000
  C   C630      1.0  0.59982  0.25983  0.53872  1.0000
  C   C631      1.0  0.57258  0.16929  0.63713  1.0000
  C   C632      1.0  0.68520  0.31000  0.96922  1.0000
  C   C633      1.0  0.75854  0.20299  0.74096  1.0000
  C   C634      1.0  0.74327  0.20306  0.77192  1.0000
  C   C635      1.0  0.71626  0.18010  0.78104  1.0000
  C   C636      1.0  0.70438  0.15688  0.75949  1.0000
  C   C637      1.0  0.71944  0.15658  0.72877  1.0000
  C   C638      1.0  0.74643  0.17946  0.71953  1.0000
  C   C639      1.0  0.57658  0.21156  0.56527  1.0000
  S   S86       1.0  0.49651  0.28132  0.59685  1.0000
  H   H488      1.0  0.55992  0.10221  0.66089  1.0000
  H   H489      1.0  0.80945  0.25140  0.80054  1.0000
  S   S87       1.0  0.64337  0.29529  0.91822  1.0000
  C   C640      1.0  0.58055  0.31872  0.62498  1.0000
  H   H490      1.0  0.83266  0.32618  0.63734  1.0000
  H   H491      1.0  0.79458  0.17869  0.73937  1.0000
  H   H492      1.0  0.75089  0.22471  0.67540  1.0000
  H   H493      1.0  0.73966  0.32015  0.71527  1.0000
  C   C641      1.0  0.57190  0.30670  0.75516  1.0000
  H   H494      1.0  0.75182  0.22086  0.78889  1.0000
  H   H495      1.0  0.70424  0.18042  0.80451  1.0000
  H   H496      1.0  0.68315  0.13934  0.76603  1.0000
  H   H497      1.0  0.70974  0.13881  0.71164  1.0000
  H   H498      1.0  0.75763  0.17887  0.69540  1.0000
  H   H499      1.0  0.58974  0.28938  0.56460  1.0000
  C   C642      1.0  0.86998  0.24043  0.75506  1.0000
  C   C643      1.0  0.75925  0.19863  0.53591  1.0000
  C   C644      1.0  0.54159  0.22699  0.73538  1.0000
  C   C645      1.0  0.58654  0.26780  0.56505  1.0000
  C   C646      1.0  0.54320  0.11792  0.55308  1.0000
  H   H500      1.0  0.52971  0.10183  0.57330  1.0000
  H   H501      1.0  0.58677  0.25096  0.72424  1.0000
  H   H502      1.0  0.67985  0.22090  0.56460  1.0000
  H   H503      1.0  0.83271  0.16807  0.75533  1.0000
  C   C647      1.0  0.79609  0.24038  0.68050  1.0000
  C   C648      1.0  0.72720  0.28321  0.68352  1.0000
  C   C649      1.0  0.71445  0.23914  0.71821  1.0000
  H   H504      1.0  0.50673  0.15033  0.57209  1.0000
  H   H505      1.0  0.80173  0.25536  0.57755  1.0000
  C   C650      1.0  0.71857  0.25394  0.68526  1.0000
  H   H506      1.0  0.84517  0.26725  0.61020  1.0000
  C   C651      1.0  0.67877  0.23733  0.57949  1.0000
  H   H507      1.0  0.79467  0.19518  0.51312  1.0000
  C   C652      1.0  0.83708  0.19004  0.75279  1.0000
  H   H508      1.0  0.81420  0.29309  0.83186  1.0000
  C   C653      1.0  0.80335  0.31119  0.78673  1.0000
  C   C654      1.0  0.54431  0.29254  0.74226  1.0000
  H   H509      1.0  0.72203  0.25576  0.59396  1.0000
  H   H510      1.0  0.58481  0.23367  0.66386  1.0000
  C   C655      1.0  0.49465  0.16114  0.57817  1.0000
  H   H511      1.0  0.61507  0.28727  0.98746  1.0000
  C   C656      1.0  0.80021  0.25150  0.60627  1.0000
  C   C657      1.0  0.82271  0.25272  0.66172  1.0000
  S   S88       1.0  0.74341  0.16435  0.55814  1.0000
  C   C658      1.0  0.54580  0.01766  0.62840  1.0000
  H   H512      1.0  0.63424  0.22100  0.57214  1.0000
  C   C659      1.0  0.56825  0.24765  0.59141  1.0000
  P   P22       1.0  0.53749  0.19309  0.62362  1.0000
  C   C660      1.0  0.56515  0.22673  0.67961  1.0000
  C   C661      1.0  0.76045  0.24385  0.52227  1.0000
  H   H513      1.0  0.56614  0.02101  0.63752  1.0000
  C   C662      1.0  0.54455  0.16379  0.63224  1.0000
  C   C663      1.0  0.78489  0.20862  0.51531  1.0000
  H   H514      1.0  0.55716  0.25378  0.61075  1.0000
  H   H515      1.0  0.52913  0.27159  0.75345  1.0000
  H   H516      1.0  0.56403  0.28413  0.66522  1.0000
  H   H517      1.0  0.63111  0.25830  0.60654  1.0000
  H   H518      1.0  0.78520  0.28149  0.70680  1.0000
  H   H519      1.0  0.84194  0.25791  0.67534  1.0000
  C   C664      1.0  0.65128  0.25844  0.60291  1.0000
  H   H520      1.0  0.54281  0.23440  0.76206  1.0000
  H   H521      1.0  0.52907  0.19331  0.51483  1.0000
  H   H522      1.0  0.51360  0.05521  0.59955  1.0000
  H   H523      1.0  0.57789  0.29651  0.77604  1.0000
  C   C665      1.0  0.70128  0.27842  0.61584  1.0000
  H   H524      1.0  0.89114  0.25756  0.75936  1.0000
  C   C666      1.0  0.65297  0.23755  0.58348  1.0000
  C   C667      1.0  0.55554  0.11928  0.65289  1.0000
  C   C668      1.0  0.52715  0.23256  0.51475  1.0000
  C   C669      1.0  0.54196  0.04101  0.61925  1.0000
  C   C670      1.0  0.51390  0.19791  0.68843  1.0000
  C   C671      1.0  0.74702  0.21634  0.53903  1.0000
  H   H525      1.0  0.59955  0.15129  0.65100  1.0000
  C   C672      1.0  0.60985  0.30816  0.66386  1.0000
  C   C673      1.0  0.51530  0.20790  0.72258  1.0000
  C   C674      1.0  0.67534  0.27888  0.61893  1.0000
  H   H526      1.0  0.74995  0.30701  0.56510  1.0000
  H   H527      1.0  0.61179  0.29539  0.68554  1.0000
  Fe  Fe45      1.0  0.51521  0.32607  0.57409  1.0000
  P   P23       1.0  0.73138  0.30192  0.64078  1.0000
  H   H528      1.0  0.59027  0.19078  0.63377  1.0000
  H   H529      1.0  0.79601  0.31818  0.53559  1.0000
  C   C675      1.0  0.68396  0.32682  0.54774  1.0000
  C   C676      1.0  0.78823  0.31480  0.63870  1.0000
  C   C677      1.0  0.58301  0.30180  0.65237  1.0000
  H   H530      1.0  0.57057  0.05955  0.52098  1.0000
  C   C678      1.0  0.50412  0.18244  0.60291  1.0000
  H   H531      1.0  0.67321  0.29428  0.63455  1.0000
  C   C679      1.0  0.76437  0.30824  0.61868  1.0000
  S   S89       1.0  0.50153  0.28595  0.69867  1.0000
  H   H532      1.0  0.70029  0.31406  0.94720  1.0000
  H   H533      1.0  0.75088  0.25743  0.52520  1.0000
  H   H534      1.0  0.60453  0.22518  0.51808  1.0000
  H   H535      1.0  0.50503  0.04908  0.53746  1.0000
  C   C680      1.0  0.79366  0.31680  0.56439  1.0000
  C   C681      1.0  0.53402  0.21300  0.49998  1.0000
  H   H536      1.0  0.67251  0.30600  0.53698  1.0000
  H   H537      1.0  0.61350  0.27526  0.51788  1.0000
  S   S90       1.0  0.67194  0.31872  0.75552  1.0000
  C   C682      1.0  0.76751  0.31020  0.58128  1.0000
  H   H538      1.0  0.79104  0.32367  0.73816  1.0000
  C   C683      1.0  0.81437  0.32134  0.62173  1.0000
  C   C684      1.0  0.55630  0.04132  0.50650  1.0000
  H   H539      1.0  0.83723  0.32733  0.57118  1.0000
  H   H540      1.0  0.64604  0.32658  0.56752  1.0000
  C   C685      1.0  0.63731  0.29475  0.99201  1.0000
  C   C686      1.0  0.49366  0.00908  0.60257  1.0000
  S   S91       1.0  0.49418  0.10557  0.52093  1.0000
  H   H541      1.0  0.69563  0.31886  0.68303  1.0000
  H   H542      1.0  0.55969  0.31387  0.61618  1.0000
  H   H543      1.0  0.49659  0.21497  0.62579  1.0000
  H   H544      1.0  0.58522  0.30722  0.49997  1.0000
  H   H545      1.0  0.49345  0.18237  0.67949  1.0000
  H   H546      1.0  0.75260  0.33989  0.32259  1.0000
  S   S92       1.0  0.89194  0.36479  0.36342  1.0000
  C   C687      1.0  0.51954  0.45031  0.38813  1.0000
  C   C688      1.0  0.72324  0.51175  0.47974  1.0000
  H   H547      1.0  0.70816  0.46796  0.36692  1.0000
  C   C689      1.0  0.62838  0.37006  0.43051  1.0000
  Fe  Fe46      1.0  0.87023  0.37368  0.40893  1.0000
  S   S93       1.0  0.88015  0.41806  0.41900  1.0000
  S   S94       1.0  0.87898  0.34893  0.45091  1.0000
  H   H548      1.0  0.72922  0.46313  0.45983  1.0000
  H   H549      1.0  0.79786  0.56305  0.21274  1.0000
  H   H550      1.0  0.98239  0.57392  0.44703  1.0000
  C   C690      1.0  0.89430  0.53152  0.46062  1.0000
  H   H551      1.0  0.79532  0.33672  0.33941  1.0000
  S   S95       1.0  0.63887  0.37267  0.19836  1.0000
  H   H552      1.0  0.50524  0.64538  0.23910  1.0000
  H   H553      1.0  0.77436  0.37402  0.24512  1.0000
  Fe  Fe47      1.0  0.62320  0.47990  0.43385  1.0000
  S   S96       1.0  0.65590  0.52510  0.41946  1.0000
  H   H554      1.0  0.83842  0.37156  0.46504  1.0000
  Fe  Fe48      1.0  0.63379  0.45698  0.36578  1.0000
  S   S97       1.0  0.66691  0.50090  0.34447  1.0000
  S   S98       1.0  0.62065  0.41168  0.35031  1.0000
  Fe  Fe49      1.0  0.68329  0.50676  0.39979  1.0000
  S   S99       1.0  0.73038  0.52261  0.40674  1.0000
  Fe  Fe50      1.0  0.63693  0.51637  0.36574  1.0000
  S   S100      1.0  0.63127  0.55212  0.33829  1.0000
  S   S101      1.0  0.65237  0.46246  0.41967  1.0000
  S   S102      1.0  0.60239  0.47181  0.38165  1.0000
  Fe  Fe51      1.0  0.52365  0.62300  0.38303  1.0000
  C   C691      1.0  0.98989  0.54450  0.48024  1.0000
  S   S103      1.0  0.53817  0.58898  0.38449  1.0000
  H   H555      1.0  0.50136  0.56438  0.26522  1.0000
  H   H556      1.0  0.76305  0.51496  0.23747  1.0000
  C   C692      1.0  0.60564  0.56251  0.35186  1.0000
  C   C693      1.0  0.61040  0.59021  0.34239  1.0000
  C   C694      1.0  0.59027  0.59897  0.35223  1.0000
  C   C695      1.0  0.56487  0.57990  0.37121  1.0000
  C   C696      1.0  0.56002  0.55215  0.38002  1.0000
  C   C697      1.0  0.58023  0.54351  0.37071  1.0000
  H   H557      1.0  0.62981  0.60501  0.32741  1.0000
  H   H558      1.0  0.70873  0.45816  0.21951  1.0000
  H   H559      1.0  0.54050  0.53725  0.39440  1.0000
  H   H560      1.0  0.57601  0.52206  0.37792  1.0000
  C   C698      1.0  0.77024  0.52623  0.45362  1.0000
  C   C699      1.0  0.74191  0.52009  0.44964  1.0000
  H   H561      1.0  0.78474  0.53249  0.43038  1.0000
  C   C700      1.0  0.63412  0.38331  0.24090  1.0000
  C   C701      1.0  0.63894  0.41127  0.24446  1.0000
  C   C702      1.0  0.63507  0.42036  0.27782  1.0000
  C   C703      1.0  0.62556  0.40127  0.30774  1.0000
  C   C704      1.0  0.62024  0.37315  0.30412  1.0000
  C   C705      1.0  0.62472  0.36424  0.27090  1.0000
  H   H562      1.0  0.64564  0.42599  0.22134  1.0000
  H   H563      1.0  0.63911  0.44201  0.28031  1.0000
  H   H564      1.0  0.61264  0.35818  0.32710  1.0000
  H   H565      1.0  0.62044  0.34253  0.26837  1.0000
  H   H566      1.0  0.72723  0.57135  0.36846  1.0000
  C   C706      1.0  0.54641  0.62998  0.29284  1.0000
  C   C707      1.0  0.86134  0.41740  0.45801  1.0000
  C   C708      1.0  0.86592  0.44298  0.47190  1.0000
  C   C709      1.0  0.83300  0.52732  0.18839  1.0000
  H   H567      1.0  0.88103  0.46307  0.45849  1.0000
  C   C710      1.0  0.97747  0.37090  0.40587  1.0000
  H   H568      1.0  0.69006  0.41293  0.12365  1.0000
  H   H569      1.0  0.66056  0.37622  0.36429  1.0000
  C   C711      1.0  0.60723  0.58829  0.45146  1.0000
  H   H570      1.0  0.96502  0.38944  0.36291  1.0000
  C   C712      1.0  0.51337  0.63265  0.25215  1.0000
  C   C713      1.0  0.74739  0.48509  0.33487  1.0000
  C   C714      1.0  0.71860  0.46614  0.34278  1.0000
  S   S104      1.0  0.94256  0.34209  0.41764  1.0000
  C   C715      1.0  0.50415  0.48134  0.41501  1.0000
  C   C716      1.0  0.91392  0.53613  0.40051  1.0000
  H   H571      1.0  0.80179  0.52916  0.49041  1.0000
  C   C717      1.0  0.69412  0.37704  0.02358  1.0000
  H   H572      1.0  0.60278  0.42379  0.45412  1.0000
  C   C718      1.0  0.49830  0.55866  0.18891  1.0000
  H   H573      1.0  0.73520  0.41094  0.12595  1.0000
  H   H574      1.0  0.51510  0.36231  0.45362  1.0000
  H   H575      1.0  0.81936  0.39706  0.27630  1.0000
  C   C719      1.0  0.78272  0.51825  0.22430  1.0000
  C   C720      1.0  0.97065  0.49694  0.43183  1.0000
  H   H576      1.0  0.70126  0.50640  0.47680  1.0000
  H   H577      1.0  0.65953  0.38688  0.47020  1.0000
  C   C721      1.0  0.71797  0.58190  0.38372  1.0000
  C   C722      1.0  0.84199  0.39140  0.47558  1.0000
  H   H578      1.0  0.76717  0.43220  0.17493  1.0000
  H   H579      1.0  0.81778  0.48254  0.19873  1.0000
  C   C723      1.0  0.58045  0.53684  0.45961  1.0000
  C   C724      1.0  0.73350  0.65890  0.47619  1.0000
  C   C725      1.0  0.98264  0.39089  0.37769  1.0000
  H   H580      1.0  0.68098  0.43022  0.32590  1.0000
  C   C726      1.0  0.70970  0.59781  0.44041  1.0000
  H   H581      1.0  0.81097  0.61250  0.47816  1.0000
  C   C727      1.0  0.70322  0.44497  0.31946  1.0000
  H   H582      1.0  0.84261  0.57118  0.18116  1.0000
  C   C728      1.0  0.50102  0.60324  0.24778  1.0000
  H   H583      1.0  0.78307  0.49795  0.29782  1.0000
  H   H584      1.0  0.70412  0.42593  0.27056  1.0000
  H   H585      1.0  0.87882  0.54349  0.41442  1.0000
  C   C729      1.0  0.78842  0.49544  0.22122  1.0000
  C   C730      1.0  0.93382  0.52865  0.41328  1.0000
  H   H586      1.0  0.67747  0.43716  0.16978  1.0000
  C   C731      1.0  0.83419  0.45240  0.38192  1.0000
  C   C732      1.0  0.84492  0.43675  0.36449  1.0000
  C   C733      1.0  0.82741  0.40765  0.36045  1.0000
  C   C734      1.0  0.79923  0.39411  0.37415  1.0000
  C   C735      1.0  0.78837  0.40957  0.39220  1.0000
  C   C736      1.0  0.80593  0.43895  0.39550  1.0000
  P   P24       1.0  0.75229  0.39161  0.41129  1.0000
  C   C737      1.0  0.72739  0.38568  0.37677  1.0000
  C   C738      1.0  0.74535  0.35792  0.43263  1.0000
  C   C739      1.0  0.55801  0.56529  0.47402  1.0000
  H   H587      1.0  0.73435  0.57592  0.43265  1.0000
  C   C740      1.0  0.71769  0.33455  0.43547  1.0000
  C   C741      1.0  0.60220  0.34759  0.42180  1.0000
  C   C742      1.0  0.76764  0.35517  0.44764  1.0000
  C   C743      1.0  0.70019  0.38232  0.38515  1.0000
  C   C744      1.0  0.68124  0.37807  0.35820  1.0000
  C   C745      1.0  0.68883  0.37600  0.32306  1.0000
  C   C746      1.0  0.71539  0.37847  0.31470  1.0000
  C   C747      1.0  0.73477  0.38367  0.34122  1.0000
  C   C748      1.0  0.74980  0.41311  0.44574  1.0000
  C   C749      1.0  0.73908  0.43197  0.43867  1.0000
  C   C750      1.0  0.73757  0.44870  0.46542  1.0000
  H   H588      1.0  0.55206  0.35005  0.43680  1.0000
  Fe  Fe52      1.0  0.50332  0.66144  0.34559  1.0000
  C   C751      1.0  0.76063  0.41268  0.47930  1.0000
  H   H589      1.0  0.84803  0.47477  0.38586  1.0000
  H   H590      1.0  0.86711  0.44688  0.35523  1.0000
  H   H591      1.0  0.83603  0.39540  0.34778  1.0000
  H   H592      1.0  0.78612  0.37145  0.37137  1.0000
  H   H593      1.0  0.79820  0.45143  0.40929  1.0000
  H   H594      1.0  0.66381  0.35861  0.06837  1.0000
  H   H595      1.0  0.93252  0.37944  0.48427  1.0000
  C   C752      1.0  0.53341  0.45016  0.41896  1.0000
  H   H596      1.0  0.63952  0.38861  0.41214  1.0000
  H   H597      1.0  0.78910  0.37293  0.44620  1.0000
  H   H598      1.0  0.69366  0.38314  0.41240  1.0000
  H   H599      1.0  0.94927  0.52814  0.39461  1.0000
  H   H600      1.0  0.70013  0.33611  0.42426  1.0000
  H   H601      1.0  0.72083  0.37606  0.28756  1.0000
  H   H602      1.0  0.75531  0.38584  0.33364  1.0000
  H   H603      1.0  0.73238  0.43431  0.41241  1.0000
  H   H604      1.0  0.59377  0.34902  0.39635  1.0000
  C   C753      1.0  0.55600  0.53836  0.47073  1.0000
  C   C754      1.0  0.76247  0.32950  0.46489  1.0000
  C   C755      1.0  0.77992  0.52426  0.48754  1.0000
  C   C756      1.0  0.58973  0.41560  0.47840  1.0000
  H   H605      1.0  0.57994  0.51653  0.45760  1.0000
  C   C757      1.0  0.60585  0.56169  0.44975  1.0000
  H   H606      1.0  0.74859  0.40010  0.23071  1.0000
  H   H607      1.0  0.62491  0.36084  0.03668  1.0000
  H   H608      1.0  0.81486  0.47493  0.27562  1.0000
  C   C758      1.0  0.72964  0.42142  0.14639  1.0000
  C   C759      1.0  0.69199  0.60677  0.42378  1.0000
  H   H609      1.0  0.75921  0.50151  0.35311  1.0000
  C   C760      1.0  0.70432  0.42269  0.14491  1.0000
  C   C761      1.0  0.71473  0.44768  0.19961  1.0000
  C   C762      1.0  0.58342  0.59009  0.46399  1.0000
  C   C763      1.0  0.81345  0.50004  0.20259  1.0000
  C   C764      1.0  0.68747  0.60343  0.38739  1.0000
  C   C765      1.0  0.50464  0.46564  0.38631  1.0000
  C   C766      1.0  0.79129  0.60394  0.49435  1.0000
  C   C767      1.0  0.66754  0.36750  0.04110  1.0000
  C   C768      1.0  0.62386  0.34646  0.48831  1.0000
  P   P25       1.0  0.95960  0.51259  0.46651  1.0000
  C   C769      1.0  0.80232  0.54550  0.21011  1.0000
  C   C770      1.0  0.53288  0.46578  0.44762  1.0000
  C   C771      1.0  0.72220  0.58481  0.42023  1.0000
  C   C772      1.0  0.82750  0.55006  0.19228  1.0000
  C   C773      1.0  0.69716  0.43627  0.17112  1.0000
  C   C774      1.0  0.89413  0.53752  0.42418  1.0000
  C   C775      1.0  0.74744  0.43308  0.17460  1.0000
  C   C776      1.0  0.49953  0.53590  0.17353  1.0000
  C   C777      1.0  0.63941  0.36929  0.46349  1.0000
  H   H610      1.0  0.85233  0.53077  0.17412  1.0000
  H   H611      1.0  0.83964  0.44771  0.29135  1.0000
  C   C778      1.0  0.76071  0.48311  0.30339  1.0000
  H   H612      1.0  0.71084  0.37550  0.03743  1.0000
  H   H613      1.0  0.56356  0.64016  0.31077  1.0000
  C   C779      1.0  0.64559  0.36853  0.02311  1.0000
  H   H614      1.0  0.87931  0.53301  0.47917  1.0000
  H   H615      1.0  0.59437  0.62036  0.34505  1.0000
  C   C780      1.0  0.78308  0.39601  0.25193  1.0000
  C   C781      1.0  0.80855  0.40910  0.26934  1.0000
  C   C782      1.0  0.81990  0.43756  0.27782  1.0000
  C   C783      1.0  0.80586  0.45294  0.26869  1.0000
  C   C784      1.0  0.78053  0.44003  0.25049  1.0000
  C   C785      1.0  0.76877  0.41115  0.24319  1.0000
  P   P26       1.0  0.76272  0.46018  0.23865  1.0000
  C   C786      1.0  0.73957  0.44529  0.20223  1.0000
  C   C787      1.0  0.74515  0.46233  0.27927  1.0000
  C   C788      1.0  0.71642  0.44282  0.28796  1.0000
  H   H616      1.0  0.91398  0.54106  0.37228  1.0000
  C   C789      1.0  0.58160  0.43267  0.49727  1.0000
  C   C790      1.0  0.95008  0.47643  0.41123  1.0000
  H   H617      1.0  0.58430  0.61068  0.46482  1.0000
  H   H618      1.0  0.69631  0.58779  0.33936  1.0000
  H   H619      1.0  0.51993  0.53806  0.16475  1.0000
  H   H620      1.0  0.93095  0.44935  0.47502  1.0000
  H   H621      1.0  0.67411  0.37232  0.30219  1.0000
  H   H622      1.0  0.94147  0.44600  0.37118  1.0000
  C   C791      1.0  0.51865  0.48188  0.44580  1.0000
  C   C792      1.0  0.95778  0.46258  0.38595  1.0000
  C   C793      1.0  0.70057  0.59114  0.36733  1.0000
  C   C794      1.0  0.51124  0.58727  0.26688  1.0000
  C   C795      1.0  0.93378  0.52208  0.44985  1.0000
  P   P27       1.0  0.71357  0.60046  0.48791  1.0000
  H   H623      1.0  0.62418  0.56017  0.43969  1.0000
  C   C796      1.0  0.53088  0.33307  0.44433  1.0000
  H   H624      1.0  0.51082  0.40549  0.47654  1.0000
  H   H625      1.0  0.54517  0.43847  0.42053  1.0000
  H   H626      1.0  0.51789  0.57836  0.19163  1.0000
  H   H627      1.0  0.77054  0.39965  0.48507  1.0000
  C   C797      1.0  0.95273  0.39715  0.49052  1.0000
  S   S105      1.0  0.69291  0.34649  0.17256  1.0000
  H   H628      1.0  0.52063  0.43881  0.36554  1.0000
  C   C798      1.0  0.58160  0.38791  0.49149  1.0000
  H   H629      1.0  0.96374  0.41381  0.43610  1.0000
  H   H630      1.0  0.50693  0.54151  0.43522  1.0000
  H   H631      1.0  0.67308  0.60948  0.37479  1.0000
  H   H632      1.0  0.62654  0.60744  0.44248  1.0000
  H   H633      1.0  0.77162  0.62022  0.45816  1.0000
  C   C799      1.0  0.76882  0.60799  0.48295  1.0000
  Fe  Fe53      1.0  0.64898  0.33646  0.19225  1.0000
  C   C800      1.0  0.91400  0.52383  0.47345  1.0000
  S   S106      1.0  0.59564  0.46870  0.48412  1.0000
  H   H634      1.0  0.92791  0.47078  0.41530  1.0000
  H   H635      1.0  0.68118  0.61576  0.43907  1.0000
  S   S107      1.0  0.50169  0.62332  0.43472  1.0000
  C   C801      1.0  0.97047  0.41650  0.46329  1.0000
  H   H636      1.0  0.54152  0.58819  0.30407  1.0000
  H   H637      1.0  0.54429  0.46592  0.47092  1.0000
  C   C802      1.0  0.53396  0.60065  0.28906  1.0000
  H   H638      1.0  0.58890  0.37523  0.47767  1.0000
  C   C803      1.0  0.50973  0.34013  0.45343  1.0000
  C   C804      1.0  0.98633  0.46970  0.38030  1.0000
  P   P28       1.0  0.52262  0.50590  0.48052  1.0000
  H   H639      1.0  0.73900  0.65660  0.44902  1.0000
  H   H640      1.0  0.53993  0.56737  0.48349  1.0000
  Fe  Fe54      1.0  0.89915  0.33805  0.40505  1.0000
  S   S108      1.0  0.82679  0.33831  0.40001  1.0000
  C   C805      1.0  0.53612  0.64596  0.27441  1.0000
  C   C806      1.0  0.76118  0.32993  0.30529  1.0000
  H   H641      1.0  0.49324  0.49372  0.41240  1.0000
  H   H642      1.0  0.68017  0.43958  0.49132  1.0000
  H   H643      1.0  0.49415  0.46607  0.36226  1.0000
  C   C807      1.0  0.74761  0.44749  0.49901  1.0000
  H   H644      1.0  0.99230  0.45877  0.36093  1.0000
  C   C808      1.0  0.50829  0.46070  0.53063  1.0000
  C   C809      1.0  0.89915  0.47586  0.70393  1.0000
  S   S109      1.0  0.74956  0.35551  0.77878  1.0000
  S   S110      1.0  0.67783  0.34834  0.83090  1.0000
  Fe  Fe55      1.0  0.82499  0.45940  0.57742  1.0000
  S   S111      1.0  0.83976  0.49945  0.54273  1.0000
  S   S112      1.0  0.81205  0.41562  0.55938  1.0000
  Fe  Fe56      1.0  0.82458  0.48752  0.64527  1.0000
  S   S113      1.0  0.84065  0.53051  0.61644  1.0000
  S   S114      1.0  0.80804  0.47963  0.70291  1.0000
  Fe  Fe57      1.0  0.80866  0.50670  0.57580  1.0000
  H   H645      1.0  0.81165  0.37091  0.52007  1.0000
  Fe  Fe58      1.0  0.87093  0.51981  0.58592  1.0000
  S   S115      1.0  0.91669  0.55161  0.56586  1.0000
  S   S116      1.0  0.79131  0.46472  0.60660  1.0000
  S   S117      1.0  0.85750  0.47883  0.61856  1.0000
  C   C810      1.0  0.94975  0.56069  0.58530  1.0000
  C   C811      1.0  0.97512  0.58281  0.56883  1.0000
  C   C812      1.0  0.95148  0.54633  0.61619  1.0000
  H   H646      1.0  0.97411  0.59398  0.54482  1.0000
  H   H647      1.0  0.93225  0.52923  0.62916  1.0000
  C   C813      1.0  0.71095  0.39889  0.90066  1.0000
  C   C814      1.0  0.75663  0.36134  0.63276  1.0000
  C   C815      1.0  0.74037  0.58132  0.53600  1.0000
  C   C816      1.0  0.91604  0.43863  0.52953  1.0000
  H   H648      1.0  0.85947  0.47669  0.70522  1.0000
  H   H649      1.0  0.55995  0.50821  0.60005  1.0000
  H   H650      1.0  0.61370  0.56264  0.53344  1.0000
  C   C817      1.0  0.76335  0.38877  0.75468  1.0000
  C   C818      1.0  0.78660  0.39736  0.73013  1.0000
  C   C819      1.0  0.79943  0.42464  0.71259  1.0000
  C   C820      1.0  0.78984  0.44395  0.72065  1.0000
  C   C821      1.0  0.76644  0.43526  0.74501  1.0000
  C   C822      1.0  0.75277  0.40752  0.76129  1.0000
  H   H651      1.0  0.79475  0.38288  0.72472  1.0000
  H   H652      1.0  0.81729  0.43098  0.69370  1.0000
  H   H653      1.0  0.75896  0.45009  0.75146  1.0000
  H   H654      1.0  0.73476  0.40100  0.78001  1.0000
  C   C823      1.0  0.65754  0.57948  0.51491  1.0000
  S   S118      1.0  0.77306  0.51614  0.56124  1.0000
  C   C824      1.0  0.59136  0.33423  0.74163  1.0000
  H   H655      1.0  0.86756  0.58734  0.82431  1.0000
  C   C825      1.0  0.63274  0.35332  0.90692  1.0000
  C   C826      1.0  0.75994  0.38783  0.64134  1.0000
  H   H656      1.0  0.74521  0.50370  0.94187  1.0000
  H   H657      1.0  0.87235  0.54359  0.82948  1.0000
  H   H658      1.0  0.53132  0.45582  0.61274  1.0000
  C   C827      1.0  0.88435  0.55988  0.80857  1.0000
  C   C828      1.0  0.56335  0.42122  0.52777  1.0000
  C   C829      1.0  0.55411  0.39293  0.53997  1.0000
  C   C830      1.0  0.91751  0.57686  0.75671  1.0000
  H   H659      1.0  0.55680  0.43431  0.54228  1.0000
  H   H660      1.0  0.54016  0.38417  0.56363  1.0000
  C   C831      1.0  0.89698  0.60543  0.77853  1.0000
  C   C832      1.0  0.67478  0.47395  0.92578  1.0000
  C   C833      1.0  0.52947  0.46554  0.58783  1.0000
  H   H661      1.0  0.94766  0.38500  0.54652  1.0000
  C   C834      1.0  0.97817  0.55430  0.63052  1.0000
  C   C835      1.0  0.65213  0.38196  0.89736  1.0000
  C   C836      1.0  0.51086  0.44848  0.56287  1.0000
  C   C837      1.0  0.60486  0.34240  0.60959  1.0000
  C   C838      1.0  0.63184  0.34970  0.62213  1.0000
  H   H662      1.0  0.72103  0.57267  0.55283  1.0000
  P   P29       1.0  0.66389  0.38000  0.60271  1.0000
  C   C839      1.0  0.68376  0.36534  0.58001  1.0000
  C   C840      1.0  0.65656  0.40197  0.57171  1.0000
  H   H663      1.0  0.60512  0.51291  0.54245  1.0000
  C   C841      1.0  0.55565  0.33279  0.70134  1.0000
  C   C842      1.0  0.54324  0.50731  0.54828  1.0000
  C   C843      1.0  0.63283  0.42996  0.55927  1.0000
  C   C844      1.0  0.63728  0.41141  0.58202  1.0000
  C   C845      1.0  0.71365  0.38008  0.57677  1.0000
  C   C846      1.0  0.72844  0.36827  0.55912  1.0000
  H   H664      1.0  0.74312  0.41003  0.67177  1.0000
  H   H665      1.0  0.92530  0.48581  0.59265  1.0000
  C   C847      1.0  0.66906  0.33857  0.56525  1.0000
  C   C848      1.0  0.68393  0.40441  0.63619  1.0000
  C   C849      1.0  0.67523  0.39838  0.67262  1.0000
  C   C850      1.0  0.69097  0.41759  0.69792  1.0000
  C   C851      1.0  0.71501  0.44339  0.68710  1.0000
  C   C852      1.0  0.72308  0.45020  0.65090  1.0000
  C   C853      1.0  0.70755  0.43092  0.62554  1.0000
  C   C854      1.0  0.83151  0.41659  0.52074  1.0000
  C   C855      1.0  0.64941  0.39423  0.86504  1.0000
  C   C856      1.0  0.72391  0.48755  0.93623  1.0000
  H   H666      1.0  0.60223  0.35480  0.58812  1.0000
  C   C857      1.0  0.67657  0.38779  0.96938  1.0000
  C   C858      1.0  0.67219  0.41237  0.53890  1.0000
  H   H667      1.0  0.85562  0.46236  0.51465  1.0000
  H   H668      1.0  0.71864  0.50460  0.53700  1.0000
  H   H669      1.0  0.61737  0.43657  0.56695  1.0000
  H   H670      1.0  0.62569  0.40447  0.60773  1.0000
  H   H671      1.0  0.72578  0.40050  0.58806  1.0000
  H   H672      1.0  0.75152  0.37962  0.55712  1.0000
  H   H673      1.0  0.73463  0.45376  0.93695  1.0000
  C   C859      1.0  0.92258  0.59728  0.62918  1.0000
  H   H674      1.0  0.95119  0.51986  0.54189  1.0000
  H   H675      1.0  0.65626  0.37913  0.68204  1.0000
  H   H676      1.0  0.68433  0.41238  0.72598  1.0000
  H   H677      1.0  0.72734  0.45821  0.70671  1.0000
  H   H678      1.0  0.74146  0.47046  0.64245  1.0000
  H   H679      1.0  0.71400  0.43694  0.59760  1.0000
  H   H680      1.0  0.68795  0.40633  0.53081  1.0000
  C   C860      1.0  0.94193  0.49724  0.53823  1.0000
  C   C861      1.0  0.52480  0.49019  0.52288  1.0000
  C   C862      1.0  0.71512  0.63919  0.53623  1.0000
  H   H681      1.0  0.71947  0.39448  0.97487  1.0000
  C   C863      1.0  0.98802  0.42251  0.53325  1.0000
  C   C864      1.0  0.73325  0.33605  0.64730  1.0000
  P   P30       1.0  0.68251  0.40171  0.92362  1.0000
  C   C865      1.0  0.71790  0.45929  0.93319  1.0000
  C   C866      1.0  0.69044  0.43831  0.92551  1.0000
  H   H682      1.0  0.62546  0.38753  0.81779  1.0000
  H   H683      1.0  0.90196  0.43371  0.58483  1.0000
  H   H684      1.0  0.55588  0.53014  0.54312  1.0000
  H   H685      1.0  0.94170  0.48157  0.70437  1.0000
  C   C867      1.0  0.92724  0.47795  0.56713  1.0000
  C   C868      1.0  0.64826  0.44000  0.52658  1.0000
  C   C869      1.0  0.92076  0.58143  0.66047  1.0000
  H   H686      1.0  0.88104  0.52755  0.71639  1.0000
  H   H687      1.0  0.77283  0.36100  0.61530  1.0000
  H   H688      1.0  0.96380  0.53226  0.71657  1.0000
  H   H689      1.0  0.65799  0.47954  0.92330  1.0000
  Fe  Fe59      1.0  0.70302  0.33312  0.79806  1.0000
  H   H690      1.0  0.98945  0.50306  0.59656  1.0000
  S   S119      1.0  0.55422  0.34189  0.53815  1.0000
  H   H691      1.0  0.90187  0.56109  0.66602  1.0000
  C   C870      1.0  0.74958  0.41631  0.85516  1.0000
  C   C871      1.0  0.75217  0.39182  0.86137  1.0000
  C   C872      1.0  0.73409  0.37076  0.88694  1.0000
  C   C873      1.0  0.58303  0.34727  0.71484  1.0000
  H   H692      1.0  0.76307  0.43216  0.83452  1.0000
  H   H693      1.0  0.76754  0.38871  0.84550  1.0000
  H   H694      1.0  0.76856  0.42997  0.53124  1.0000
  C   C874      1.0  0.71652  0.36451  0.67862  1.0000
  C   C875      1.0  0.91413  0.44865  0.56274  1.0000
  C   C876      1.0  0.56390  0.37654  0.52227  1.0000
  H   H695      1.0  0.70615  0.62135  0.55585  1.0000
  H   H696      1.0  0.66487  0.41585  0.85625  1.0000
  C   C877      1.0  0.72887  0.41975  0.87447  1.0000
  H   H697      1.0  0.70166  0.36583  0.69753  1.0000
  H   H698      1.0  0.72639  0.43825  0.86817  1.0000
  C   C878      1.0  0.91491  0.60168  0.75415  1.0000
  C   C879      1.0  0.70239  0.49490  0.93234  1.0000
  C   C880      1.0  0.71340  0.37418  0.90628  1.0000
  C   C881      1.0  0.72059  0.63522  0.50072  1.0000
  C   C882      1.0  0.62600  0.52991  0.53330  1.0000
  H   H699      1.0  0.89484  0.62451  0.77621  1.0000
  C   C883      1.0  0.60798  0.34973  0.85280  1.0000
  C   C884      1.0  0.94695  0.62331  0.62051  1.0000
  S   S120      1.0  0.62583  0.35328  0.75830  1.0000
  H   H700      1.0  0.63514  0.34292  0.93080  1.0000
  C   C885      1.0  0.62720  0.37824  0.84310  1.0000
  H   H701      1.0  0.77846  0.40712  0.63080  1.0000
  H   H702      1.0  0.76061  0.56531  0.57218  1.0000
  H   H703      1.0  0.74674  0.46063  0.51970  1.0000
  C   C886      1.0  0.71310  0.33791  0.67012  1.0000
  C   C887      1.0  0.76293  0.57748  0.54743  1.0000
  C   C888      1.0  0.73994  0.38944  0.66427  1.0000
  H   H704      1.0  0.90533  0.41592  0.52578  1.0000
  H   H705      1.0  0.63165  0.34669  0.51461  1.0000
  H   H706      1.0  0.64707  0.42959  0.91848  1.0000
  H   H707      1.0  0.90542  0.58888  0.61100  1.0000
  C   C889      1.0  0.92854  0.49169  0.70717  1.0000
  H   H708      1.0  0.90415  0.53687  0.78695  1.0000
  H   H709      1.0  0.69854  0.35707  0.92462  1.0000
  H   H710      1.0  0.94866  0.63499  0.59559  1.0000
  C   C890      1.0  0.89468  0.51792  0.71391  1.0000
  C   C891      1.0  0.71367  0.34172  0.54464  1.0000
  H   H711      1.0  0.98809  0.65424  0.63704  1.0000
  P   P31       1.0  0.94026  0.57170  0.72496  1.0000
  H   H712      1.0  0.70703  0.51678  0.93480  1.0000
  H   H713      1.0  0.59790  0.36856  0.70424  1.0000
  C   C892      1.0  0.66872  0.44567  0.92275  1.0000
  C   C893      1.0  0.54557  0.49498  0.58062  1.0000
  C   C894      1.0  0.76145  0.51680  0.51779  1.0000
  S   S121      1.0  0.51169  0.34506  0.62473  1.0000
  C   C895      1.0  0.96712  0.61861  0.67557  1.0000
  H   H714      1.0  0.97931  0.54299  0.65421  1.0000
  H   H715      1.0  0.54966  0.34297  0.68050  1.0000
  C   C896      1.0  0.73308  0.51052  0.51373  1.0000
  C   C897      1.0  0.64783  0.52357  0.52533  1.0000
  H   H716      1.0  0.63293  0.37961  0.97391  1.0000
  H   H717      1.0  0.91367  0.51943  0.50182  1.0000
  C   C898      1.0  0.66804  0.43137  0.51650  1.0000
  C   C899      1.0  0.74283  0.59585  0.50309  1.0000
  C   C900      1.0  0.94346  0.48739  0.50454  1.0000
  C   C901      1.0  0.94104  0.52061  0.71400  1.0000
  C   C902      1.0  0.61078  0.33728  0.88470  1.0000
  H   H718      1.0  0.72535  0.33268  0.53128  1.0000
  H   H719      1.0  0.88938  0.45345  0.69865  1.0000
  C   C903      1.0  0.75959  0.42989  0.50570  1.0000
  C   C904      1.0  0.63086  0.55788  0.52816  1.0000
  H   H720      1.0  0.64382  0.50175  0.52853  1.0000
  C   C905      1.0  0.88227  0.48896  0.70754  1.0000
  H   H721      1.0  0.52286  0.65245  0.83213  1.0000
  C   C906      1.0  0.67964  0.57324  0.50715  1.0000
  C   C907      1.0  0.88163  0.58451  0.80565  1.0000
  Fe  Fe60      1.0  0.64466  0.32983  0.78980  1.0000
  H   H722      1.0  0.73533  0.35127  0.89084  1.0000
  H   H723      1.0  0.80529  0.58462  0.53494  1.0000
  H   H724      1.0  0.64482  0.45446  0.50903  1.0000
  C   C908      1.0  0.96916  0.63404  0.64378  1.0000
  C   C909      1.0  0.90230  0.55609  0.78430  1.0000
  C   C910      1.0  0.67440  0.54503  0.51183  1.0000
  C   C911      1.0  0.92424  0.53407  0.71720  1.0000
  H   H725      1.0  0.92656  0.61810  0.73327  1.0000
  C   C912      1.0  0.94318  0.59178  0.68378  1.0000
  C   C913      1.0  0.96141  0.40021  0.52553  1.0000
  H   H726      1.0  0.49358  0.44710  0.51172  1.0000
  H   H727      1.0  0.65480  0.33639  0.65788  1.0000
  H   H728      1.0  0.80491  0.32922  0.80066  1.0000
  C   C914      1.0  0.63418  0.33173  0.64847  1.0000
  C   C915      1.0  0.82687  0.39101  0.50675  1.0000
  C   C916      1.0  0.85132  0.44257  0.50356  1.0000
  H   H729      1.0  0.59150  0.33710  0.83499  1.0000
  H   H730      1.0  0.98436  0.62775  0.69345  1.0000
  C   C917      1.0  0.97495  0.58362  0.74288  1.0000
  H   H731      1.0  0.49841  0.42571  0.56862  1.0000
  H   H732      1.0  0.96126  0.58329  0.79784  1.0000
  C   C918      1.0  0.65014  0.37890  0.98747  1.0000
  C   C919      1.0  0.69873  0.38729  0.98791  1.0000
  C   C920      1.0  0.97885  0.58731  0.77952  1.0000
  H   H733      1.0  0.69070  0.53953  0.50452  1.0000
  H   H734      1.0  0.66061  0.60081  0.50999  1.0000
  C   C921      1.0  0.78823  0.58847  0.52643  1.0000
  H   H735      1.0  0.50136  0.65978  0.57632  1.0000
  C   C922      1.0  0.93067  0.45786  0.50055  1.0000
  C   C923      1.0  0.49508  0.75311  0.32893  1.0000
  S   S122      1.0  0.53016  0.69678  0.47216  1.0000
  H   H736      1.0  0.52820  0.74175  0.33529  1.0000
  S   S123      1.0  0.54368  0.67104  0.37356  1.0000
  Fe  Fe61      1.0  0.51830  0.67032  0.42318  1.0000
  C   C924      1.0  0.51810  0.93959  0.45096  1.0000
  C   C925      1.0  0.52607  0.72747  0.47697  1.0000
  H   H737      1.0  0.55770  0.97341  0.46919  1.0000
  H   H738      1.0  0.55205  0.89090  0.47036  1.0000
  C   C926      1.0  0.52895  0.75787  0.28173  1.0000
  H   H739      1.0  0.57873  0.94239  0.48146  1.0000
  C   C927      1.0  0.51566  0.89306  0.45105  1.0000
  C   C928      1.0  0.49979  0.97036  0.39904  1.0000
  H   H740      1.0  0.50321  0.80243  0.35859  1.0000
  C   C929      1.0  0.52499  0.76957  0.45235  1.0000
  H   H741      1.0  0.51052  0.81969  0.41917  1.0000
  C   C930      1.0  0.50327  0.91042  0.44445  1.0000
  C   C931      1.0  0.52286  0.77808  0.48681  1.0000
  H   H742      1.0  0.54655  0.75482  0.27250  1.0000
  C   C932      1.0  0.55785  0.93360  0.47052  1.0000
  H   H743      1.0  0.49716  0.99046  0.29908  1.0000
  H   H744      1.0  0.51287  0.94091  0.37858  1.0000
  C   C933      1.0  0.51591  0.76808  0.25798  1.0000
  H   H745      1.0  0.52616  0.78284  0.42934  1.0000
  H   H746      1.0  0.52366  0.77326  0.23033  1.0000
  H   H747      1.0  0.52853  0.73830  0.42081  1.0000
  C   C934      1.0  0.54567  0.95111  0.46368  1.0000
  C   C935      1.0  0.50668  0.95691  0.37208  1.0000
  P   P32       1.0  0.50078  0.96127  0.44568  1.0000
  H   H748      1.0  0.50399  0.87046  0.44686  1.0000
  C   C936      1.0  0.54285  0.90460  0.46428  1.0000
  C   C937      1.0  0.52638  0.74431  0.44742  1.0000
  C   C938      1.0  0.51861  0.75052  0.31721  1.0000
  S   S124      1.0  0.52272  0.81087  0.49174  1.0000
  H   H749      1.0  0.54522  0.66859  0.27811  1.0000
  H   H750      1.0  0.74927  0.70411  0.46756  1.0000
  C   C939      1.0  0.52064  0.99328  0.46936  1.0000
  C   C940      1.0  0.73957  0.68594  0.48668  1.0000
  H   H751      1.0  0.51100  0.95365  0.31549  1.0000
  S   S125      1.0  0.49968  0.68405  0.29551  1.0000
  C   C941      1.0  0.49790  0.98483  0.32688  1.0000
  C   C942      1.0  0.50570  0.96414  0.33614  1.0000
  Fe  Fe62      1.0  0.53330  0.87132  0.60020  1.0000
  S   S126      1.0  0.51256  0.86594  0.54790  1.0000
  S   S127      1.0  0.56761  0.91385  0.61978  1.0000
  C   C943      1.0  0.52171  0.76079  0.51632  1.0000
  H   H752      1.0  0.52771  0.70008  0.61486  1.0000
  H   H753      1.0  0.73805  0.71056  0.52992  1.0000
  C   C944      1.0  0.50833  0.71661  0.83486  1.0000
  C   C945      1.0  0.52362  0.73580  0.51138  1.0000
  S   S128      1.0  0.53849  0.83191  0.59548  1.0000
  C   C946      1.0  0.52042  0.99153  0.50674  1.0000
  H   H754      1.0  0.50504  0.72803  0.63663  1.0000
  C   C947      1.0  0.50616  0.69431  0.60812  1.0000
  H   H755      1.0  0.52347  0.72301  0.53438  1.0000
  H   H756      1.0  0.55760  0.69712  0.85848  1.0000
  C   C948      1.0  0.53842  0.69554  0.84763  1.0000
  H   H757      1.0  0.54810  0.73799  0.86062  1.0000
  C   C949      1.0  0.57845  0.94969  0.60429  1.0000
  C   C950      1.0  0.59723  0.97227  0.62442  1.0000
  C   C951      1.0  0.56953  0.95630  0.57233  1.0000
  H   H758      1.0  0.60437  0.96746  0.64910  1.0000
  H   H759      1.0  0.55526  0.93927  0.55641  1.0000
  H   H760      1.0  0.71675  0.66916  0.57401  1.0000
  C   C952      1.0  0.57963  0.98506  0.56056  1.0000
  Fe  Fe63      1.0  0.51429  0.82468  0.54543  1.0000
  C   C953      1.0  0.72124  0.66625  0.54664  1.0000
  H   H761      1.0  0.52010  0.76703  0.54297  1.0000
  C   C954      1.0  0.73331  0.68959  0.52184  1.0000
  C   C955      1.0  0.53309  0.71859  0.84879  1.0000
  H   H762      1.0  0.57310  0.98982  0.53544  1.0000
  Fe  Fe64      1.0  0.49503  0.80769  0.62386  1.0000
  H   H763      1.0  0.50737  0.97151  0.52176  1.0000
  H   H764      1.0  0.52688  0.97196  0.63179  1.0000
  C   C956      1.0  0.49349  0.71008  0.62025  1.0000
  H   H765      1.0  0.49775  0.74028  0.76172  1.0000
  H   H766      1.0  0.50438  0.73452  0.83654  1.0000
  H   H767      1.0  0.49695  0.68932  0.74619  1.0000
  C   C957      1.0  0.51888  0.67041  0.83274  1.0000
  H   H768      1.0  0.50013  0.78683  0.74919  1.0000
  C   C958      1.0  0.49761  0.98568  0.61241  1.0000
  C   C959      1.0  0.52363  0.99002  0.62504  1.0000
  C   C960      1.0  0.49411  0.66837  0.81878  1.0000
