data_image0
_chemical_formula_structural       SCSHCPHFeSHSH3CH4CH2FeC6H5CHS2C2HCHC3HCHCHC2HC3HCHC3PSHC2HC4PC7SFeC4H2CSCSCH10CH2CHCHC6PC4HCH2FeHC6HCH4C7HCH9CH2C2H2CHCHC2H5C2H2CHCHC4H2C4HC2HCH3CH2CHCHCH2PH2CS2C2H2CH2SHFeSCHCHC4HC2HC3H2C2HCHC2HC7H2C2H4C3FeC2HPHC6SHCS2CHCHC2H2FeHCH5FeHFe2CFeCHCHCH2SHC4HC2H3C2HC3SCHCH5CHCSHC2SH2SHCH2C4SC4HCH3CSCS3FeSHCSH2SC3HC2HCH5CHCHC2HC4HCHC7H2C8HSFeC2HC3FeSCHC2HSCHC3HCFeHCHCHC4H2PCHFeC7PC5HC2HCHC7H4SH3C3H4SC2H4CH4C4HCH2C2HC4PHC3HCHC2HC3HCHCHCPHC2H3CH2C2H2CHC3HCH3FeHCHCHCHCFeHC3HCH2CHSH2FeCSC2HCH3C2HCHC3H2SCSFeSCSCSC2SCFeSHSCHC2HC2PC8H4CH3C6PC10H2CH11CHC2HC4HCH2CHC2H4C3HCH2C2H3CH3CH2CH3CFeHCH2CFe2HC2H3S2FeS2FeSC2SCHCHC2H7CHC2H2C3H3CHCHC3HC8H2C2HC3PHC4H3CFeHC2HCH2C2H2C2SHCH2C3H2CH3C4HCH2CHP2HC2HCH3C7H2CH2CH2CH2FeH2FeHC2SC3PC2H2CH2C3H2C6FeC2SH2CHSC2HC2SC2H4C8HCSC2H2SHC2HC2HSH3FeC2SHCHFeC2HC2H5CS2C2SHSCSH2CHSCHFeSHFeHS2C2H2S2HCHCFeCFePC2SH2C5HFeC6H3C7HCH2C3H2C2HC3PC3HC15Fe2H3SHCH11C2H4C4HSC2H3C2H2CHC2H2C4HC4HC2FeHC2H2CHCHC3HC3H3CPHCH5C3H4C2HC3SHFeHCH3C3HSHCHSCSCSHFeSHFeS2HC3HS2CH3C2HC7H4CH2CHCHC2SCPC3PC3HC2HC8HC2H2CH3CH6CPCHCH2C4HCHCH4CHCHCSH2FeHCHC2HCH2CHCFe2CHCSC2HCFeHC2HCH2FeCHFeS2H2CFeCSCHFeSFeCH2C6H3CH2C2HC4H3C6H3C4H3CSCH2C2H2C7PC8HCSC7H12CH7C3HCH2C3HFeC3HC2HC2H2CSCSHCHCH2CHCSHC4HCHSHC2HS2H3C3HC2H2CHC3HCHP2H4CH2CH3CSC2HC2SC2H2C5PSH2CSCSH2FeSCSCH3CSCH3FeC2SC9H4SH3CFeH2CHC5H2C3PC6SCHC6HC3H4CH2CHC2H3SHCHC2H2C4HC4H2CH3CHFeH4CH3CHCHC2HC3HPFeCSCHCH5C2PSCH2CSH2CSCH5CHCHC3SCH3CH2C2HCSPH2CH3FeS2HFeSC2HPC3H5C2HCHCH2CH4C6H4C2HC6HCHC2H5C2SHC2H3C2HCHC9HC4SCH2C2SC7SCH2CHCFeC2HC2PH3C3HCHCSCH3CFeHCH2CHCSC2H3C2HC2HCH2SCFeCHC2HCHSC3HC2H2C3HCFeCH3CH2C5
_chemical_formula_sum              "S128 C960 H768 P32 Fe64"
_cell_length_a       43.186
_cell_length_b       41.9082
_cell_length_c       47.924
_cell_angle_alpha    89.9386
_cell_angle_beta     89.8896
_cell_angle_gamma    113.758

_space_group_name_H-M_alt    "P 1"
_space_group_IT_number       1

loop_
  _space_group_symop_operation_xyz
  'x, y, z'

loop_
  _atom_site_type_symbol
  _atom_site_label
  _atom_site_symmetry_multiplicity
  _atom_site_fract_x
  _atom_site_fract_y
  _atom_site_fract_z
  _atom_site_occupancy
  S   S1        1.0  0.42175  0.44353  0.20977  1.0000
  C   C1        1.0  0.06495  0.37847  0.01976  1.0000
  S   S2        1.0  0.41659  0.42985  0.12397  1.0000
  H   H1        1.0  0.39411  0.39935  0.07044  1.0000
  C   C2        1.0  0.07277  0.41533  0.09165  1.0000
  P   P1        1.0  0.40804  0.35112  0.26579  1.0000
  H   H2        1.0  0.02053  0.42756  0.01409  1.0000
  Fe  Fe1       1.0  0.26350  0.30708  0.03461  1.0000
  S   S3        1.0  0.27420  0.31938  0.08083  1.0000
  H   H3        1.0  0.43618  0.01011  0.00725  1.0000
  S   S4        1.0  0.21426  0.26438  0.02055  1.0000
  H   H4        1.0  0.04106  0.36805  0.16237  1.0000
  H   H5        1.0  0.45798  0.37534  0.17129  1.0000
  H   H6        1.0  0.36814  0.43998  0.99540  1.0000
  C   C3        1.0  0.37077  0.31781  0.28091  1.0000
  H   H7        1.0  0.04006  0.23808  0.03966  1.0000
  H   H8        1.0  0.29162  0.24495  0.31437  1.0000
  H   H9        1.0  0.41114  0.19758  0.01333  1.0000
  H   H10       1.0  0.23164  0.12015  0.04810  1.0000
  C   C4        1.0  0.35656  0.00788  0.11917  1.0000
  H   H11       1.0  0.97935  0.43049  0.07797  1.0000
  H   H12       1.0  0.36888  0.03595  0.12071  1.0000
  Fe  Fe2       1.0  0.43095  0.46019  0.16482  1.0000
  C   C5        1.0  0.37609  0.40089  0.11219  1.0000
  C   C6        1.0  0.34801  0.38788  0.12998  1.0000
  C   C7        1.0  0.31689  0.36303  0.12009  1.0000
  C   C8        1.0  0.31339  0.35154  0.09223  1.0000
  C   C9        1.0  0.34131  0.36509  0.07433  1.0000
  C   C10       1.0  0.37255  0.38939  0.08436  1.0000
  H   H13       1.0  0.35043  0.39658  0.15142  1.0000
  H   H14       1.0  0.29541  0.35270  0.13406  1.0000
  H   H15       1.0  0.33893  0.35655  0.05284  1.0000
  H   H16       1.0  0.38072  0.08038  0.05132  1.0000
  H   H17       1.0  0.44614  0.25311  0.31902  1.0000
  C   C11       1.0  0.45965  0.26171  0.05727  1.0000
  H   H18       1.0  0.31346  0.23479  0.26879  1.0000
  S   S5        1.0  0.23597  0.05892  0.02511  1.0000
  S   S6        1.0  0.30018  0.01599  0.01342  1.0000
  C   C12       1.0  0.23558  0.12456  0.02590  1.0000
  C   C13       1.0  0.46755  0.06066  0.30975  1.0000
  H   H19       1.0  0.47131  0.47613  0.28668  1.0000
  C   C14       1.0  0.00244  0.25246  0.05886  1.0000
  H   H20       1.0  0.08008  0.42826  0.07168  1.0000
  C   C15       1.0  0.41407  0.05413  0.05776  1.0000
  C   C16       1.0  0.38565  0.43530  0.28209  1.0000
  C   C17       1.0  0.44650  0.45514  0.28454  1.0000
  H   H21       1.0  0.44325  0.30901  0.24422  1.0000
  C   C18       1.0  0.45609  0.04843  0.11759  1.0000
  H   H22       1.0  0.15359  0.47499  0.30667  1.0000
  C   C19       1.0  0.43471  0.36517  0.18328  1.0000
  H   H23       1.0  0.46626  0.41661  0.27678  1.0000
  C   C20       1.0  0.42543  0.02658  0.01693  1.0000
  C   C21       1.0  0.35879  0.32306  0.30702  1.0000
  H   H24       1.0  0.03555  0.42337  0.15254  1.0000
  C   C22       1.0  0.41754  0.46215  0.28609  1.0000
  C   C23       1.0  0.32606  0.25948  0.27942  1.0000
  C   C24       1.0  0.44282  0.34195  0.27891  1.0000
  H   H25       1.0  0.34987  0.33905  0.17511  1.0000
  C   C25       1.0  0.43593  0.36239  0.21229  1.0000
  H   H26       1.0  0.35780  0.12864  0.01150  1.0000
  C   C26       1.0  0.45722  0.35498  0.30496  1.0000
  C   C27       1.0  0.37500  0.34266  0.21461  1.0000
  C   C28       1.0  0.33025  0.29689  0.31896  1.0000
  P   P2        1.0  0.45560  0.01765  0.06610  1.0000
  S   S7        1.0  0.38879  0.00777  0.16872  1.0000
  H   H27       1.0  0.44206  0.27697  0.09501  1.0000
  C   C29       1.0  0.43525  0.25951  0.07725  1.0000
  C   C30       1.0  0.99583  0.27934  0.07098  1.0000
  H   H28       1.0  0.35786  0.38123  0.27254  1.0000
  C   C31       1.0  0.03515  0.25857  0.05000  1.0000
  C   C32       1.0  0.06138  0.29149  0.05341  1.0000
  C   C33       1.0  0.05504  0.31864  0.06580  1.0000
  C   C34       1.0  0.02176  0.31247  0.07386  1.0000
  P   P3        1.0  0.08850  0.36168  0.06955  1.0000
  C   C35       1.0  0.07567  0.38364  0.09694  1.0000
  C   C36       1.0  0.12781  0.35763  0.07768  1.0000
  C   C37       1.0  0.14093  0.36262  0.10492  1.0000
  C   C38       1.0  0.17112  0.35892  0.11067  1.0000
  C   C39       1.0  0.18853  0.35035  0.08932  1.0000
  C   C40       1.0  0.17586  0.34569  0.06217  1.0000
  C   C41       1.0  0.14577  0.34939  0.05636  1.0000
  S   S8        1.0  0.25879  0.34756  0.00662  1.0000
  Fe  Fe3       1.0  0.24765  0.01399  0.00770  1.0000
  C   C42       1.0  0.23754  0.15633  0.01429  1.0000
  C   C43       1.0  0.05064  0.38156  0.14284  1.0000
  C   C44       1.0  0.06455  0.36693  0.12277  1.0000
  C   C45       1.0  0.39383  0.06598  0.04162  1.0000
  H   H29       1.0  0.43104  0.07553  0.28944  1.0000
  H   H30       1.0  0.39591  0.29674  0.00355  1.0000
  C   C46       1.0  0.38265  0.40138  0.27670  1.0000
  S   S9        1.0  0.42815  0.98943  0.24034  1.0000
  C   C47       1.0  0.45457  0.32020  0.26395  1.0000
  S   S10       1.0  0.29526  0.29258  0.00417  1.0000
  C   C48       1.0  0.40195  0.23498  0.07424  1.0000
  H   H31       1.0  0.41631  0.05987  0.07977  1.0000
  H   H32       1.0  0.08624  0.29558  0.04574  1.0000
  H   H33       1.0  0.01552  0.33326  0.08200  1.0000
  H   H34       1.0  0.12814  0.36938  0.12179  1.0000
  H   H35       1.0  0.18109  0.36258  0.13169  1.0000
  H   H36       1.0  0.21186  0.34728  0.09369  1.0000
  H   H37       1.0  0.18932  0.33907  0.04554  1.0000
  H   H38       1.0  0.13660  0.34572  0.03508  1.0000
  H   H39       1.0  0.21934  0.48203  0.21349  1.0000
  H   H40       1.0  0.14398  0.47964  0.14832  1.0000
  C   C49       1.0  0.09311  0.38485  0.03695  1.0000
  H   H41       1.0  0.06540  0.34188  0.12694  1.0000
  H   H42       1.0  0.33119  0.00871  0.08033  1.0000
  C   C50       1.0  0.41160  0.39397  0.27577  1.0000
  H   H43       1.0  0.46445  0.03985  0.29512  1.0000
  C   C51       1.0  0.44355  0.42127  0.27911  1.0000
  H   H44       1.0  0.23546  0.17625  0.02753  1.0000
  C   C52       1.0  0.26990  0.19681  0.08275  1.0000
  C   C53       1.0  0.27873  0.23244  0.07880  1.0000
  C   C54       1.0  0.30887  0.25270  0.06516  1.0000
  C   C55       1.0  0.33002  0.23733  0.05510  1.0000
  C   C56       1.0  0.32168  0.20162  0.05945  1.0000
  C   C57       1.0  0.29129  0.18143  0.07320  1.0000
  P   P4        1.0  0.34937  0.18196  0.04668  1.0000
  C   C58       1.0  0.34132  0.17116  0.01014  1.0000
  C   C59       1.0  0.39272  0.21265  0.05104  1.0000
  C   C60       1.0  0.41748  0.21470  0.03125  1.0000
  C   C61       1.0  0.45080  0.23923  0.03434  1.0000
  H   H45       1.0  0.36408  0.28066  0.24767  1.0000
  C   C62       1.0  0.40365  0.35629  0.16989  1.0000
  H   H46       1.0  0.42910  0.03303  0.11796  1.0000
  H   H47       1.0  0.32357  0.05796  0.10924  1.0000
  Fe  Fe4       1.0  0.42100  0.98560  0.19336  1.0000
  H   H48       1.0  0.43934  0.12418  0.32150  1.0000
  C   C63       1.0  0.34219  0.14273  0.06638  1.0000
  C   C64       1.0  0.31492  0.11156  0.05940  1.0000
  C   C65       1.0  0.30842  0.08111  0.07468  1.0000
  C   C66       1.0  0.32908  0.08151  0.09715  1.0000
  C   C67       1.0  0.35648  0.11236  0.10420  1.0000
  C   C68       1.0  0.36303  0.14294  0.08893  1.0000
  H   H49       1.0  0.24619  0.18100  0.09289  1.0000
  C   C69       1.0  0.12489  0.40979  0.02868  1.0000
  H   H50       1.0  0.31554  0.28034  0.06214  1.0000
  H   H51       1.0  0.35279  0.25336  0.04391  1.0000
  H   H52       1.0  0.28369  0.15375  0.07631  1.0000
  H   H53       1.0  0.37386  0.06736  0.00057  1.0000
  C   C70       1.0  0.37380  0.34498  0.18554  1.0000
  C   C71       1.0  0.43030  0.03450  0.04550  1.0000
  C   C72       1.0  0.31379  0.26518  0.30512  1.0000
  C   C73       1.0  0.40575  0.03906  0.00076  1.0000
  C   C74       1.0  0.33505  0.99254  0.09639  1.0000
  C   C75       1.0  0.34815  0.14380  0.99863  1.0000
  C   C76       1.0  0.23847  0.09835  0.00906  1.0000
  H   H54       1.0  0.29835  0.11091  0.04230  1.0000
  C   C77       1.0  0.45378  0.10862  0.32472  1.0000
  H   H55       1.0  0.46028  0.37031  0.22236  1.0000
  H   H56       1.0  0.37236  0.11255  0.12174  1.0000
  H   H57       1.0  0.38408  0.16659  0.09497  1.0000
  H   H58       1.0  0.36341  0.44123  0.28215  1.0000
  H   H59       1.0  0.28697  0.05730  0.06918  1.0000
  H   H60       1.0  0.04005  0.35975  0.02581  1.0000
  H   H61       1.0  0.26760  0.46650  0.20282  1.0000
  H   H62       1.0  0.98200  0.22726  0.05551  1.0000
  H   H63       1.0  0.47400  0.19656  0.21207  1.0000
  C   C78       1.0  0.47579  0.04594  0.09509  1.0000
  H   H64       1.0  0.32263  0.21104  0.00102  1.0000
  H   H65       1.0  0.26208  0.24440  0.08604  1.0000
  C   C79       1.0  0.04761  0.41289  0.13732  1.0000
  C   C80       1.0  0.38987  0.05863  0.01310  1.0000
  H   H66       1.0  0.14693  0.41552  0.04172  1.0000
  H   H67       1.0  0.35179  0.33536  0.22647  1.0000
  C   C81       1.0  0.05877  0.42982  0.11179  1.0000
  H   H68       1.0  0.40279  0.35917  0.14745  1.0000
  C   C82       1.0  0.40607  0.35083  0.22817  1.0000
  H   H69       1.0  0.38333  0.23362  0.08993  1.0000
  C   C83       1.0  0.35461  0.28560  0.26742  1.0000
  C   C84       1.0  0.01732  0.44088  0.99561  1.0000
  H   H70       1.0  0.05528  0.45346  0.10723  1.0000
  H   H71       1.0  0.44809  0.37109  0.31724  1.0000
  H   H72       1.0  0.46975  0.24089  0.01890  1.0000
  H   H73       1.0  0.47155  0.46946  0.08495  1.0000
  H   H74       1.0  0.37154  0.34731  0.31819  1.0000
  C   C85       1.0  0.36251  0.98718  0.13988  1.0000
  C   C86       1.0  0.44885  0.08093  0.30650  1.0000
  H   H75       1.0  0.98058  0.15257  0.04067  1.0000
  H   H76       1.0  0.45556  0.07099  0.15776  1.0000
  C   C87       1.0  0.47113  0.06992  0.14029  1.0000
  H   H77       1.0  0.41916  0.47896  0.01993  1.0000
  C   C88       1.0  0.12866  0.42708  0.00310  1.0000
  H   H78       1.0  0.15344  0.44546  0.99646  1.0000
  C   C89       1.0  0.41055  0.44068  0.62342  1.0000
  C   C90       1.0  0.38097  0.43873  0.63701  1.0000
  C   C91       1.0  0.35255  0.40683  0.63760  1.0000
  C   C92       1.0  0.42573  0.08564  0.43240  1.0000
  H   H79       1.0  0.41761  0.15498  0.36147  1.0000
  H   H80       1.0  0.32939  0.40462  0.64782  1.0000
  C   C93       1.0  0.35387  0.37726  0.62508  1.0000
  C   C94       1.0  0.41181  0.41105  0.61099  1.0000
  C   C95       1.0  0.38350  0.37934  0.61184  1.0000
  C   C96       1.0  0.42793  0.14317  0.44211  1.0000
  H   H81       1.0  0.40158  0.09793  0.46771  1.0000
  C   C97       1.0  0.43721  0.17837  0.35296  1.0000
  C   C98       1.0  0.44783  0.15613  0.41828  1.0000
  H   H82       1.0  0.33195  0.35265  0.62577  1.0000
  C   C99       1.0  0.45686  0.13390  0.40132  1.0000
  H   H83       1.0  0.45237  0.08082  0.39600  1.0000
  H   H84       1.0  0.38458  0.35636  0.60231  1.0000
  H   H85       1.0  0.42128  0.16052  0.45523  1.0000
  C   C100      1.0  0.41687  0.10793  0.44917  1.0000
  H   H86       1.0  0.41725  0.05834  0.43793  1.0000
  H   H87       1.0  0.43485  0.41265  0.60084  1.0000
  C   C101      1.0  0.44568  0.09853  0.40857  1.0000
  H   H88       1.0  0.30791  0.46592  0.65226  1.0000
  C   C102      1.0  0.42814  0.20344  0.34024  1.0000
  H   H89       1.0  0.45650  0.18360  0.41327  1.0000
  C   C103      1.0  0.47137  0.18343  0.35451  1.0000
  H   H90       1.0  0.43273  0.46508  0.62260  1.0000
  H   H91       1.0  0.40178  0.19943  0.33912  1.0000
  P   P5        1.0  0.37977  0.47695  0.65352  1.0000
  H   H92       1.0  0.32092  0.30121  0.33901  1.0000
  H   H93       1.0  0.47216  0.30377  0.63707  1.0000
  C   C104      1.0  0.45308  0.23365  0.32889  1.0000
  S   S11       1.0  0.42067  0.45965  0.76281  1.0000
  S   S12       1.0  0.37026  0.40992  0.82654  1.0000
  C   C105      1.0  0.44843  0.27900  0.74246  1.0000
  C   C106      1.0  0.37991  0.21012  0.87981  1.0000
  H   H94       1.0  0.29565  0.34642  0.90372  1.0000
  H   H95       1.0  0.31009  0.36292  0.85397  1.0000
  C   C107      1.0  0.31882  0.18941  0.87944  1.0000
  H   H96       1.0  0.32355  0.14712  0.93174  1.0000
  H   H97       1.0  0.39973  0.17129  0.87161  1.0000
  S   S13       1.0  0.23983  0.29077  0.95625  1.0000
  H   H98       1.0  0.31233  0.19613  0.95156  1.0000
  Fe  Fe5       1.0  0.28741  0.33063  0.97481  1.0000
  S   S14       1.0  0.33553  0.37077  0.95482  1.0000
  C   C108      1.0  0.03155  0.44389  0.86062  1.0000
  H   H99       1.0  0.35955  0.44990  0.94581  1.0000
  C   C109      1.0  0.34186  0.13526  0.97041  1.0000
  H   H100      1.0  0.27573  0.43304  0.73612  1.0000
  C   C110      1.0  0.41645  0.25297  0.74881  1.0000
  C   C111      1.0  0.10337  0.32083  0.98243  1.0000
  C   C112      1.0  0.36001  0.29707  0.94050  1.0000
  C   C113      1.0  0.34560  0.99874  0.90959  1.0000
  H   H101      1.0  0.37815  0.45615  0.71217  1.0000
  C   C114      1.0  0.10067  0.42003  0.98582  1.0000
  C   C115      1.0  0.38226  0.46739  0.95636  1.0000
  H   H102      1.0  0.34596  0.11331  0.96187  1.0000
  C   C116      1.0  0.38805  0.28962  0.98218  1.0000
  C   C117      1.0  0.36711  0.27118  0.92678  1.0000
  C   C118      1.0  0.01904  0.45315  0.88482  1.0000
  H   H103      1.0  0.41227  0.22574  0.74884  1.0000
  H   H104      1.0  0.04725  0.39038  0.98070  1.0000
  C   C119      1.0  0.39643  0.28234  0.84342  1.0000
  C   C120      1.0  0.31392  0.46014  0.67307  1.0000
  H   H105      1.0  0.24679  0.13943  0.94628  1.0000
  C   C121      1.0  0.99024  0.42391  0.97767  1.0000
  H   H106      1.0  0.34624  0.31025  0.93003  1.0000
  C   C122      1.0  0.37777  0.01328  0.89698  1.0000
  C   C123      1.0  0.06774  0.30493  0.98069  1.0000
  H   H107      1.0  0.39862  0.03269  0.90811  1.0000
  C   C124      1.0  0.34531  0.14923  0.87062  1.0000
  C   C125      1.0  0.36148  0.39845  0.86222  1.0000
  C   C126      1.0  0.38582  0.41292  0.88299  1.0000
  C   C127      1.0  0.37767  0.40333  0.91111  1.0000
  C   C128      1.0  0.34500  0.37969  0.91887  1.0000
  C   C129      1.0  0.32083  0.36475  0.89806  1.0000
  C   C130      1.0  0.32908  0.37415  0.86989  1.0000
  H   H108      1.0  0.41088  0.43155  0.87739  1.0000
  H   H109      1.0  0.39671  0.41460  0.92701  1.0000
  C   C131      1.0  0.28844  0.44935  0.69340  1.0000
  C   C132      1.0  0.31619  0.15577  0.87336  1.0000
  H   H110      1.0  0.44299  0.19722  0.71395  1.0000
  H   H111      1.0  0.26330  0.44737  0.68829  1.0000
  H   H112      1.0  0.05331  0.46039  0.81989  1.0000
  H   H113      1.0  0.42923  0.35020  0.74844  1.0000
  C   C133      1.0  0.35330  0.45451  0.70663  1.0000
  C   C134      1.0  0.38931  0.26199  0.75504  1.0000
  C   C135      1.0  0.45227  0.16223  0.74208  1.0000
  Fe  Fe6       1.0  0.47353  0.03067  0.76412  1.0000
  C   C136      1.0  0.45589  0.00391  0.90377  1.0000
  C   C137      1.0  0.35076  0.21696  0.88279  1.0000
  H   H114      1.0  0.44447  0.98773  0.88588  1.0000
  P   P6        1.0  0.35471  0.26079  0.89070  1.0000
  H   H115      1.0  0.38625  0.25532  0.83706  1.0000
  C   C138      1.0  0.31443  0.26368  0.88583  1.0000
  C   C139      1.0  0.30884  0.28156  0.86287  1.0000
  C   C140      1.0  0.27731  0.28302  0.85917  1.0000
  C   C141      1.0  0.25111  0.26642  0.87816  1.0000
  C   C142      1.0  0.25645  0.24843  0.90091  1.0000
  C   C143      1.0  0.28811  0.24756  0.90503  1.0000
  S   S15       1.0  0.34020  0.01326  0.94337  1.0000
  H   H116      1.0  0.46698  0.13343  0.77274  1.0000
  C   C144      1.0  0.38505  0.25477  0.94116  1.0000
  S   S16       1.0  0.41922  0.99689  0.75241  1.0000
  S   S17       1.0  0.46411  0.01598  0.81012  1.0000
  C   C145      1.0  0.38587  0.29258  0.86838  1.0000
  H   H117      1.0  0.29576  0.19351  0.88140  1.0000
  C   C146      1.0  0.39526  0.26383  0.96878  1.0000
  H   H118      1.0  0.10363  0.43295  0.96578  1.0000
  C   C147      1.0  0.05098  0.26861  0.97991  1.0000
  C   C148      1.0  0.39810  0.32825  0.87486  1.0000
  H   H119      1.0  0.11602  0.34897  0.98261  1.0000
  H   H120      1.0  0.05770  0.22032  0.98063  1.0000
  Fe  Fe7       1.0  0.24609  0.25307  0.98757  1.0000
  H   H121      1.0  0.40783  0.01492  0.86030  1.0000
  C   C149      1.0  0.98564  0.44103  0.95401  1.0000
  H   H122      1.0  0.32874  0.29477  0.84792  1.0000
  H   H123      1.0  0.27330  0.29736  0.84172  1.0000
  H   H124      1.0  0.22674  0.26773  0.87545  1.0000
  H   H125      1.0  0.23616  0.23541  0.91567  1.0000
  H   H126      1.0  0.29187  0.23398  0.92308  1.0000
  Fe  Fe8       1.0  0.47079  0.45424  0.76202  1.0000
  H   H127      1.0  0.24490  0.08422  0.96701  1.0000
  Fe  Fe9       1.0  0.29273  0.99112  0.97078  1.0000
  Fe  Fe10      1.0  0.42015  0.44934  0.80908  1.0000
  C   C150      1.0  0.39386  0.29697  0.75490  1.0000
  Fe  Fe11      1.0  0.21118  0.30449  0.99048  1.0000
  C   C151      1.0  0.45534  0.98926  0.93026  1.0000
  H   H128      1.0  0.42828  0.29918  0.80697  1.0000
  C   C152      1.0  0.04475  0.46804  0.83903  1.0000
  H   H129      1.0  0.38933  0.33715  0.89325  1.0000
  C   C153      1.0  0.32307  0.18197  0.96452  1.0000
  H   H130      1.0  0.36466  0.24181  0.75984  1.0000
  H   H131      1.0  0.98443  0.26090  0.88419  1.0000
  S   S18       1.0  0.46800  0.44033  0.80756  1.0000
  H   H132      1.0  0.00790  0.43357  0.90080  1.0000
  C   C154      1.0  0.37065  0.30635  0.96797  1.0000
  C   C155      1.0  0.38714  0.46180  0.98441  1.0000
  C   C156      1.0  0.41991  0.30721  0.82597  1.0000
  C   C157      1.0  0.24285  0.10413  0.98029  1.0000
  H   H133      1.0  0.42983  0.38059  0.86186  1.0000
  C   C158      1.0  0.38311  0.00324  0.86992  1.0000
  C   C159      1.0  0.29541  0.44125  0.72033  1.0000
  H   H134      1.0  0.40864  0.25075  0.97981  1.0000
  H   H135      1.0  0.43687  0.13910  0.73046  1.0000
  H   H136      1.0  0.33323  0.43719  0.74773  1.0000
  C   C160      1.0  0.42559  0.32300  0.74865  1.0000
  C   C161      1.0  0.00790  0.47554  0.94829  1.0000
  H   H137      1.0  0.05329  0.32076  0.97953  1.0000
  C   C162      1.0  0.43209  0.34257  0.83271  1.0000
  C   C163      1.0  0.42105  0.35307  0.85705  1.0000
  C   C164      1.0  0.34680  0.46363  0.67974  1.0000
  S   S19       1.0  0.98204  0.33073  0.97862  1.0000
  C   C165      1.0  0.46926  0.15901  0.76596  1.0000
  H   H138      1.0  0.29145  0.13465  0.87093  1.0000
  C   C166      1.0  0.45275  0.31410  0.74249  1.0000
  H   H139      1.0  0.34316  0.12306  0.86604  1.0000
  H   H140      1.0  0.36523  0.32657  0.97825  1.0000
  H   H141      1.0  0.37287  0.30402  0.75969  1.0000
  H   H142      1.0  0.47150  0.05103  0.87947  1.0000
  H   H143      1.0  0.99102  0.22014  0.91879  1.0000
  C   C167      1.0  0.45595  0.19521  0.73277  1.0000
  H   H144      1.0  0.12048  0.24851  0.98427  1.0000
  C   C168      1.0  0.32931  0.15435  0.95338  1.0000
  S   S20       1.0  0.24134  0.99203  0.96407  1.0000
  H   H145      1.0  0.40481  0.23092  0.88214  1.0000
  C   C169      1.0  0.07032  0.24844  0.98126  1.0000
  C   C170      1.0  0.32777  0.44361  0.72688  1.0000
  S   S21       1.0  0.00612  0.24730  0.97699  1.0000
  H   H146      1.0  0.39085  0.23462  0.93148  1.0000
  H   H147      1.0  0.42909  0.45501  0.68075  1.0000
  S   S22       1.0  0.24445  0.20156  0.96950  1.0000
  H   H148      1.0  0.44964  0.36193  0.81884  1.0000
  C   C171      1.0  0.24386  0.13550  0.96859  1.0000
  H   H149      1.0  0.40205  0.03289  0.97872  1.0000
  H   H150      1.0  0.02994  0.41757  0.85817  1.0000
  C   C172      1.0  0.37716  0.17641  0.87382  1.0000
  C   C173      1.0  0.32879  0.19025  0.99282  1.0000
  C   C174      1.0  0.10597  0.26435  0.98333  1.0000
  C   C175      1.0  0.04037  0.47473  0.98953  1.0000
  S   S23       1.0  0.16771  0.32259  0.98555  1.0000
  C   C176      1.0  0.06885  0.39592  0.99422  1.0000
  C   C177      1.0  0.12277  0.30072  0.98370  1.0000
  C   C178      1.0  0.24160  0.16198  0.98550  1.0000
  C   C179      1.0  0.47120  0.04004  0.90001  1.0000
  H   H151      1.0  0.46595  0.30476  0.68801  1.0000
  C   C180      1.0  0.47046  0.01132  0.95281  1.0000
  H   H152      1.0  0.47060  0.00042  0.97326  1.0000
  H   H153      1.0  0.17436  0.68728  0.24105  1.0000
  H   H154      1.0  0.28803  0.59039  0.21788  1.0000
  C   C181      1.0  0.06709  0.67675  0.13738  1.0000
  S   S24       1.0  0.27537  0.64197  0.29957  1.0000
  C   C182      1.0  0.44028  0.84047  0.21852  1.0000
  S   S25       1.0  0.37842  0.50318  0.24198  1.0000
  S   S26       1.0  0.42811  0.51186  0.17234  1.0000
  S   S27       1.0  0.41992  0.93153  0.19106  1.0000
  Fe  Fe12      1.0  0.43147  0.93675  0.23715  1.0000
  S   S28       1.0  0.41444  0.89394  0.27140  1.0000
  H   H155      1.0  0.99960  0.59459  0.24586  1.0000
  C   C183      1.0  0.46125  0.72907  0.25353  1.0000
  S   S29       1.0  0.04926  0.54642  0.23909  1.0000
  H   H156      1.0  0.36037  0.78347  0.32369  1.0000
  H   H157      1.0  0.39479  0.71550  0.30760  1.0000
  S   S30       1.0  0.29158  0.93533  0.06614  1.0000
  C   C184      1.0  0.08157  0.73769  0.12582  1.0000
  C   C185      1.0  0.38078  0.68241  0.25514  1.0000
  C   C186      1.0  0.14495  0.49422  0.16720  1.0000
  H   H158      1.0  0.39890  0.67340  0.26397  1.0000
  C   C187      1.0  0.22817  0.64853  0.24392  1.0000
  C   C188      1.0  0.44310  0.78581  0.23244  1.0000
  H   H159      1.0  0.05400  0.52109  0.15112  1.0000
  C   C189      1.0  0.08908  0.58426  0.10208  1.0000
  H   H160      1.0  0.19772  0.50721  0.17396  1.0000
  H   H161      1.0  0.22467  0.66271  0.26174  1.0000
  H   H162      1.0  0.14779  0.54652  0.23458  1.0000
  H   H163      1.0  0.02463  0.50820  0.07292  1.0000
  H   H164      1.0  0.31204  0.71317  0.23018  1.0000
  C   C190      1.0  0.20987  0.53373  0.26230  1.0000
  H   H165      1.0  0.47354  0.76860  0.20522  1.0000
  C   C191      1.0  0.10350  0.73994  0.03760  1.0000
  H   H166      1.0  0.31126  0.90752  0.11428  1.0000
  C   C192      1.0  0.32390  0.93559  0.11554  1.0000
  C   C193      1.0  0.14307  0.57013  0.29646  1.0000
  H   H167      1.0  0.12911  0.70938  0.24365  1.0000
  C   C194      1.0  0.11215  0.58758  0.26101  1.0000
  C   C195      1.0  0.08490  0.55450  0.26161  1.0000
  C   C196      1.0  0.08715  0.52919  0.27963  1.0000
  C   C197      1.0  0.11592  0.53700  0.29687  1.0000
  H   H168      1.0  0.29749  0.65020  0.23818  1.0000
  C   C198      1.0  0.17716  0.49488  0.29923  1.0000
  H   H169      1.0  0.06660  0.50364  0.28048  1.0000
  C   C199      1.0  0.39698  0.95604  0.06787  1.0000
  C   C200      1.0  0.35934  0.58684  0.29456  1.0000
  C   C201      1.0  0.33271  0.55580  0.28655  1.0000
  C   C202      1.0  0.33909  0.53083  0.27040  1.0000
  C   C203      1.0  0.37208  0.53658  0.26151  1.0000
  C   C204      1.0  0.39864  0.56801  0.26895  1.0000
  C   C205      1.0  0.39231  0.59277  0.28548  1.0000
  H   H170      1.0  0.31826  0.50668  0.26495  1.0000
  H   H171      1.0  0.42416  0.57298  0.26242  1.0000
  C   C206      1.0  0.99871  0.62565  0.16970  1.0000
  C   C207      1.0  0.33261  0.78186  0.28616  1.0000
  C   C208      1.0  0.35908  0.79748  0.30511  1.0000
  C   C209      1.0  0.38359  0.83170  0.30028  1.0000
  C   C210      1.0  0.38251  0.85073  0.27624  1.0000
  C   C211      1.0  0.35653  0.83475  0.25697  1.0000
  C   C212      1.0  0.04546  0.69243  0.09499  1.0000
  C   C213      1.0  0.24437  0.50256  0.21095  1.0000
  H   H172      1.0  0.33425  0.92049  0.02088  1.0000
  S   S31       1.0  0.22293  0.96091  0.02828  1.0000
  Fe  Fe13      1.0  0.00316  0.72205  0.00167  1.0000
  C   C214      1.0  0.31006  0.55436  0.20788  1.0000
  C   C215      1.0  0.37193  0.90388  0.00419  1.0000
  H   H173      1.0  0.41976  0.48859  0.28942  1.0000
  C   C216      1.0  0.02213  0.52954  0.03246  1.0000
  C   C217      1.0  0.09305  0.84018  0.01604  1.0000
  C   C218      1.0  0.24963  0.53763  0.21458  1.0000
  Fe  Fe14      1.0  0.28873  0.69312  0.32192  1.0000
  S   S32       1.0  0.17864  0.57817  0.31910  1.0000
  C   C219      1.0  0.05866  0.57398  0.15479  1.0000
  H   H174      1.0  0.40357  0.84359  0.31532  1.0000
  C   C220      1.0  0.08550  0.61203  0.11582  1.0000
  C   C221      1.0  0.04801  0.66714  0.11275  1.0000
  H   H175      1.0  0.09510  0.63740  0.10592  1.0000
  S   S33       1.0  0.03707  0.77739  0.01639  1.0000
  C   C222      1.0  0.31847  0.95625  0.09454  1.0000
  H   H176      1.0  0.09424  0.76507  0.13101  1.0000
  C   C223      1.0  0.42842  0.97566  0.08013  1.0000
  C   C224      1.0  0.15494  0.68013  0.22511  1.0000
  C   C225      1.0  0.26936  0.84274  0.03456  1.0000
  H   H177      1.0  0.34107  0.63079  0.25539  1.0000
  C   C226      1.0  0.02920  0.61613  0.20899  1.0000
  Fe  Fe15      1.0  0.99622  0.50396  0.22796  1.0000
  H   H178      1.0  0.10070  0.58824  0.08160  1.0000
  C   C227      1.0  0.43214  0.76478  0.29218  1.0000
  H   H179      1.0  0.41322  0.61658  0.29149  1.0000
  C   C228      1.0  0.99949  0.60411  0.22482  1.0000
  H   H180      1.0  0.04727  0.56956  0.17541  1.0000
  C   C229      1.0  0.38814  0.90877  0.10031  1.0000
  C   C230      1.0  0.10331  0.65968  0.18490  1.0000
  C   C231      1.0  0.23963  0.85467  0.14602  1.0000
  C   C232      1.0  0.14728  0.53186  0.21582  1.0000
  H   H181      1.0  0.08950  0.68460  0.04046  1.0000
  H   H182      1.0  0.21024  0.59974  0.26578  1.0000
  P   P7        1.0  0.21516  0.54827  0.22645  1.0000
  C   C233      1.0  0.45339  0.81067  0.32700  1.0000
  H   H183      1.0  0.26197  0.87753  0.15164  1.0000
  Fe  Fe16      1.0  0.98592  0.64557  0.01825  1.0000
  C   C234      1.0  0.28282  0.56345  0.21339  1.0000
  C   C235      1.0  0.10923  0.85963  0.08947  1.0000
  C   C236      1.0  0.12749  0.89523  0.08468  1.0000
  C   C237      1.0  0.16160  0.90775  0.07717  1.0000
  C   C238      1.0  0.17740  0.88467  0.07381  1.0000
  C   C239      1.0  0.15902  0.84877  0.07802  1.0000
  C   C240      1.0  0.12503  0.83654  0.08650  1.0000
  P   P8        1.0  0.18020  0.81947  0.07691  1.0000
  C   C241      1.0  0.15127  0.77647  0.06599  1.0000
  C   C242      1.0  0.21276  0.83311  0.05047  1.0000
  C   C243      1.0  0.20539  0.84177  0.02377  1.0000
  C   C244      1.0  0.30449  0.51949  0.20373  1.0000
  C   C245      1.0  0.43118  0.81205  0.23675  1.0000
  H   H184      1.0  0.47210  0.57031  0.10056  1.0000
  C   C246      1.0  0.24475  0.83300  0.05560  1.0000
  C   C247      1.0  0.12567  0.77292  0.04667  1.0000
  H   H185      1.0  0.29427  0.84362  0.03886  1.0000
  C   C248      1.0  0.34623  0.95090  0.13783  1.0000
  H   H186      1.0  0.12937  0.62947  0.16744  1.0000
  C   C249      1.0  0.15555  0.74654  0.07482  1.0000
  C   C250      1.0  0.19764  0.82202  0.11147  1.0000
  C   C251      1.0  0.22653  0.85153  0.11902  1.0000
  C   C252      1.0  0.19430  0.79978  0.15877  1.0000
  C   C253      1.0  0.18108  0.79662  0.13177  1.0000
  C   C254      1.0  0.06216  0.72771  0.10153  1.0000
  C   C255      1.0  0.14091  0.59540  0.27827  1.0000
  H   H187      1.0  0.20398  0.89492  0.06815  1.0000
  H   H188      1.0  0.11060  0.80916  0.09068  1.0000
  H   H189      1.0  0.18079  0.84165  0.01921  1.0000
  H   H190      1.0  0.26108  0.56789  0.27368  1.0000
  S   S34       1.0  0.29943  0.73956  0.29178  1.0000
  H   H191      1.0  0.08325  0.69099  0.20871  1.0000
  H   H192      1.0  0.25087  0.82553  0.07576  1.0000
  H   H193      1.0  0.12286  0.79565  0.03841  1.0000
  C   C256      1.0  0.00086  0.53214  0.01148  1.0000
  C   C257      1.0  0.35359  0.92476  0.00509  1.0000
  C   C258      1.0  0.22579  0.59443  0.22374  1.0000
  H   H194      1.0  0.17628  0.74872  0.08841  1.0000
  H   H195      1.0  0.23885  0.87238  0.10411  1.0000
  H   H196      1.0  0.18156  0.78006  0.17435  1.0000
  H   H197      1.0  0.15773  0.77470  0.12699  1.0000
  S   S35       1.0  0.00514  0.61324  0.04590  1.0000
  C   C259      1.0  0.41134  0.74216  0.31262  1.0000
  C   C260      1.0  0.47261  0.55090  0.08582  1.0000
  H   H198      1.0  0.24753  0.69376  0.21735  1.0000
  H   H199      1.0  0.35036  0.93468  0.15370  1.0000
  H   H200      1.0  0.05183  0.61555  0.21824  1.0000
  H   H201      1.0  0.23379  0.83132  0.18681  1.0000
  C   C261      1.0  0.33172  0.80075  0.26202  1.0000
  H   H202      1.0  0.35524  0.84880  0.23837  1.0000
  H   H203      1.0  0.04927  0.54307  0.03025  1.0000
  H   H204      1.0  0.99730  0.63266  0.14820  1.0000
  H   H205      1.0  0.08276  0.84991  0.09527  1.0000
  C   C262      1.0  0.02922  0.62758  0.18140  1.0000
  C   C263      1.0  0.23747  0.54755  0.28057  1.0000
  C   C264      1.0  0.99586  0.57179  0.09235  1.0000
  C   C265      1.0  0.34781  0.65803  0.25045  1.0000
  H   H206      1.0  0.25572  0.66115  0.17664  1.0000
  C   C266      1.0  0.22366  0.82870  0.16584  1.0000
  H   H207      1.0  0.03453  0.63997  0.10747  1.0000
  H   H208      1.0  0.36993  0.75611  0.23744  1.0000
  C   C267      1.0  0.38966  0.71796  0.24941  1.0000
  C   C268      1.0  0.24112  0.66601  0.21891  1.0000
  H   H209      1.0  0.41499  0.81070  0.25437  1.0000
  C   C269      1.0  0.36452  0.72880  0.24039  1.0000
  C   C270      1.0  0.33148  0.70437  0.23608  1.0000
  C   C271      1.0  0.32323  0.66899  0.24080  1.0000
  C   C272      1.0  0.24582  0.64765  0.19608  1.0000
  P   P9        1.0  0.43184  0.74971  0.25681  1.0000
  H   H210      1.0  0.17579  0.93545  0.07396  1.0000
  C   C273      1.0  0.45357  0.79899  0.29970  1.0000
  C   C274      1.0  0.22032  0.61283  0.24627  1.0000
  C   C275      1.0  0.12438  0.86500  0.00612  1.0000
  H   H211      1.0  0.43788  0.70012  0.21631  1.0000
  C   C276      1.0  0.97867  0.55385  0.11636  1.0000
  H   H212      1.0  0.33573  0.57415  0.20783  1.0000
  C   C277      1.0  0.06262  0.54639  0.14112  1.0000
  C   C278      1.0  0.07765  0.55145  0.11474  1.0000
  H   H213      1.0  0.38746  0.96657  0.05095  1.0000
  C   C279      1.0  0.06966  0.60693  0.14206  1.0000
  C   C280      1.0  0.23489  0.53510  0.30792  1.0000
  C   C281      1.0  0.12925  0.64757  0.18347  1.0000
  H   H214      1.0  0.09896  0.72075  0.16245  1.0000
  C   C282      1.0  0.41923  0.92828  0.11277  1.0000
  H   H215      1.0  0.17384  0.64701  0.20292  1.0000
  C   C283      1.0  0.15479  0.65763  0.20358  1.0000
  H   H216      1.0  0.35234  0.90809  0.06888  1.0000
  C   C284      1.0  0.23797  0.61191  0.19842  1.0000
  P   P10       1.0  0.06786  0.64333  0.16111  1.0000
  H   H217      1.0  0.24158  0.59788  0.18059  1.0000
  C   C285      1.0  0.37707  0.92263  0.07783  1.0000
  C   C286      1.0  0.45781  0.70563  0.23160  1.0000
  H   H218      1.0  0.42776  0.91766  0.13031  1.0000
  H   H219      1.0  0.11526  0.91317  0.08682  1.0000
  H   H220      1.0  0.08052  0.52996  0.10419  1.0000
  C   C287      1.0  0.10361  0.68227  0.20665  1.0000
  H   H221      1.0  0.13622  0.69041  0.07298  1.0000
  H   H222      1.0  0.13681  0.88961  0.01681  1.0000
  C   C288      1.0  0.08412  0.71236  0.14368  1.0000
  C   C289      1.0  0.22974  0.85066  0.00262  1.0000
  H   H223      1.0  0.31146  0.78909  0.24717  1.0000
  H   H224      1.0  0.37231  0.88329  0.10852  1.0000
  C   C290      1.0  0.10705  0.71017  0.04733  1.0000
  H   H225      1.0  0.43123  0.86079  0.22229  1.0000
  C   C291      1.0  0.26185  0.85159  0.00807  1.0000
  C   C292      1.0  0.17977  0.50695  0.27173  1.0000
  C   C293      1.0  0.41652  0.48385  0.99813  1.0000
  H   H226      1.0  0.01908  0.56997  0.08604  1.0000
  C   C294      1.0  0.13319  0.71348  0.06581  1.0000
  H   H227      1.0  0.30731  0.55051  0.29344  1.0000
  H   H228      1.0  0.05991  0.74720  0.08770  1.0000
  H   H229      1.0  0.09448  0.51940  0.20839  1.0000
  Fe  Fe17      1.0  0.42259  0.49751  0.21801  1.0000
  H   H230      1.0  0.11080  0.60746  0.24729  1.0000
  C   C295      1.0  0.98324  0.59210  0.07649  1.0000
  H   H231      1.0  0.16115  0.62111  0.27777  1.0000
  C   C296      1.0  0.43930  0.96164  0.10284  1.0000
  H   H232      1.0  0.08351  0.73760  0.02300  1.0000
  C   C297      1.0  0.00831  0.51004  0.05647  1.0000
  H   H233      1.0  0.98840  0.53796  0.12820  1.0000
  C   C298      1.0  0.12943  0.69257  0.22657  1.0000
  Fe  Fe18      1.0  0.27528  0.96170  0.03059  1.0000
  H   H234      1.0  0.32580  0.51242  0.20032  1.0000
  C   C299      1.0  0.46396  0.78832  0.20925  1.0000
  C   C300      1.0  0.45559  0.59308  0.99564  1.0000
  C   C301      1.0  0.17646  0.52775  0.20686  1.0000
  H   H235      1.0  0.08164  0.84604  0.03433  1.0000
  C   C302      1.0  0.17532  0.50956  0.18201  1.0000
  H   H236      1.0  0.03032  0.68453  0.07618  1.0000
  H   H237      1.0  0.47020  0.81685  0.28447  1.0000
  C   C303      1.0  0.20467  0.50900  0.31732  1.0000
  H   H238      1.0  0.11701  0.51720  0.31084  1.0000
  S   S36       1.0  0.35328  0.61848  0.31659  1.0000
  H   H239      1.0  0.25622  0.54600  0.32194  1.0000
  H   H240      1.0  0.06165  0.48761  0.00324  1.0000
  Fe  Fe19      1.0  0.47625  0.95932  0.18426  1.0000
  C   C304      1.0  0.47628  0.50133  0.04849  1.0000
  S   S37       1.0  0.98940  0.49154  0.18184  1.0000
  C   C305      1.0  0.07624  0.80800  0.00243  1.0000
  C   C306      1.0  0.47285  0.81671  0.19092  1.0000
  H   H241      1.0  0.36697  0.88335  0.01948  1.0000
  C   C307      1.0  0.46118  0.84289  0.19564  1.0000
  H   H242      1.0  0.46827  0.51330  0.11787  1.0000
  H   H243      1.0  0.46833  0.86512  0.18164  1.0000
  H   H244      1.0  0.46346  0.97626  0.11275  1.0000
  C   C308      1.0  0.27166  0.49361  0.20523  1.0000
  C   C309      1.0  0.47291  0.49421  0.07709  1.0000
  H   H245      1.0  0.43111  0.57318  0.00130  1.0000
  C   C310      1.0  0.47081  0.51886  0.09570  1.0000
  H   H246      1.0  0.15819  0.49525  0.25817  1.0000
  C   C311      1.0  0.11703  0.51661  0.20095  1.0000
  C   C312      1.0  0.47550  0.55799  0.05718  1.0000
  C   C313      1.0  0.11578  0.49756  0.17677  1.0000
  H   H247      1.0  0.09218  0.48541  0.16552  1.0000
  H   H248      1.0  0.37727  0.52052  0.55756  1.0000
  S   S38       1.0  0.32322  0.68298  0.35245  1.0000
  C   C314      1.0  0.16084  0.59557  0.46888  1.0000
  S   S39       1.0  0.26437  0.60413  0.36092  1.0000
  Fe  Fe20      1.0  0.27747  0.65699  0.38075  1.0000
  S   S40       1.0  0.27368  0.66770  0.42858  1.0000
  C   C315      1.0  0.35381  0.55080  0.61613  1.0000
  S   S41       1.0  0.24354  0.67071  0.35102  1.0000
  C   C316      1.0  0.06343  0.56780  0.61309  1.0000
  S   S42       1.0  0.27066  0.60925  0.63332  1.0000
  C   C317      1.0  0.09377  0.58729  0.62666  1.0000
  C   C318      1.0  0.17466  0.62905  0.48026  1.0000
  S   S43       1.0  0.34021  0.67822  0.63979  1.0000
  C   C319      1.0  0.37218  0.50458  0.62769  1.0000
  Fe  Fe21      1.0  0.29520  0.66017  0.61002  1.0000
  S   S44       1.0  0.30046  0.65522  0.56132  1.0000
  H   H249      1.0  0.09325  0.56870  0.54734  1.0000
  S   S45       1.0  0.26624  0.68507  0.63563  1.0000
  C   C320      1.0  0.18958  0.58584  0.57459  1.0000
  H   H250      1.0  0.38245  0.82305  0.39278  1.0000
  C   C321      1.0  0.22710  0.54644  0.58768  1.0000
  C   C322      1.0  0.18536  0.65531  0.57280  1.0000
  H   H251      1.0  0.22426  0.60477  0.53965  1.0000
  C   C323      1.0  0.06347  0.56121  0.58449  1.0000
  C   C324      1.0  0.18118  0.56384  0.59808  1.0000
  P   P11       1.0  0.16444  0.60957  0.56442  1.0000
  C   C325      1.0  0.36005  0.54757  0.58791  1.0000
  C   C326      1.0  0.33435  0.75999  0.38856  1.0000
  C   C327      1.0  0.28138  0.66356  0.46537  1.0000
  C   C328      1.0  0.26973  0.68092  0.48537  1.0000
  C   C329      1.0  0.27515  0.67862  0.51442  1.0000
  C   C330      1.0  0.29239  0.65878  0.52443  1.0000
  C   C331      1.0  0.30410  0.64145  0.50440  1.0000
  C   C332      1.0  0.29875  0.64382  0.47530  1.0000
  H   H252      1.0  0.25645  0.69646  0.47831  1.0000
  H   H253      1.0  0.26639  0.69278  0.52896  1.0000
  H   H254      1.0  0.31751  0.62603  0.51145  1.0000
  H   H255      1.0  0.30801  0.63022  0.46054  1.0000
  C   C333      1.0  0.30429  0.75556  0.37496  1.0000
  H   H256      1.0  0.16759  0.72698  0.58171  1.0000
  H   H257      1.0  0.30295  0.75425  0.35237  1.0000
  H   H258      1.0  0.18646  0.65143  0.46666  1.0000
  C   C334      1.0  0.38210  0.68135  0.40190  1.0000
  C   C335      1.0  0.41666  0.69200  0.39679  1.0000
  C   C336      1.0  0.43912  0.72585  0.40368  1.0000
  C   C337      1.0  0.42695  0.74919  0.41537  1.0000
  C   C338      1.0  0.39209  0.73890  0.41989  1.0000
  C   C339      1.0  0.36988  0.70463  0.41351  1.0000
  P   P12       1.0  0.37567  0.76841  0.43506  1.0000
  C   C340      1.0  0.36918  0.76046  0.47215  1.0000
  C   C341      1.0  0.36384  0.78503  0.48922  1.0000
  C   C342      1.0  0.35866  0.77915  0.51794  1.0000
  C   C343      1.0  0.35917  0.74892  0.52985  1.0000
  C   C344      1.0  0.36501  0.72468  0.51309  1.0000
  C   C345      1.0  0.36960  0.73013  0.48431  1.0000
  C   C346      1.0  0.33632  0.76184  0.41782  1.0000
  C   C347      1.0  0.30735  0.75811  0.43325  1.0000
  C   C348      1.0  0.27717  0.75317  0.41957  1.0000
  C   C349      1.0  0.27568  0.75202  0.39045  1.0000
  H   H259      1.0  0.36461  0.65506  0.39664  1.0000
  H   H260      1.0  0.42595  0.67393  0.38752  1.0000
  C   C350      1.0  0.09391  0.57382  0.56946  1.0000
  H   H261      1.0  0.18613  0.65980  0.51740  1.0000
  H   H262      1.0  0.34304  0.69589  0.41743  1.0000
  H   H263      1.0  0.36323  0.80851  0.48024  1.0000
  H   H264      1.0  0.35404  0.79788  0.53098  1.0000
  H   H265      1.0  0.35464  0.74391  0.55202  1.0000
  H   H266      1.0  0.36504  0.70109  0.52240  1.0000
  H   H267      1.0  0.37303  0.71036  0.47176  1.0000
  H   H268      1.0  0.30747  0.75786  0.45579  1.0000
  H   H269      1.0  0.25467  0.74925  0.43158  1.0000
  H   H270      1.0  0.25216  0.74764  0.37987  1.0000
  H   H271      1.0  0.44481  0.77515  0.42063  1.0000
  C   C351      1.0  0.12420  0.59996  0.61173  1.0000
  H   H272      1.0  0.39526  0.73621  0.35548  1.0000
  C   C352      1.0  0.16024  0.60458  0.52696  1.0000
  C   C353      1.0  0.41152  0.75384  0.33995  1.0000
  H   H273      1.0  0.23596  0.65671  0.57244  1.0000
  C   C354      1.0  0.21770  0.72763  0.58112  1.0000
  C   C355      1.0  0.22070  0.67165  0.57435  1.0000
  C   C356      1.0  0.23680  0.70771  0.57827  1.0000
  C   C357      1.0  0.18244  0.71156  0.57957  1.0000
  H   H274      1.0  0.16049  0.56168  0.61170  1.0000
  C   C358      1.0  0.37846  0.50154  0.59924  1.0000
  H   H275      1.0  0.26418  0.72006  0.57933  1.0000
  H   H276      1.0  0.46596  0.73397  0.39991  1.0000
  C   C359      1.0  0.40589  0.81292  0.42995  1.0000
  H   H277      1.0  0.35605  0.76203  0.37621  1.0000
  C   C360      1.0  0.17432  0.63363  0.50915  1.0000
  C   C361      1.0  0.16632  0.67560  0.57512  1.0000
  H   H278      1.0  0.35201  0.80750  0.65510  1.0000
  H   H279      1.0  0.13901  0.66367  0.57341  1.0000
  H   H280      1.0  0.34435  0.56997  0.62280  1.0000
  H   H281      1.0  0.23026  0.75548  0.58455  1.0000
  C   C362      1.0  0.12459  0.59290  0.58308  1.0000
  C   C363      1.0  0.35985  0.52945  0.63591  1.0000
  C   C364      1.0  0.14677  0.57099  0.51534  1.0000
  H   H282      1.0  0.35539  0.56423  0.57265  1.0000
  C   C365      1.0  0.21700  0.58783  0.55778  1.0000
  H   H283      1.0  0.43591  0.81248  0.46603  1.0000
  H   H284      1.0  0.13710  0.54821  0.52873  1.0000
  C   C366      1.0  0.23575  0.56838  0.56438  1.0000
  C   C367      1.0  0.37238  0.52295  0.57946  1.0000
  H   H285      1.0  0.25748  0.57105  0.55172  1.0000
  H   H286      1.0  0.03993  0.55781  0.62483  1.0000
  H   H287      1.0  0.13665  0.54058  0.47756  1.0000
  C   C368      1.0  0.40309  0.83313  0.40743  1.0000
  H   H288      1.0  0.19373  0.52812  0.62313  1.0000
  H   H289      1.0  0.14756  0.61481  0.62270  1.0000
  H   H290      1.0  0.24207  0.53194  0.59312  1.0000
  C   C369      1.0  0.14679  0.56655  0.48641  1.0000
  H   H291      1.0  0.20241  0.50014  0.33877  1.0000
  H   H292      1.0  0.43200  0.79728  0.36817  1.0000
  C   C370      1.0  0.19989  0.54427  0.60455  1.0000
  H   H293      1.0  0.03985  0.54626  0.57399  1.0000
  H   H294      1.0  0.09379  0.59236  0.64887  1.0000
  H   H295      1.0  0.16166  0.59213  0.44650  1.0000
  C   C371      1.0  0.43311  0.82753  0.44854  1.0000
  Fe  Fe22      1.0  0.23230  0.61907  0.33014  1.0000
  H   H296      1.0  0.42488  0.88253  0.38603  1.0000
  C   C372      1.0  0.42722  0.86716  0.40350  1.0000
  H   H297      1.0  0.38803  0.48276  0.59216  1.0000
  H   H298      1.0  0.35491  0.53247  0.65764  1.0000
  C   C373      1.0  0.43230  0.78813  0.34711  1.0000
  Fe  Fe23      1.0  0.24321  0.63413  0.65977  1.0000
  Fe  Fe24      1.0  0.30806  0.63070  0.33097  1.0000
  H   H299      1.0  0.38364  0.87164  0.66088  1.0000
  C   C374      1.0  0.45420  0.88142  0.42207  1.0000
  C   C375      1.0  0.45711  0.86163  0.44461  1.0000
  H   H300      1.0  0.46934  0.83736  0.33244  1.0000
  H   H301      1.0  0.47280  0.90784  0.41903  1.0000
  H   H302      1.0  0.40367  0.74667  0.72018  1.0000
  S   S46       1.0  0.28485  0.65116  0.69168  1.0000
  S   S47       1.0  0.44594  0.50630  0.82021  1.0000
  Fe  Fe25      1.0  0.44947  0.51616  0.77366  1.0000
  S   S48       1.0  0.44376  0.56525  0.75697  1.0000
  S   S49       1.0  0.42527  0.93404  0.78984  1.0000
  Fe  Fe26      1.0  0.43607  0.95265  0.74570  1.0000
  S   S50       1.0  0.41684  0.91558  0.70774  1.0000
  C   C376      1.0  0.26719  0.66465  0.85532  1.0000
  C   C377      1.0  0.33407  0.54694  0.80838  1.0000
  S   S51       1.0  0.04581  0.56073  0.73396  1.0000
  C   C378      1.0  0.25982  0.84694  0.86834  1.0000
  H   H303      1.0  0.39106  0.75318  0.76974  1.0000
  C   C379      1.0  0.37391  0.80985  0.72330  1.0000
  H   H304      1.0  0.42523  0.87025  0.93583  1.0000
  C   C380      1.0  0.09124  0.80102  0.97861  1.0000
  C   C381      1.0  0.37070  0.61499  0.78944  1.0000
  H   H305      1.0  0.41775  0.55167  0.66642  1.0000
  H   H306      1.0  0.36951  0.88749  0.83306  1.0000
  H   H307      1.0  0.45467  0.53895  0.94413  1.0000
  H   H308      1.0  0.42525  0.79845  0.82646  1.0000
  H   H309      1.0  0.39738  0.63564  0.70215  1.0000
  H   H310      1.0  0.35271  0.70220  0.79660  1.0000
  H   H311      1.0  0.47513  0.66540  0.90291  1.0000
  C   C382      1.0  0.36307  0.81797  0.67506  1.0000
  H   H312      1.0  0.40470  0.56019  0.91780  1.0000
  C   C383      1.0  0.45873  0.62715  0.99056  1.0000
  C   C384      1.0  0.03578  0.49202  0.96592  1.0000
  H   H313      1.0  0.31689  0.75546  0.81987  1.0000
  H   H314      1.0  0.42859  0.85240  0.80274  1.0000
  C   C385      1.0  0.22355  0.58854  0.73717  1.0000
  C   C386      1.0  0.39241  0.60989  0.71009  1.0000
  C   C387      1.0  0.12227  0.82609  0.96840  1.0000
  H   H315      1.0  0.37670  0.85854  0.78839  1.0000
  H   H316      1.0  0.33943  0.63781  0.72369  1.0000
  H   H317      1.0  0.37837  0.68878  0.69754  1.0000
  C   C388      1.0  0.35900  0.79527  0.69759  1.0000
  H   H318      1.0  0.23259  0.86333  0.83791  1.0000
  C   C389      1.0  0.43832  0.48313  0.68201  1.0000
  H   H319      1.0  0.31391  0.76224  0.75413  1.0000
  C   C390      1.0  0.08525  0.56952  0.71607  1.0000
  C   C391      1.0  0.09134  0.54432  0.70049  1.0000
  C   C392      1.0  0.12253  0.55298  0.68623  1.0000
  H   H320      1.0  0.07184  0.51818  0.69919  1.0000
  C   C393      1.0  0.33544  0.90757  0.75515  1.0000
  C   C394      1.0  0.36213  0.58194  0.70312  1.0000
  C   C395      1.0  0.35663  0.54857  0.71350  1.0000
  C   C396      1.0  0.38110  0.54303  0.73003  1.0000
  C   C397      1.0  0.41161  0.57080  0.73651  1.0000
  C   C398      1.0  0.41688  0.60433  0.72668  1.0000
  C   C399      1.0  0.27911  0.63849  0.85913  1.0000
  C   C400      1.0  0.25005  0.85099  0.84125  1.0000
  H   H321      1.0  0.37639  0.51729  0.73780  1.0000
  H   H322      1.0  0.44028  0.62613  0.73163  1.0000
  C   C401      1.0  0.39532  0.86905  0.70431  1.0000
  C   C402      1.0  0.39203  0.84628  0.72656  1.0000
  H   H323      1.0  0.16195  0.63819  0.70435  1.0000
  C   C403      1.0  0.38107  0.85448  0.67842  1.0000
  C   C404      1.0  0.24102  0.75652  0.78570  1.0000
  C   C405      1.0  0.43038  0.91526  0.88293  1.0000
  P   P13       1.0  0.43356  0.94286  0.93594  1.0000
  H   H324      1.0  0.30311  0.94502  0.85642  1.0000
  C   C406      1.0  0.38113  0.89631  0.85313  1.0000
  C   C407      1.0  0.36287  0.90414  0.87411  1.0000
  C   C408      1.0  0.37826  0.91754  0.89959  1.0000
  C   C409      1.0  0.41206  0.92279  0.90429  1.0000
  H   H325      1.0  0.40322  0.49854  0.91992  1.0000
  H   H326      1.0  0.41483  0.60369  0.79467  1.0000
  H   H327      1.0  0.30213  0.60719  0.84019  1.0000
  C   C410      1.0  0.30979  0.83788  0.73807  1.0000
  Fe  Fe27      1.0  0.22004  0.93885  0.98522  1.0000
  H   H328      1.0  0.38247  0.54337  0.81118  1.0000
  C   C411      1.0  0.43316  0.56877  0.87950  1.0000
  C   C412      1.0  0.13909  0.85829  0.98200  1.0000
  H   H329      1.0  0.31611  0.85843  0.69623  1.0000
  C   C413      1.0  0.26314  0.83964  0.81844  1.0000
  H   H330      1.0  0.28587  0.68185  0.78661  1.0000
  H   H331      1.0  0.37164  0.79291  0.74086  1.0000
  C   C414      1.0  0.46377  0.63849  0.89619  1.0000
  C   C415      1.0  0.43917  0.61394  0.91308  1.0000
  H   H332      1.0  0.46455  0.58452  0.84315  1.0000
  H   H333      1.0  0.27468  0.70735  0.73326  1.0000
  C   C416      1.0  0.38486  0.95717  0.96503  1.0000
  C   C417      1.0  0.40416  0.83126  0.80669  1.0000
  S   S52       1.0  0.99360  0.65714  0.91279  1.0000
  H   H334      1.0  0.29392  0.96241  0.90433  1.0000
  C   C418      1.0  0.31403  0.84583  0.76666  1.0000
  H   H335      1.0  0.33726  0.90143  0.87007  1.0000
  H   H336      1.0  0.36393  0.92474  0.91502  1.0000
  C   C419      1.0  0.01969  0.48678  0.88761  1.0000
  C   C420      1.0  0.46214  0.92245  0.94437  1.0000
  C   C421      1.0  0.37072  0.77357  0.82472  1.0000
  H   H337      1.0  0.30067  0.81129  0.73076  1.0000
  H   H338      1.0  0.24985  0.85609  0.88595  1.0000
  C   C422      1.0  0.33531  0.60230  0.79167  1.0000
  H   H339      1.0  0.01286  0.63938  0.85974  1.0000
  H   H340      1.0  0.05384  0.51828  0.96172  1.0000
  H   H341      1.0  0.33326  0.52672  0.70858  1.0000
  C   C423      1.0  0.34113  0.77673  0.81609  1.0000
  C   C424      1.0  0.40225  0.80082  0.81995  1.0000
  C   C425      1.0  0.28635  0.82432  0.82253  1.0000
  C   C426      1.0  0.43194  0.53726  0.67390  1.0000
  H   H342      1.0  0.43938  0.71440  0.77070  1.0000
  C   C427      1.0  0.32410  0.96397  0.86776  1.0000
  H   H343      1.0  0.41276  0.69269  0.81679  1.0000
  H   H344      1.0  0.33030  0.88805  0.79686  1.0000
  C   C428      1.0  0.43608  0.51736  0.95558  1.0000
  H   H345      1.0  0.20064  0.59312  0.73533  1.0000
  P   P14       1.0  0.30454  0.81179  0.79263  1.0000
  P   P15       1.0  0.00136  0.49788  0.91802  1.0000
  H   H346      1.0  0.30637  0.57359  0.74068  1.0000
  C   C429      1.0  0.03259  0.51077  0.86563  1.0000
  C   C430      1.0  0.37460  0.83464  0.79845  1.0000
  H   H347      1.0  0.27695  0.62627  0.87940  1.0000
  C   C431      1.0  0.33156  0.89945  0.72678  1.0000
  H   H348      1.0  0.45703  0.92085  0.88544  1.0000
  H   H349      1.0  0.09549  0.61486  0.92144  1.0000
  H   H350      1.0  0.38533  0.64059  0.78101  1.0000
  C   C432      1.0  0.01993  0.54419  0.92490  1.0000
  C   C433      1.0  0.05450  0.56391  0.91980  1.0000
  C   C434      1.0  0.06905  0.59953  0.92601  1.0000
  C   C435      1.0  0.04939  0.61552  0.93792  1.0000
  C   C436      1.0  0.01525  0.59587  0.94367  1.0000
  C   C437      1.0  0.00041  0.56054  0.93684  1.0000
  C   C438      1.0  0.38759  0.59402  0.79705  1.0000
  H   H351      1.0  0.43201  0.62189  0.93268  1.0000
  H   H352      1.0  0.42141  0.54173  0.87299  1.0000
  C   C439      1.0  0.40308  0.93604  0.96367  1.0000
  H   H353      1.0  0.10700  0.62332  0.72896  1.0000
  H   H354      1.0  0.25554  0.84334  0.79756  1.0000
  C   C440      1.0  0.39669  0.90951  0.98363  1.0000
  H   H355      1.0  0.23093  0.77019  0.79972  1.0000
  H   H356      1.0  0.03171  0.53622  0.86653  1.0000
  C   C441      1.0  0.22809  0.56400  0.71986  1.0000
  H   H357      1.0  0.31989  0.52027  0.81512  1.0000
  H   H358      1.0  0.07021  0.55179  0.91100  1.0000
  Fe  Fe28      1.0  0.41157  0.97963  0.79754  1.0000
  H   H359      1.0  0.06031  0.64324  0.94235  1.0000
  H   H360      1.0  0.00002  0.60835  0.95278  1.0000
  Fe  Fe29      1.0  0.31019  0.70075  0.66627  1.0000
  H   H361      1.0  0.36921  0.75003  0.83510  1.0000
  C   C442      1.0  0.36038  0.95161  0.98572  1.0000
  C   C443      1.0  0.27560  0.77027  0.77886  1.0000
  S   S53       1.0  0.36143  0.96574  0.82068  1.0000
  C   C444      1.0  0.28317  0.57767  0.74036  1.0000
  C   C445      1.0  0.27899  0.60254  0.75784  1.0000
  C   C446      1.0  0.24888  0.60785  0.75601  1.0000
  P   P16       1.0  0.31312  0.62876  0.78074  1.0000
  C   C447      1.0  0.29578  0.64299  0.81030  1.0000
  C   C448      1.0  0.43702  0.69222  0.81171  1.0000
  H   H362      1.0  0.05520  0.52001  0.82462  1.0000
  H   H363      1.0  0.21367  0.68300  0.74578  1.0000
  C   C449      1.0  0.31841  0.86464  0.71828  1.0000
  H   H364      1.0  0.22381  0.85750  0.98208  1.0000
  H   H365      1.0  0.38912  0.97765  0.94978  1.0000
  C   C450      1.0  0.28417  0.66963  0.80681  1.0000
  C   C451      1.0  0.04563  0.50158  0.84168  1.0000
  C   C452      1.0  0.26973  0.68022  0.82914  1.0000
  H   H366      1.0  0.43680  0.63340  0.99230  1.0000
  H   H367      1.0  0.98459  0.59063  0.82671  1.0000
  C   C453      1.0  0.34214  0.66630  0.76184  1.0000
  C   C454      1.0  0.35775  0.69890  0.77496  1.0000
  C   C455      1.0  0.37995  0.72778  0.76000  1.0000
  C   C456      1.0  0.38742  0.72411  0.73213  1.0000
  C   C457      1.0  0.37295  0.69154  0.71928  1.0000
  C   C458      1.0  0.35052  0.66273  0.73410  1.0000
  Fe  Fe30      1.0  0.99428  0.51763  0.74857  1.0000
  C   C459      1.0  0.21887  0.72492  0.77407  1.0000
  C   C460      1.0  0.34287  0.80741  0.80299  1.0000
  S   S54       1.0  0.17799  0.88906  0.96770  1.0000
  H   H368      1.0  0.44081  0.66886  0.85068  1.0000
  H   H369      1.0  0.34583  0.93460  0.76178  1.0000
  C   C461      1.0  0.42383  0.57912  0.90472  1.0000
  H   H370      1.0  0.33954  0.92016  0.71136  1.0000
  S   S55       1.0  0.98894  0.50365  0.79451  1.0000
  C   C462      1.0  0.31709  0.56801  0.80110  1.0000
  C   C463      1.0  0.14852  0.58684  0.68746  1.0000
  H   H371      1.0  0.40384  0.85694  0.74616  1.0000
  C   C464      1.0  0.11123  0.60343  0.71718  1.0000
  C   C465      1.0  0.41971  0.50093  0.67070  1.0000
  S   S56       1.0  0.33500  0.74888  0.69531  1.0000
  C   C466      1.0  0.44153  0.51165  0.98373  1.0000
  C   C467      1.0  0.23096  0.70706  0.75531  1.0000
  H   H372      1.0  0.19212  0.71457  0.77914  1.0000
  H   H373      1.0  0.28972  0.55734  0.80228  1.0000
  H   H374      1.0  0.29042  0.82866  0.89366  1.0000
  H   H375      1.0  0.26188  0.54029  0.70747  1.0000
  C   C468      1.0  0.14259  0.61198  0.70323  1.0000
  C   C469      1.0  0.29599  0.82025  0.84986  1.0000
  C   C470      1.0  0.41484  0.90173  0.85758  1.0000
  C   C471      1.0  0.45199  0.70451  0.78579  1.0000
  C   C472      1.0  0.26528  0.72065  0.74833  1.0000
  C   C473      1.0  0.28753  0.75193  0.76020  1.0000
  C   C474      1.0  0.29334  0.62764  0.83673  1.0000
  C   C475      1.0  0.28265  0.83144  0.87264  1.0000
  H   H376      1.0  0.31415  0.80905  0.85374  1.0000
  C   C476      1.0  0.32666  0.88095  0.77502  1.0000
  S   S57       1.0  0.27138  0.93694  0.98842  1.0000
  C   C477      1.0  0.25786  0.55854  0.72149  1.0000
  C   C478      1.0  0.45109  0.88611  0.94177  1.0000
  H   H377      1.0  0.24475  0.62703  0.76864  1.0000
  H   H378      1.0  0.13328  0.82053  0.94972  1.0000
  S   S58       1.0  0.18727  0.59621  0.66842  1.0000
  H   H379      1.0  0.42953  0.89686  0.84107  1.0000
  C   C479      1.0  0.40681  0.49495  0.94187  1.0000
  C   C480      1.0  0.98925  0.61835  0.86564  1.0000
  H   H380      1.0  0.07878  0.77648  0.96783  1.0000
  C   C481      1.0  0.46247  0.55545  0.68776  1.0000
  C   C482      1.0  0.36931  0.55994  0.80632  1.0000
  H   H381      1.0  0.46512  0.84223  0.94336  1.0000
  S   S59       1.0  0.33103  0.58643  0.68053  1.0000
  H   H382      1.0  0.26009  0.70018  0.82600  1.0000
  H   H383      1.0  0.25571  0.67262  0.87259  1.0000
  H   H384      1.0  0.20882  0.54985  0.70471  1.0000
  Fe  Fe31      1.0  0.31333  0.62854  0.66435  1.0000
  C   C483      1.0  0.45780  0.59323  0.86259  1.0000
  C   C484      1.0  0.45299  0.67866  0.83087  1.0000
  S   S60       1.0  0.02289  0.68265  0.98794  1.0000
  H   H385      1.0  0.34649  0.96811  0.98661  1.0000
  C   C485      1.0  0.31883  0.97373  0.89495  1.0000
  H   H386      1.0  0.12649  0.53320  0.67409  1.0000
  Fe  Fe32      1.0  0.97958  0.66452  0.95744  1.0000
  C   C486      1.0  0.35623  0.97868  0.85507  1.0000
  C   C487      1.0  0.47352  0.62827  0.87090  1.0000
  H   H387      1.0  0.41053  0.89305  0.98338  1.0000
  C   C488      1.0  0.47360  0.87014  0.94595  1.0000
  C   C489      1.0  0.46888  0.50145  0.69576  1.0000
  H   H388      1.0  0.28091  0.85949  0.99179  1.0000
  H   H389      1.0  0.97810  0.92301  0.95423  1.0000
  H   H390      1.0  0.47124  0.58331  0.69092  1.0000
  H   H391      1.0  0.01162  0.54780  0.99315  1.0000
  H   H392      1.0  0.59269  0.06467  0.16486  1.0000
  C   C490      1.0  0.88932  0.39761  0.10083  1.0000
  S   S61       1.0  0.67786  0.98229  0.01694  1.0000
  S   S62       1.0  0.62570  0.31524  0.29275  1.0000
  C   C491      1.0  0.95791  0.15677  0.03620  1.0000
  C   C492      1.0  0.89607  0.41622  0.07572  1.0000
  S   S63       1.0  0.51051  0.43742  0.22831  1.0000
  H   H393      1.0  0.54126  0.16533  0.16439  1.0000
  S   S64       1.0  0.52506  0.05985  0.25476  1.0000
  C   C493      1.0  0.53869  0.00664  0.01129  1.0000
  S   S65       1.0  0.55996  0.21776  0.29515  1.0000
  H   H394      1.0  0.57885  0.23628  0.23368  1.0000
  H   H395      1.0  0.55744  0.43441  0.32248  1.0000
  C   C494      1.0  0.67196  0.24373  0.27034  1.0000
  H   H396      1.0  0.55316  0.00347  0.15386  1.0000
  S   S66       1.0  0.72303  0.33607  0.29623  1.0000
  C   C495      1.0  0.52545  0.45038  0.11448  1.0000
  H   H397      1.0  0.88326  0.28718  0.09782  1.0000
  Fe  Fe33      1.0  0.94902  0.32259  0.01654  1.0000
  S   S67       1.0  0.93845  0.26553  0.02077  1.0000
  H   H398      1.0  0.67136  0.29532  0.10282  1.0000
  Fe  Fe34      1.0  0.63563  0.99865  0.02876  1.0000
  H   H399      1.0  0.64992  0.46248  0.23918  1.0000
  S   S68       1.0  0.62640  0.01237  0.07308  1.0000
  S   S69       1.0  0.87510  0.44976  0.27242  1.0000
  C   C496      1.0  0.89067  0.44386  0.01434  1.0000
  C   C497      1.0  0.57862  0.12972  0.19740  1.0000
  H   H400      1.0  0.51788  0.10296  0.15968  1.0000
  H   H401      1.0  0.49904  0.43845  0.12070  1.0000
  S   S70       1.0  0.95765  0.38866  0.17516  1.0000
  S   S71       1.0  0.65036  0.04163  0.99675  1.0000
  H   H402      1.0  0.90165  0.40437  0.05743  1.0000
  C   C498      1.0  0.97153  0.40818  0.09172  1.0000
  H   H403      1.0  0.70539  0.27998  0.13782  1.0000
  C   C499      1.0  0.88390  0.44615  0.12432  1.0000
  Fe  Fe35      1.0  0.48407  0.01400  0.23087  1.0000
  C   C500      1.0  0.60218  0.15864  0.18316  1.0000
  Fe  Fe36      1.0  0.91812  0.46045  0.23977  1.0000
  P   P17       1.0  0.90629  0.47475  0.04265  1.0000
  C   C501      1.0  0.59355  0.48136  0.09863  1.0000
  C   C502      1.0  0.58433  0.00788  0.11734  1.0000
  S   S72       1.0  0.96494  0.44820  0.24139  1.0000
  H   H404      1.0  0.83806  0.46677  0.05836  1.0000
  H   H405      1.0  0.60410  0.03226  0.12384  1.0000
  C   C503      1.0  0.55104  0.17393  0.28394  1.0000
  C   C504      1.0  0.52037  0.15477  0.27002  1.0000
  C   C505      1.0  0.51218  0.12029  0.26059  1.0000
  C   C506      1.0  0.53415  0.10381  0.26559  1.0000
  C   C507      1.0  0.56469  0.12285  0.27973  1.0000
  H   H406      1.0  0.50262  0.16661  0.26663  1.0000
  Fe  Fe37      1.0  0.60988  0.34291  0.32648  1.0000
  C   C508      1.0  0.56702  0.39926  0.29439  1.0000
  C   C509      1.0  0.56282  0.38682  0.26691  1.0000
  C   C510      1.0  0.54585  0.39903  0.24704  1.0000
  C   C511      1.0  0.53273  0.42382  0.25420  1.0000
  C   C512      1.0  0.53739  0.43661  0.28156  1.0000
  C   C513      1.0  0.55436  0.42443  0.30140  1.0000
  H   H407      1.0  0.57235  0.36754  0.26104  1.0000
  H   H408      1.0  0.54266  0.38900  0.22598  1.0000
  H   H409      1.0  0.87860  0.39830  0.14468  1.0000
  C   C514      1.0  0.96886  0.41269  0.12059  1.0000
  C   C515      1.0  0.76442  0.36918  0.28864  1.0000
  C   C516      1.0  0.78566  0.36157  0.26978  1.0000
  C   C517      1.0  0.81899  0.38607  0.26391  1.0000
  C   C518      1.0  0.83210  0.41858  0.27722  1.0000
  C   C519      1.0  0.81079  0.42622  0.29603  1.0000
  C   C520      1.0  0.77718  0.40204  0.30141  1.0000
  H   H410      1.0  0.83484  0.37947  0.24955  1.0000
  C   C521      1.0  0.62888  0.42127  0.20911  1.0000
  H   H411      1.0  0.63065  0.40152  0.22289  1.0000
  H   H412      1.0  0.94517  0.32854  0.14115  1.0000
  C   C522      1.0  0.90295  0.24851  0.10696  1.0000
  C   C523      1.0  0.49925  0.19818  0.20790  1.0000
  C   C524      1.0  0.50477  0.17877  0.18624  1.0000
  H   H413      1.0  0.57549  0.46554  0.05686  1.0000
  H   H414      1.0  0.47789  0.48195  0.03431  1.0000
  C   C525      1.0  0.55548  0.99172  0.13432  1.0000
  C   C526      1.0  0.55873  0.22060  0.21983  1.0000
  H   H415      1.0  0.67818  0.29448  0.25561  1.0000
  C   C527      1.0  0.85171  0.20447  0.07215  1.0000
  C   C528      1.0  0.87368  0.19191  0.08513  1.0000
  C   C529      1.0  0.89998  0.21452  0.10192  1.0000
  P   P18       1.0  0.87152  0.14901  0.07709  1.0000
  C   C530      1.0  0.83042  0.12079  0.06401  1.0000
  C   C531      1.0  0.90369  0.15594  0.05092  1.0000
  C   C532      1.0  0.93302  0.15038  0.05673  1.0000
  H   H416      1.0  0.94857  0.32067  0.08978  1.0000
  C   C533      1.0  0.62286  0.47225  0.17408  1.0000
  C   C534      1.0  0.63702  0.48115  0.20083  1.0000
  C   C535      1.0  0.90030  0.16924  0.02476  1.0000
  C   C536      1.0  0.82743  0.09817  0.04160  1.0000
  C   C537      1.0  0.79552  0.07455  0.03295  1.0000
  C   C538      1.0  0.76640  0.07346  0.04642  1.0000
  C   C539      1.0  0.76915  0.09572  0.06883  1.0000
  C   C540      1.0  0.80106  0.11909  0.07781  1.0000
  C   C541      1.0  0.87681  0.12641  0.10760  1.0000
  C   C542      1.0  0.88177  0.09549  0.10440  1.0000
  C   C543      1.0  0.88482  0.07703  0.12782  1.0000
  C   C544      1.0  0.88227  0.08893  0.15460  1.0000
  C   C545      1.0  0.87628  0.11908  0.15796  1.0000
  C   C546      1.0  0.87321  0.13760  0.13457  1.0000
  C   C547      1.0  0.60740  0.24039  0.14368  1.0000
  Fe  Fe38      1.0  0.67214  0.32489  0.31910  1.0000
  Fe  Fe39      1.0  0.47863  0.46849  0.21553  1.0000
  H   H417      1.0  0.83240  0.18827  0.05786  1.0000
  H   H418      1.0  0.91828  0.20595  0.11101  1.0000
  H   H419      1.0  0.93714  0.14175  0.07711  1.0000
  S   S73       1.0  0.58680  0.38385  0.32109  1.0000
  H   H420      1.0  0.55353  0.09837  0.12045  1.0000
  C   C548      1.0  0.55045  0.46626  0.13451  1.0000
  H   H421      1.0  0.87845  0.17490  0.02024  1.0000
  H   H422      1.0  0.84960  0.09851  0.03082  1.0000
  H   H423      1.0  0.79319  0.05751  0.01533  1.0000
  H   H424      1.0  0.74169  0.05569  0.03914  1.0000
  H   H425      1.0  0.74649  0.09483  0.07919  1.0000
  H   H426      1.0  0.80284  0.13579  0.09549  1.0000
  H   H427      1.0  0.88308  0.08555  0.08376  1.0000
  H   H428      1.0  0.88888  0.05332  0.12520  1.0000
  H   H429      1.0  0.88451  0.07455  0.17275  1.0000
  H   H430      1.0  0.87367  0.12795  0.17873  1.0000
  H   H431      1.0  0.86750  0.16022  0.13770  1.0000
  C   C549      1.0  0.95933  0.38397  0.13855  1.0000
  C   C550      1.0  0.57311  0.15754  0.28876  1.0000
  H   H432      1.0  0.63444  0.11531  0.13938  1.0000
  H   H433      1.0  0.59657  0.17149  0.29969  1.0000
  H   H434      1.0  0.88983  0.37198  0.10166  1.0000
  H   H435      1.0  0.83851  0.24833  0.06612  1.0000
  C   C551      1.0  0.62229  0.15324  0.16213  1.0000
  C   C552      1.0  0.61234  0.43769  0.16485  1.0000
  C   C553      1.0  0.66676  0.26668  0.25169  1.0000
  C   C554      1.0  0.95407  0.34619  0.09832  1.0000
  H   H436      1.0  0.60131  0.43012  0.14438  1.0000
  S   S74       1.0  0.90785  0.44621  0.19459  1.0000
  C   C555      1.0  0.96377  0.37492  0.08045  1.0000
  C   C556      1.0  0.57518  0.09600  0.19067  1.0000
  H   H437      1.0  0.64080  0.17494  0.15088  1.0000
  H   H438      1.0  0.50246  0.06343  0.02491  1.0000
  H   H439      1.0  0.93646  0.43441  0.01124  1.0000
  C   C557      1.0  0.48411  0.34789  0.31514  1.0000
  C   C558      1.0  0.56850  0.46557  0.07858  1.0000
  H   H440      1.0  0.62527  0.16700  0.23846  1.0000
  H   H441      1.0  0.77004  0.17264  0.01416  1.0000
  C   C559      1.0  0.53444  0.45040  0.08647  1.0000
  H   H442      1.0  0.49131  0.29740  0.26221  1.0000
  C   C560      1.0  0.88318  0.41252  0.12512  1.0000
  C   C561      1.0  0.56450  0.20107  0.19820  1.0000
  H   H443      1.0  0.52203  0.23363  0.24188  1.0000
  H   H444      1.0  0.58011  0.22974  0.14492  1.0000
  C   C562      1.0  0.85516  0.23868  0.07676  1.0000
  C   C563      1.0  0.53238  0.03673  0.00970  1.0000
  C   C564      1.0  0.61535  0.41232  0.18235  1.0000
  C   C565      1.0  0.63693  0.19489  0.24168  1.0000
  H   H445      1.0  0.51499  0.43863  0.07091  1.0000
  C   C566      1.0  0.52627  0.21923  0.22455  1.0000
  C   C567      1.0  0.65706  0.20784  0.26534  1.0000
  C   C568      1.0  0.67802  0.26888  0.13939  1.0000
  C   C569      1.0  0.50623  0.08793  0.14134  1.0000
  H   H446      1.0  0.68745  0.25392  0.28871  1.0000
  C   C570      1.0  0.53729  0.18034  0.18131  1.0000
  C   C571      1.0  0.92545  0.17608  0.00445  1.0000
  Fe  Fe40      1.0  0.95576  0.43717  0.19513  1.0000
  H   H447      1.0  0.76137  0.40858  0.31583  1.0000
  C   C572      1.0  0.62356  0.26322  0.12180  1.0000
  C   C573      1.0  0.65884  0.27752  0.11969  1.0000
  H   H448      1.0  0.67723  0.23951  0.17630  1.0000
  H   H449      1.0  0.60872  0.26993  0.10650  1.0000
  C   C574      1.0  0.59526  0.09084  0.16979  1.0000
  H   H450      1.0  0.66082  0.19002  0.27998  1.0000
  C   C575      1.0  0.48727  0.01250  0.04398  1.0000
  H   H451      1.0  0.87959  0.45809  0.14315  1.0000
  C   C576      1.0  0.64672  0.25391  0.22809  1.0000
  C   C577      1.0  0.50677  0.03973  0.02600  1.0000
  C   C578      1.0  0.89661  0.44999  0.07475  1.0000
  H   H452      1.0  0.52728  0.06189  0.07982  1.0000
  C   C579      1.0  0.62652  0.23187  0.16373  1.0000
  C   C580      1.0  0.61878  0.11943  0.15550  1.0000
  C   C581      1.0  0.66196  0.24602  0.16125  1.0000
  H   H453      1.0  0.55704  0.07377  0.20181  1.0000
  H   H454      1.0  0.97448  0.43837  0.12899  1.0000
  H   H455      1.0  0.48378  0.16218  0.17349  1.0000
  C   C582      1.0  0.88056  0.26061  0.09435  1.0000
  P   P19       1.0  0.60619  0.20208  0.19196  1.0000
  H   H456      1.0  0.56303  0.13321  0.21386  1.0000
  C   C583      1.0  0.63173  0.21791  0.22282  1.0000
  H   H457      1.0  0.92295  0.26571  0.12028  1.0000
  H   H458      1.0  0.52787  0.45586  0.28751  1.0000
  H   H459      1.0  0.77636  0.33637  0.25973  1.0000
  H   H460      1.0  0.64273  0.27221  0.21411  1.0000
  H   H461      1.0  0.60675  0.38558  0.17534  1.0000
  C   C584      1.0  0.52624  0.08508  0.11934  1.0000
  C   C585      1.0  0.51113  0.06425  0.09623  1.0000
  C   C586      1.0  0.95411  0.16958  0.01008  1.0000
  H   H462      1.0  0.58200  0.11060  0.28380  1.0000
  H   H463      1.0  0.51810  0.32294  0.30723  1.0000
  H   H464      1.0  0.82043  0.45115  0.30654  1.0000
  H   H465      1.0  0.84097  0.44502  0.01253  1.0000
  C   C587      1.0  0.91109  0.42784  0.00341  1.0000
  C   C588      1.0  0.48149  0.31316  0.27422  1.0000
  H   H466      1.0  0.54313  0.46565  0.15616  1.0000
  C   C589      1.0  0.49640  0.32722  0.29970  1.0000
  C   C590      1.0  0.58826  0.99228  0.09237  1.0000
  C   C591      1.0  0.63981  0.45568  0.21830  1.0000
  S   S75       1.0  0.96749  0.37102  0.04400  1.0000
  H   H467      1.0  0.48857  0.10625  0.24986  1.0000
  Fe  Fe41      1.0  0.59959  0.26594  0.31799  1.0000
  H   H468      1.0  0.55889  0.00465  0.99903  1.0000
  C   C592      1.0  0.85745  0.43356  0.00440  1.0000
  H   H469      1.0  0.48541  0.28087  0.05956  1.0000
  H   H470      1.0  0.50658  0.26195  0.32140  1.0000
  H   H471      1.0  0.54768  0.05774  0.99594  1.0000
  C   C593      1.0  0.95220  0.35076  0.12730  1.0000
  C   C594      1.0  0.89111  0.46503  0.09940  1.0000
  C   C595      1.0  0.49394  0.98236  0.04548  1.0000
  H   H472      1.0  0.97032  0.27484  0.07727  1.0000
  S   S76       1.0  0.83928  0.21606  0.00182  1.0000
  H   H473      1.0  0.96320  0.48040  0.07929  1.0000
  C   C596      1.0  0.77959  0.15737  0.00132  1.0000
  H   H474      1.0  0.73209  0.11182  0.00172  1.0000
  S   S77       1.0  0.47680  0.01298  0.18425  1.0000
  C   C597      1.0  0.74014  0.38109  0.39798  1.0000
  S   S78       1.0  0.65793  0.35550  0.35176  1.0000
  C   C598      1.0  0.49570  0.09519  0.34986  1.0000
  S   S79       1.0  0.58119  0.29335  0.35074  1.0000
  H   H475      1.0  0.82534  0.23530  0.56406  1.0000
  Fe  Fe42      1.0  0.62974  0.30441  0.37455  1.0000
  S   S80       1.0  0.63108  0.29279  0.42266  1.0000
  H   H476      1.0  0.80340  0.27647  0.58405  1.0000
  Fe  Fe43      1.0  0.63187  0.31910  0.60314  1.0000
  S   S81       1.0  0.65032  0.28258  0.62595  1.0000
  S   S82       1.0  0.63327  0.33160  0.55496  1.0000
  H   H477      1.0  0.49621  0.35921  0.33466  1.0000
  C   C599      1.0  0.52701  0.17183  0.38114  1.0000
  C   C600      1.0  0.71498  0.31824  0.39171  1.0000
  C   C601      1.0  0.76210  0.35404  0.36273  1.0000
  H   H478      1.0  0.69579  0.29292  0.39731  1.0000
  S   S83       1.0  0.65983  0.36350  0.63319  1.0000
  S   S84       1.0  0.58358  0.30183  0.62898  1.0000
  C   C602      1.0  0.72854  0.38105  0.49399  1.0000
  H   H479      1.0  0.78058  0.40921  0.36888  1.0000
  H   H480      1.0  0.69714  0.34544  0.42121  1.0000
  H   H481      1.0  0.52956  0.13403  0.65873  1.0000
  C   C603      1.0  0.71583  0.34807  0.40529  1.0000
  C   C604      1.0  0.73810  0.32122  0.37040  1.0000
  H   H482      1.0  0.60614  0.19374  0.35427  1.0000
  C   C605      1.0  0.67460  0.41697  0.40360  1.0000
  C   C606      1.0  0.63160  0.30421  0.45937  1.0000
  C   C607      1.0  0.63065  0.33565  0.46850  1.0000
  C   C608      1.0  0.63096  0.34329  0.49747  1.0000
  C   C609      1.0  0.63224  0.31988  0.51826  1.0000
  C   C610      1.0  0.63323  0.28844  0.50912  1.0000
  C   C611      1.0  0.63298  0.28081  0.48014  1.0000
  H   H483      1.0  0.62937  0.35406  0.45324  1.0000
  H   H484      1.0  0.63005  0.36764  0.50384  1.0000
  H   H485      1.0  0.63417  0.26988  0.52444  1.0000
  H   H486      1.0  0.63369  0.25637  0.47377  1.0000
  C   C612      1.0  0.76290  0.47695  0.62932  1.0000
  H   H487      1.0  0.54626  0.16301  0.34153  1.0000
  H   H488      1.0  0.74316  0.45504  0.36105  1.0000
  C   C613      1.0  0.70848  0.42943  0.39476  1.0000
  H   H489      1.0  0.73689  0.29826  0.35926  1.0000
  C   C614      1.0  0.76278  0.38397  0.37608  1.0000
  H   H490      1.0  0.51722  0.22972  0.64527  1.0000
  C   C615      1.0  0.57020  0.20555  0.41442  1.0000
  C   C616      1.0  0.47746  0.11616  0.34646  1.0000
  S   S85       1.0  0.64656  0.27393  0.34283  1.0000
  C   C617      1.0  0.72851  0.41157  0.45084  1.0000
  P   P20       1.0  0.73916  0.41944  0.41429  1.0000
  C   C618      1.0  0.79243  0.19159  0.58856  1.0000
  C   C619      1.0  0.71149  0.39873  0.50755  1.0000
  C   C620      1.0  0.55260  0.17408  0.36216  1.0000
  P   P21       1.0  0.75171  0.26873  0.62548  1.0000
  C   C621      1.0  0.73734  0.28893  0.59797  1.0000
  C   C622      1.0  0.75445  0.20330  0.62025  1.0000
  C   C623      1.0  0.65061  0.42328  0.38756  1.0000
  H   H491      1.0  0.62183  0.22192  0.40074  1.0000
  C   C624      1.0  0.53609  0.18781  0.40737  1.0000
  C   C625      1.0  0.73724  0.38759  0.46582  1.0000
  H   H492      1.0  0.64118  0.44514  0.34945  1.0000
  C   C626      1.0  0.72867  0.27296  0.57168  1.0000
  C   C627      1.0  0.71467  0.28701  0.55127  1.0000
  C   C628      1.0  0.70903  0.31688  0.55701  1.0000
  C   C629      1.0  0.71749  0.33289  0.58306  1.0000
  C   C630      1.0  0.73130  0.31881  0.60356  1.0000
  C   C631      1.0  0.76711  0.23810  0.61110  1.0000
  C   C632      1.0  0.70382  0.42358  0.49307  1.0000
  C   C633      1.0  0.49103  0.06786  0.33136  1.0000
  H   H493      1.0  0.80212  0.17361  0.57978  1.0000
  C   C634      1.0  0.76700  0.18013  0.60888  1.0000
  C   C635      1.0  0.80956  0.44842  0.41730  1.0000
  H   H494      1.0  0.71573  0.43198  0.62696  1.0000
  H   H495      1.0  0.73637  0.33068  0.62403  1.0000
  C   C636      1.0  0.68553  0.22151  0.63517  1.0000
  H   H496      1.0  0.66635  0.40126  0.42228  1.0000
  H   H497      1.0  0.68513  0.21484  0.61332  1.0000
  H   H498      1.0  0.79692  0.34332  0.61619  1.0000
  C   C637      1.0  0.49618  0.21388  0.34313  1.0000
  H   H499      1.0  0.80757  0.42209  0.42066  1.0000
  H   H500      1.0  0.69057  0.43723  0.50363  1.0000
  H   H501      1.0  0.73167  0.24909  0.56712  1.0000
  H   H502      1.0  0.70727  0.27425  0.53124  1.0000
  H   H503      1.0  0.69711  0.32703  0.54157  1.0000
  H   H504      1.0  0.71205  0.35542  0.58770  1.0000
  C   C638      1.0  0.80469  0.33415  0.63486  1.0000
  P   P22       1.0  0.48309  0.15101  0.37087  1.0000
  C   C639      1.0  0.66008  0.44136  0.36230  1.0000
  H   H505      1.0  0.77945  0.35631  0.34571  1.0000
  C   C640      1.0  0.49442  0.26615  0.63789  1.0000
  H   H506      1.0  0.62433  0.41291  0.39407  1.0000
  H   H507      1.0  0.51711  0.18734  0.42226  1.0000
  C   C641      1.0  0.59545  0.20744  0.39542  1.0000
  C   C642      1.0  0.80547  0.22632  0.57968  1.0000
  C   C643      1.0  0.58664  0.19164  0.36930  1.0000
  C   C644      1.0  0.48016  0.28736  0.65008  1.0000
  H   H508      1.0  0.70379  0.39287  0.52918  1.0000
  C   C645      1.0  0.78041  0.45495  0.41347  1.0000
  H   H509      1.0  0.57722  0.21873  0.43436  1.0000
  C   C646      1.0  0.79297  0.24955  0.59098  1.0000
  H   H510      1.0  0.75702  0.15325  0.61588  1.0000
  H   H511      1.0  0.51383  0.10018  0.36662  1.0000
  H   H512      1.0  0.50594  0.05248  0.33340  1.0000
  H   H513      1.0  0.73471  0.36195  0.50518  1.0000
  C   C647      1.0  0.71763  0.44692  0.36906  1.0000
  H   H514      1.0  0.86404  0.47060  0.41895  1.0000
  C   C648      1.0  0.78728  0.29977  0.64448  1.0000
  H   H515      1.0  0.75048  0.37363  0.45572  1.0000
  C   C649      1.0  0.65593  0.20588  0.65101  1.0000
  S   S86       1.0  0.57017  0.20804  0.66101  1.0000
  H   H516      1.0  0.73508  0.19396  0.63621  1.0000
  H   H517      1.0  0.63292  0.18748  0.64145  1.0000
  Fe  Fe44      1.0  0.60322  0.26686  0.65290  1.0000
  H   H518      1.0  0.70669  0.44978  0.45403  1.0000
  C   C650      1.0  0.73414  0.45058  0.64062  1.0000
  H   H519      1.0  0.49744  0.26599  0.61544  1.0000
  C   C651      1.0  0.71264  0.43031  0.46489  1.0000
  C   C652      1.0  0.83277  0.35737  0.64940  1.0000
  H   H520      1.0  0.84546  0.38418  0.64246  1.0000
  C   C653      1.0  0.69355  0.45306  0.35301  1.0000
  H   H521      1.0  0.76625  0.40529  0.65377  1.0000
  H   H522      1.0  0.52268  0.21858  0.34399  1.0000
  C   C654      1.0  0.71492  0.24658  0.64720  1.0000
  H   H523      1.0  0.70056  0.46599  0.33296  1.0000
  C   C655      1.0  0.50563  0.24574  0.65471  1.0000
  Fe  Fe45      1.0  0.61276  0.34379  0.66009  1.0000
  Fe  Fe46      1.0  0.67546  0.32627  0.65715  1.0000
  C   C656      1.0  0.84159  0.47587  0.41655  1.0000
  H   H524      1.0  0.76684  0.47867  0.60693  1.0000
  C   C657      1.0  0.48706  0.23876  0.33029  1.0000
  S   S87       1.0  0.62937  0.30783  0.68503  1.0000
  C   C658      1.0  0.55635  0.18400  0.71663  1.0000
  C   C659      1.0  0.55219  0.17591  0.68812  1.0000
  H   H525      1.0  0.49718  0.30806  0.78569  1.0000
  C   C660      1.0  0.76662  0.37198  0.68769  1.0000
  Fe  Fe47      1.0  0.95760  0.44885  0.78069  1.0000
  H   H526      1.0  0.50949  0.00944  0.85974  1.0000
  C   C661      1.0  0.71416  0.25563  0.67531  1.0000
  C   C662      1.0  0.93760  0.18779  0.92096  1.0000
  H   H527      1.0  0.69429  0.08775  0.94536  1.0000
  C   C663      1.0  0.71785  0.11032  0.84404  1.0000
  H   H528      1.0  0.62980  0.12473  0.77553  1.0000
  H   H529      1.0  0.85129  0.16311  0.96824  1.0000
  Fe  Fe48      1.0  0.91703  0.47097  0.73809  1.0000
  C   C664      1.0  0.58523  0.08067  0.78835  1.0000
  H   H530      1.0  0.54879  0.35410  0.80491  1.0000
  Fe  Fe49      1.0  0.93452  0.31683  0.95364  1.0000
  S   S88       1.0  0.92325  0.25933  0.95249  1.0000
  S   S89       1.0  0.92597  0.35593  0.92510  1.0000
  H   H531      1.0  0.95975  0.33111  0.88211  1.0000
  H   H532      1.0  0.60674  0.07901  0.87528  1.0000
  C   C665      1.0  0.86545  0.39193  0.97327  1.0000
  Fe  Fe50      1.0  0.61491  0.00084  0.96795  1.0000
  C   C666      1.0  0.52073  0.31584  0.77423  1.0000
  S   S90       1.0  0.57852  0.01632  0.94257  1.0000
  C   C667      1.0  0.81333  0.42759  0.67682  1.0000
  H   H533      1.0  0.79376  0.11977  0.81647  1.0000
  Fe  Fe51      1.0  0.89380  0.25444  0.99216  1.0000
  S   S91       1.0  0.74388  0.05854  0.96877  1.0000
  Fe  Fe52      1.0  0.68997  0.02314  0.98297  1.0000
  C   C668      1.0  0.96236  0.23870  0.89136  1.0000
  H   H534      1.0  0.56859  0.08651  0.77420  1.0000
  H   H535      1.0  0.83139  0.26066  0.95805  1.0000
  C   C669      1.0  0.80381  0.11747  0.96868  1.0000
  C   C670      1.0  0.48605  0.06182  0.92261  1.0000
  C   C671      1.0  0.93834  0.40540  0.85060  1.0000
  C   C672      1.0  0.65536  0.21530  0.67888  1.0000
  C   C673      1.0  0.93761  0.36794  0.88999  1.0000
  C   C674      1.0  0.74834  0.07239  0.81552  1.0000
  H   H536      1.0  0.54532  0.03469  0.80512  1.0000
  H   H537      1.0  0.81521  0.47515  0.72235  1.0000
  H   H538      1.0  0.50357  0.18611  0.79879  1.0000
  C   C675      1.0  0.56001  0.99786  0.91026  1.0000
  H   H539      1.0  0.60563  0.34504  0.73405  1.0000
  H   H540      1.0  0.89959  0.46938  0.85940  1.0000
  C   C676      1.0  0.61977  0.10217  0.78913  1.0000
  C   C677      1.0  0.69860  0.40110  0.73186  1.0000
  H   H541      1.0  0.91406  0.38937  0.97494  1.0000
  C   C678      1.0  0.53311  0.14086  0.68060  1.0000
  C   C679      1.0  0.51851  0.11441  0.70100  1.0000
  C   C680      1.0  0.52268  0.12244  0.72950  1.0000
  C   C681      1.0  0.54181  0.15752  0.73703  1.0000
  H   H542      1.0  0.81915  0.39946  0.97664  1.0000
  H   H543      1.0  0.58286  0.02122  0.83731  1.0000
  H   H544      1.0  0.54535  0.16431  0.75889  1.0000
  C   C682      1.0  0.51325  0.40958  0.71716  1.0000
  C   C683      1.0  0.54530  0.42544  0.72934  1.0000
  C   C684      1.0  0.57232  0.41735  0.71979  1.0000
  C   C685      1.0  0.56773  0.39296  0.69825  1.0000
  C   C686      1.0  0.53552  0.37658  0.68648  1.0000
  C   C687      1.0  0.50863  0.38508  0.69570  1.0000
  H   H545      1.0  0.54942  0.44431  0.74582  1.0000
  H   H546      1.0  0.59707  0.43019  0.72908  1.0000
  H   H547      1.0  0.49794  0.08979  0.91958  1.0000
  C   C688      1.0  0.82539  0.15212  0.97554  1.0000
  C   C689      1.0  0.83286  0.42381  0.69914  1.0000
  C   C690      1.0  0.81892  0.39378  0.71571  1.0000
  C   C691      1.0  0.78635  0.36791  0.70972  1.0000
  H   H548      1.0  0.83347  0.39019  0.73285  1.0000
  H   H549      1.0  0.77626  0.34460  0.72241  1.0000
  H   H550      1.0  0.81348  0.10204  0.95616  1.0000
  C   C692      1.0  0.48573  0.04746  0.94899  1.0000
  S   S92       1.0  0.72536  0.33836  0.68152  1.0000
  C   C693      1.0  0.68446  0.24012  0.69102  1.0000
  H   H551      1.0  0.51262  0.23128  0.69631  1.0000
  H   H552      1.0  0.51059  0.24453  0.78260  1.0000
  C   C694      1.0  0.58206  0.33652  0.74552  1.0000
  C   C695      1.0  0.82761  0.31200  0.68258  1.0000
  H   H553      1.0  0.69712  0.06503  0.89841  1.0000
  H   H554      1.0  0.65405  0.00493  0.89300  1.0000
  C   C696      1.0  0.78053  0.40202  0.67118  1.0000
  C   C697      1.0  0.85680  0.29559  0.89363  1.0000
  C   C698      1.0  0.84566  0.29292  0.92125  1.0000
  C   C699      1.0  0.83886  0.26229  0.93631  1.0000
  C   C700      1.0  0.84297  0.23418  0.92371  1.0000
  C   C701      1.0  0.85296  0.23616  0.89563  1.0000
  C   C702      1.0  0.86094  0.26755  0.88096  1.0000
  P   P23       1.0  0.86005  0.20055  0.87993  1.0000
  C   C703      1.0  0.90143  0.20539  0.89150  1.0000
  C   C704      1.0  0.82754  0.15838  0.88853  1.0000
  C   C705      1.0  0.83252  0.12809  0.88208  1.0000
  C   C706      1.0  0.80747  0.09518  0.88832  1.0000
  C   C707      1.0  0.77716  0.09229  0.90074  1.0000
  C   C708      1.0  0.77169  0.12226  0.90653  1.0000
  C   C709      1.0  0.79653  0.15517  0.90015  1.0000
  C   C710      1.0  0.90530  0.18276  0.91154  1.0000
  H   H555      1.0  0.94334  0.47866  0.95596  1.0000
  C   C711      1.0  0.93412  0.47683  0.93480  1.0000
  S   S93       1.0  0.90209  0.31098  0.99153  1.0000
  C   C712      1.0  0.93017  0.23367  0.88176  1.0000
  C   C713      1.0  0.85870  0.20282  0.84239  1.0000
  C   C714      1.0  0.88179  0.19538  0.82580  1.0000
  C   C715      1.0  0.88011  0.19663  0.79669  1.0000
  C   C716      1.0  0.85514  0.20487  0.78398  1.0000
  C   C717      1.0  0.83165  0.21159  0.80037  1.0000
  C   C718      1.0  0.83329  0.21040  0.82948  1.0000
  H   H556      1.0  0.86376  0.32003  0.88247  1.0000
  H   H557      1.0  0.84377  0.31516  0.93134  1.0000
  H   H558      1.0  0.55453  0.29994  0.71406  1.0000
  H   H559      1.0  0.83894  0.21121  0.93611  1.0000
  H   H560      1.0  0.87121  0.27092  0.86002  1.0000
  H   H561      1.0  0.85593  0.12994  0.87252  1.0000
  H   H562      1.0  0.81170  0.07189  0.88398  1.0000
  H   H563      1.0  0.75818  0.06686  0.90645  1.0000
  H   H564      1.0  0.74852  0.12004  0.91672  1.0000
  H   H565      1.0  0.79133  0.17782  0.90452  1.0000
  H   H566      1.0  0.88352  0.16183  0.92047  1.0000
  H   H567      1.0  0.83650  0.30360  0.70115  1.0000
  C   C719      1.0  0.95375  0.35176  0.87342  1.0000
  H   H568      1.0  0.92765  0.25226  0.86717  1.0000
  H   H569      1.0  0.90115  0.18868  0.83523  1.0000
  H   H570      1.0  0.89833  0.19142  0.78397  1.0000
  H   H571      1.0  0.85411  0.20618  0.76143  1.0000
  H   H572      1.0  0.81234  0.21805  0.79050  1.0000
  H   H573      1.0  0.81495  0.21573  0.84193  1.0000
  H   H574      1.0  0.60483  0.10217  0.92201  1.0000
  C   C720      1.0  0.73195  0.42511  0.73690  1.0000
  C   C721      1.0  0.62550  0.09502  0.91649  1.0000
  C   C722      1.0  0.75194  0.12633  0.83634  1.0000
  H   H575      1.0  0.70167  0.32864  0.76146  1.0000
  C   C723      1.0  0.71417  0.05629  0.82312  1.0000
  H   H576      1.0  0.70003  0.02915  0.81787  1.0000
  H   H577      1.0  0.85592  0.37182  0.95749  1.0000
  C   C724      1.0  0.54997  0.34175  0.78533  1.0000
  C   C725      1.0  0.75794  0.12284  0.99427  1.0000
  C   C726      1.0  0.69871  0.07514  0.83755  1.0000
  H   H578      1.0  0.93234  0.42606  0.84194  1.0000
  Fe  Fe53      1.0  0.96883  0.27332  0.98097  1.0000
  C   C727      1.0  0.52427  0.99785  0.87066  1.0000
  C   C728      1.0  0.76992  0.10256  0.97794  1.0000
  C   C729      1.0  0.70987  0.35567  0.75526  1.0000
  H   H579      1.0  0.68370  0.24833  0.71233  1.0000
  C   C730      1.0  0.62854  0.98768  0.82538  1.0000
  C   C731      1.0  0.64124  0.09449  0.80729  1.0000
  H   H580      1.0  0.66784  0.11144  0.80748  1.0000
  C   C732      1.0  0.48763  0.26714  0.69615  1.0000
  C   C733      1.0  0.76724  0.10737  0.82218  1.0000
  H   H581      1.0  0.50398  0.08778  0.69462  1.0000
  H   H582      1.0  0.70397  0.46163  0.77451  1.0000
  C   C734      1.0  0.96205  0.36239  0.84545  1.0000
  S   S94       1.0  0.87432  0.45728  0.70501  1.0000
  C   C735      1.0  0.59342  0.04388  0.82397  1.0000
  S   S95       1.0  0.96572  0.40253  0.79893  1.0000
  H   H583      1.0  0.49739  0.06436  0.96645  1.0000
  C   C736      1.0  0.64998  0.09743  0.93637  1.0000
  H   H584      1.0  0.88248  0.46060  0.94787  1.0000
  C   C737      1.0  0.55282  0.31096  0.73414  1.0000
  H   H585      1.0  0.76020  0.37083  0.77152  1.0000
  H   H586      1.0  0.82368  0.45053  0.66371  1.0000
  C   C738      1.0  0.75393  0.41391  0.75160  1.0000
  H   H587      1.0  0.76656  0.15334  0.84166  1.0000
  C   C739      1.0  0.95454  0.38940  0.83398  1.0000
  S   S96       1.0  0.96531  0.46182  0.73459  1.0000
  H   H588      1.0  0.60320  0.37274  0.77912  1.0000
  C   C740      1.0  0.47673  0.28786  0.67909  1.0000
  C   C741      1.0  0.90920  0.47169  0.88051  1.0000
  C   C742      1.0  0.62658  0.08157  0.88998  1.0000
  C   C743      1.0  0.65261  0.07100  0.88301  1.0000
  H   H589      1.0  0.77981  0.43121  0.75571  1.0000
  C   C744      1.0  0.62816  0.06512  0.82482  1.0000
  H   H590      1.0  0.86012  0.45549  0.89955  1.0000
  S   S97       1.0  0.60346  0.38540  0.68618  1.0000
  H   H591      1.0  0.57078  0.21065  0.72299  1.0000
  C   C745      1.0  0.52185  0.30059  0.74834  1.0000
  C   C746      1.0  0.74280  0.37943  0.76088  1.0000
  H   H592      1.0  0.76018  0.05765  0.80454  1.0000
  S   S98       1.0  0.90811  0.45454  0.78309  1.0000
  S   S99       1.0  0.50464  0.09019  0.75656  1.0000
  H   H593      1.0  0.63201  0.20404  0.69076  1.0000
  H   H594      1.0  0.68086  0.40883  0.72077  1.0000
  H   H595      1.0  0.66246  0.34799  0.73612  1.0000
  C   C747      1.0  0.57209  0.05152  0.80577  1.0000
  C   C748      1.0  0.67575  0.08663  0.92971  1.0000
  C   C749      1.0  0.67715  0.07359  0.90313  1.0000
  H   H596      1.0  0.70645  0.12533  0.85522  1.0000
  C   C750      1.0  0.58063  0.35219  0.77090  1.0000
  C   C751      1.0  0.92979  0.39457  0.87840  1.0000
  H   H597      1.0  0.92311  0.18724  0.98456  1.0000
  H   H598      1.0  0.48407  0.37276  0.68598  1.0000
  C   C752      1.0  0.64162  0.00754  0.84952  1.0000
  H   H599      1.0  0.53744  0.03477  0.90459  1.0000
  C   C753      1.0  0.68777  0.36656  0.74089  1.0000
  C   C754      1.0  0.54028  0.01226  0.89600  1.0000
  C   C755      1.0  0.88698  0.46379  0.90315  1.0000
  H   H600      1.0  0.64844  0.10673  0.95720  1.0000
  C   C756      1.0  0.89951  0.46658  0.93028  1.0000
  H   H601      1.0  0.73584  0.27576  0.68493  1.0000
  P   P24       1.0  0.65507  0.05442  0.84864  1.0000
  P   P25       1.0  0.74563  0.46970  0.72478  1.0000
  H   H602      1.0  0.97273  0.39740  0.98217  1.0000
  H   H603      1.0  0.91703  0.40690  0.89106  1.0000
  H   H604      1.0  0.96461  0.42735  0.94023  1.0000
  H   H605      1.0  0.70676  0.42710  0.67767  1.0000
  C   C757      1.0  0.81340  0.17231  0.99201  1.0000
  H   H606      1.0  0.86554  0.36472  0.68477  1.0000
  H   H607      1.0  0.94064  0.17062  0.93662  1.0000
  C   C758      1.0  0.50280  0.24661  0.68373  1.0000
  H   H608      1.0  0.77218  0.46182  0.81209  1.0000
  H   H609      1.0  0.62613  0.00006  0.80614  1.0000
  H   H610      1.0  0.97457  0.34988  0.83268  1.0000
  C   C759      1.0  0.79949  0.28870  0.66811  1.0000
  S   S100      1.0  0.49103  0.98756  0.75470  1.0000
  C   C760      1.0  0.96609  0.21572  0.91088  1.0000
  C   C761      1.0  0.64444  0.99055  0.87403  1.0000
  H   H611      1.0  0.53164  0.35811  0.66973  1.0000
  C   C762      1.0  0.47699  0.22534  0.74719  1.0000
  C   C763      1.0  0.84416  0.34636  0.67328  1.0000
  S   S101      1.0  0.47823  0.41952  0.72751  1.0000
  C   C764      1.0  0.75297  0.47191  0.68745  1.0000
  C   C765      1.0  0.84489  0.40760  0.98402  1.0000
  H   H612      1.0  0.78708  0.26207  0.67544  1.0000
  H   H613      1.0  0.47708  0.33471  0.73750  1.0000
  C   C766      1.0  0.69518  0.47446  0.75868  1.0000
  C   C767      1.0  0.72921  0.44789  0.66954  1.0000
  C   C768      1.0  0.48994  0.18877  0.78060  1.0000
  C   C769      1.0  0.49387  0.22185  0.77128  1.0000
  C   C770      1.0  0.89846  0.40206  0.98298  1.0000
  P   P26       1.0  0.48374  0.26800  0.73370  1.0000
  S   S102      1.0  0.65529  0.98487  0.95186  1.0000
  H   H614      1.0  0.65454  0.47559  0.78437  1.0000
  H   H615      1.0  0.97378  0.17530  0.99441  1.0000
  C   C771      1.0  0.55012  0.74168  0.09363  1.0000
  S   S103      1.0  0.51708  0.58475  0.15994  1.0000
  C   C772      1.0  0.96898  0.61335  0.18556  1.0000
  S   S104      1.0  0.95028  0.51708  0.22977  1.0000
  H   H616      1.0  0.94529  0.61071  0.17611  1.0000
  H   H617      1.0  0.94448  0.61187  0.07398  1.0000
  Fe  Fe54      1.0  0.63807  0.63984  0.02536  1.0000
  S   S105      1.0  0.61653  0.59670  0.05804  1.0000
  C   C773      1.0  0.57919  0.51244  0.19818  1.0000
  S   S106      1.0  0.68903  0.68545  0.02561  1.0000
  C   C774      1.0  0.53387  0.94439  0.10126  1.0000
  H   H618      1.0  0.66882  0.96725  0.07901  1.0000
  H   H619      1.0  0.81068  0.64612  0.03967  1.0000
  H   H620      1.0  0.49797  0.87734  0.01377  1.0000
  C   C775      1.0  0.78159  0.65588  0.00665  1.0000
  S   S107      1.0  0.61086  0.67100  0.00777  1.0000
  C   C776      1.0  0.91654  0.73816  0.04851  1.0000
  H   H621      1.0  0.84338  0.73759  0.02243  1.0000
  H   H622      1.0  0.54531  0.55456  0.02665  1.0000
  H   H623      1.0  0.52913  0.72361  0.28612  1.0000
  Fe  Fe55      1.0  0.66213  0.71558  0.00447  1.0000
  C   C777      1.0  0.95392  0.59547  0.08548  1.0000
  C   C778      1.0  0.51940  0.97942  0.02901  1.0000
  S   S108      1.0  0.48805  0.96160  0.23012  1.0000
  C   C779      1.0  0.83649  0.51708  0.05432  1.0000
  C   C780      1.0  0.71673  0.55863  0.13362  1.0000
  C   C781      1.0  0.93954  0.76126  0.02977  1.0000
  C   C782      1.0  0.58674  0.59370  0.08459  1.0000
  C   C783      1.0  0.56912  0.56134  0.09764  1.0000
  C   C784      1.0  0.54754  0.55818  0.12048  1.0000
  C   C785      1.0  0.54300  0.58735  0.13043  1.0000
  C   C786      1.0  0.56002  0.61964  0.11699  1.0000
  C   C787      1.0  0.58173  0.62282  0.09411  1.0000
  H   H624      1.0  0.57238  0.53857  0.09020  1.0000
  H   H625      1.0  0.53479  0.53322  0.13058  1.0000
  H   H626      1.0  0.55676  0.64240  0.12455  1.0000
  H   H627      1.0  0.59525  0.64793  0.08434  1.0000
  S   S109      1.0  0.47900  0.52146  0.22660  1.0000
  H   H628      1.0  0.89288  0.49158  0.09966  1.0000
  H   H629      1.0  0.91347  0.57954  0.11581  1.0000
  H   H630      1.0  0.59684  0.55006  0.00918  1.0000
  C   C788      1.0  0.96938  0.60275  0.21313  1.0000
  Fe  Fe56      1.0  0.48403  0.53272  0.18016  1.0000
  H   H631      1.0  0.96631  0.76700  0.03152  1.0000
  H   H632      1.0  0.81046  0.50804  0.06126  1.0000
  C   C789      1.0  0.48731  0.73568  0.27305  1.0000
  H   H633      1.0  0.71702  0.94921  0.07873  1.0000
  C   C790      1.0  0.89325  0.76838  0.00551  1.0000
  C   C791      1.0  0.94868  0.55626  0.12478  1.0000
  C   C792      1.0  0.69141  0.92981  0.08124  1.0000
  C   C793      1.0  0.93652  0.57730  0.10932  1.0000
  C   C794      1.0  0.66430  0.93995  0.08115  1.0000
  H   H634      1.0  0.92537  0.72573  0.06464  1.0000
  H   H635      1.0  0.55535  0.88228  0.99992  1.0000
  C   C795      1.0  0.65234  0.86965  0.08801  1.0000
  C   C796      1.0  0.62490  0.87951  0.08676  1.0000
  C   C797      1.0  0.63119  0.91494  0.08376  1.0000
  P   P27       1.0  0.58207  0.84816  0.09214  1.0000
  C   C798      1.0  0.57683  0.80404  0.08435  1.0000
  C   C799      1.0  0.57255  0.85435  0.12797  1.0000
  C   C800      1.0  0.56175  0.88083  0.13474  1.0000
  C   C801      1.0  0.55536  0.88660  0.16246  1.0000
  C   C802      1.0  0.81046  0.65269  0.01786  1.0000
  C   C803      1.0  0.68666  0.53557  0.14608  1.0000
  S   S110      1.0  0.49628  0.93576  0.14920  1.0000
  C   C804      1.0  0.55381  0.77572  0.09961  1.0000
  H   H636      1.0  0.92152  0.84362  0.01316  1.0000
  C   C805      1.0  0.65529  0.53419  0.13683  1.0000
  C   C806      1.0  0.59055  0.76343  0.05592  1.0000
  C   C807      1.0  0.59425  0.79747  0.06180  1.0000
  C   C808      1.0  0.55514  0.85736  0.06758  1.0000
  C   C809      1.0  0.52221  0.85307  0.07499  1.0000
  C   C810      1.0  0.54528  0.54462  0.00575  1.0000
  H   H637      1.0  0.61975  0.57698  0.15106  1.0000
  C   C811      1.0  0.56535  0.53049  0.21509  1.0000
  C   C812      1.0  0.56668  0.86759  0.04028  1.0000
  C   C813      1.0  0.60525  0.56366  0.16906  1.0000
  H   H638      1.0  0.52475  0.95633  0.03042  1.0000
  H   H639      1.0  0.64840  0.84276  0.09142  1.0000
  H   H640      1.0  0.61056  0.92342  0.08362  1.0000
  H   H641      1.0  0.55875  0.89745  0.11866  1.0000
  C   C814      1.0  0.97323  0.49414  0.05998  1.0000
  H   H642      1.0  0.67450  0.88909  0.01880  1.0000
  H   H643      1.0  0.64513  0.50762  0.20844  1.0000
  C   C815      1.0  0.96575  0.51527  0.01448  1.0000
  H   H644      1.0  0.53863  0.77982  0.11606  1.0000
  C   C816      1.0  0.67481  0.83745  0.01832  1.0000
  C   C817      1.0  0.57248  0.84097  0.17738  1.0000
  H   H645      1.0  0.60478  0.75861  0.03896  1.0000
  H   H646      1.0  0.61088  0.81859  0.04879  1.0000
  H   H647      1.0  0.58927  0.81612  0.14511  1.0000
  S   S111      1.0  0.87449  0.65309  0.01639  1.0000
  H   H648      1.0  0.54947  0.51732  0.23265  1.0000
  C   C818      1.0  0.66150  0.80389  0.00639  1.0000
  H   H649      1.0  0.59170  0.87025  0.03382  1.0000
  C   C819      1.0  0.47669  0.53291  0.03823  1.0000
  C   C820      1.0  0.88201  0.73021  0.04591  1.0000
  H   H650      1.0  0.86411  0.71138  0.05987  1.0000
  H   H651      1.0  0.49055  0.75361  0.29013  1.0000
  C   C821      1.0  0.53046  0.95952  0.12664  1.0000
  C   C822      1.0  0.66400  0.86346  0.00942  1.0000
  C   C823      1.0  0.71573  0.58046  0.11187  1.0000
  C   C824      1.0  0.56264  0.96061  0.08419  1.0000
  H   H652      1.0  0.94608  0.59222  0.22508  1.0000
  C   C825      1.0  0.50177  0.86056  0.05569  1.0000
  C   C826      1.0  0.85462  0.55229  0.04796  1.0000
  C   C827      1.0  0.88844  0.56415  0.03983  1.0000
  C   C828      1.0  0.90424  0.54089  0.03779  1.0000
  H   H653      1.0  0.56627  0.70928  0.06750  1.0000
  H   H654      1.0  0.53287  0.71995  0.10579  1.0000
  C   C829      1.0  0.57112  0.56497  0.20887  1.0000
  H   H655      1.0  0.56545  0.94816  0.06517  1.0000
  H   H656      1.0  0.57347  0.48540  0.20300  1.0000
  H   H657      1.0  0.69361  0.84335  0.03459  1.0000
  C   C830      1.0  0.68466  0.57925  0.10254  1.0000
  H   H658      1.0  0.94958  0.51753  0.99806  1.0000
  Fe  Fe57      1.0  0.94240  0.50178  0.18461  1.0000
  H   H659      1.0  0.90257  0.59166  0.03562  1.0000
  H   H660      1.0  0.93079  0.55127  0.03236  1.0000
  H   H661      1.0  0.68813  0.51899  0.16287  1.0000
  H   H662      1.0  0.59463  0.60791  0.18056  1.0000
  C   C831      1.0  0.54600  0.87444  0.02092  1.0000
  H   H663      1.0  0.51233  0.84416  0.09566  1.0000
  H   H664      1.0  0.54677  0.90701  0.16739  1.0000
  H   H665      1.0  0.70645  0.88681  0.08500  1.0000
  C   C832      1.0  0.51373  0.87142  0.02869  1.0000
  H   H666      1.0  0.73900  0.59839  0.10226  1.0000
  C   C833      1.0  0.87033  0.74509  0.02444  1.0000
  H   H667      1.0  0.68366  0.59618  0.08571  1.0000
  C   C834      1.0  0.57887  0.83515  0.14960  1.0000
  C   C835      1.0  0.59114  0.58155  0.18593  1.0000
  H   H668      1.0  0.84273  0.57062  0.04967  1.0000
  C   C836      1.0  0.56054  0.86656  0.18379  1.0000
  C   C837      1.0  0.56876  0.73558  0.07198  1.0000
  C   C838      1.0  0.85219  0.49374  0.05243  1.0000
  H   H669      1.0  0.55573  0.87126  0.20528  1.0000
  P   P28       1.0  0.61616  0.50459  0.15283  1.0000
  Fe  Fe58      1.0  0.92866  0.66683  0.00074  1.0000
  C   C839      1.0  0.65464  0.55627  0.11493  1.0000
  S   S112      1.0  0.92535  0.53336  0.15419  1.0000
  C   C840      1.0  0.88612  0.50529  0.04379  1.0000
  H   H670      1.0  0.75996  0.65190  0.01982  1.0000
  C   C841      1.0  0.95167  0.49660  0.03898  1.0000
  H   H671      1.0  0.51457  0.91952  0.09517  1.0000
  H   H672      1.0  0.57727  0.82600  0.19399  1.0000
  H   H673      1.0  0.55937  0.57860  0.22134  1.0000
  H   H674      1.0  0.63091  0.55586  0.10735  1.0000
  H   H675      1.0  0.74086  0.55966  0.14090  1.0000
  C   C842      1.0  0.92800  0.77631  0.00836  1.0000
  C   C843      1.0  0.59941  0.52886  0.17503  1.0000
  P   P29       1.0  0.47966  0.54100  0.00105  1.0000
  S   S113      1.0  0.67551  0.77187  0.01898  1.0000
  C   C844      1.0  0.68543  0.89468  0.08475  1.0000
  H   H676      1.0  0.47659  0.67009  0.21287  1.0000
  H   H677      1.0  0.96503  0.90242  0.00313  1.0000
  C   C845      1.0  0.58455  0.48297  0.12664  1.0000
  S   S114      1.0  0.96877  0.68590  0.03419  1.0000
  H   H678      1.0  0.61973  0.49268  0.09205  1.0000
  H   H679      1.0  0.47670  0.85802  0.06173  1.0000
  C   C846      1.0  0.83906  0.65811  0.00119  1.0000
  S   S115      1.0  0.59725  0.95949  0.00122  1.0000
  C   C847      1.0  0.50929  0.71873  0.27084  1.0000
  H   H680      1.0  0.80453  0.84547  0.00803  1.0000
  H   H681      1.0  0.48892  0.81857  0.17307  1.0000
  H   H682      1.0  0.48003  0.96122  0.05954  1.0000
  H   H683      1.0  0.75171  0.79167  0.00518  1.0000
  H   H684      1.0  0.47706  0.58308  0.05009  1.0000
  C   C848      1.0  0.50542  0.69513  0.24917  1.0000
  H   H685      1.0  0.52218  0.68167  0.24766  1.0000
  C   C849      1.0  0.57475  0.54228  0.99587  1.0000
  H   H686      1.0  0.85949  0.84399  0.99601  1.0000
  C   C850      1.0  0.80569  0.82125  0.00146  1.0000
  C   C851      1.0  0.77590  0.79099  0.99987  1.0000
  C   C852      1.0  0.47973  0.68864  0.22953  1.0000
  S   S116      1.0  0.48728  0.48235  0.16999  1.0000
  C   C853      1.0  0.84470  0.51006  0.41250  1.0000
  H   H687      1.0  0.81817  0.54343  0.40660  1.0000
  H   H688      1.0  0.76149  0.49525  0.40817  1.0000
  H   H689      1.0  0.47799  0.87273  0.45908  1.0000
  C   C854      1.0  0.78366  0.48947  0.41021  1.0000
  H   H690      1.0  0.86957  0.53128  0.41173  1.0000
  H   H691      1.0  0.80880  0.52170  0.63814  1.0000
  C   C855      1.0  0.78650  0.50115  0.64689  1.0000
  C   C856      1.0  0.81574  0.51688  0.40953  1.0000
  H   H692      1.0  0.74160  0.60219  0.93067  1.0000
  C   C857      1.0  0.69908  0.49867  0.71219  1.0000
  S   S117      1.0  0.54090  0.51782  0.84308  1.0000
  P   P30       1.0  0.87836  0.78686  0.97707  1.0000
  H   H693      1.0  0.54465  0.94217  0.96007  1.0000
  H   H694      1.0  0.52516  0.87825  0.95495  1.0000
  C   C858      1.0  0.92695  0.85224  0.99169  1.0000
  H   H695      1.0  0.76114  0.52717  0.76582  1.0000
  H   H696      1.0  0.79973  0.51857  0.68875  1.0000
  H   H697      1.0  0.55061  0.93196  0.86499  1.0000
  Fe  Fe59      1.0  0.69620  0.66835  0.98245  1.0000
  S   S118      1.0  0.67222  0.70112  0.96124  1.0000
  S   S119      1.0  0.74517  0.66865  0.96296  1.0000
  H   H698      1.0  0.73690  0.48999  0.83315  1.0000
  Fe  Fe60      1.0  0.62274  0.65421  0.96579  1.0000
  S   S120      1.0  0.57852  0.63680  0.93528  1.0000
  C   C859      1.0  0.84396  0.54036  0.76996  1.0000
  C   C860      1.0  0.84912  0.52058  0.94583  1.0000
  H   H699      1.0  0.54908  0.51367  0.93006  1.0000
  P   P31       1.0  0.50503  0.66004  0.84886  1.0000
  C   C861      1.0  0.78072  0.66396  0.97841  1.0000
  C   C862      1.0  0.80931  0.66925  0.96174  1.0000
  C   C863      1.0  0.83833  0.66656  0.97305  1.0000
  H   H700      1.0  0.85531  0.59032  0.98511  1.0000
  H   H701      1.0  0.80915  0.67580  0.93996  1.0000
  H   H702      1.0  0.86002  0.67069  0.95999  1.0000
  H   H703      1.0  0.62635  0.77090  0.97625  1.0000
  H   H704      1.0  0.93211  0.59284  0.91875  1.0000
  C   C864      1.0  0.89514  0.63687  0.88599  1.0000
  C   C865      1.0  0.56358  0.96878  0.89899  1.0000
  H   H705      1.0  0.57849  0.95729  0.90986  1.0000
  C   C866      1.0  0.51834  0.92635  0.95564  1.0000
  H   H706      1.0  0.90374  0.82579  0.92476  1.0000
  C   C867      1.0  0.85195  0.57404  0.96685  1.0000
  H   H707      1.0  0.81382  0.56419  0.78974  1.0000
  H   H708      1.0  0.49486  0.71341  0.75908  1.0000
  C   C868      1.0  0.84316  0.53202  0.91979  1.0000
  H   H709      1.0  0.77806  0.57020  0.92347  1.0000
  H   H710      1.0  0.85987  0.53601  0.85267  1.0000
  H   H711      1.0  0.52390  0.69080  0.79304  1.0000
  H   H712      1.0  0.84434  0.61068  0.93956  1.0000
  C   C869      1.0  0.54983  0.54917  0.87006  1.0000
  C   C870      1.0  0.58181  0.56166  0.88283  1.0000
  C   C871      1.0  0.59060  0.58768  0.90351  1.0000
  C   C872      1.0  0.56740  0.60145  0.91164  1.0000
  C   C873      1.0  0.53501  0.58820  0.89948  1.0000
  C   C874      1.0  0.52625  0.56222  0.87875  1.0000
  H   H713      1.0  0.60013  0.55157  0.87634  1.0000
  H   H714      1.0  0.61555  0.59761  0.91273  1.0000
  H   H715      1.0  0.51672  0.59833  0.90588  1.0000
  H   H716      1.0  0.50152  0.55264  0.86921  1.0000
  C   C875      1.0  0.55737  0.63768  0.84080  1.0000
  C   C876      1.0  0.52752  0.63860  0.83000  1.0000
  H   H717      1.0  0.86296  0.59040  0.82675  1.0000
  C   C877      1.0  0.75966  0.60928  0.91356  1.0000
  C   C878      1.0  0.94204  0.56419  0.85370  1.0000
  C   C879      1.0  0.53452  0.69518  0.86965  1.0000
  C   C880      1.0  0.48401  0.58488  0.99385  1.0000
  C   C881      1.0  0.56897  0.71469  0.91141  1.0000
  C   C882      1.0  0.58123  0.74909  0.90191  1.0000
  H   H718      1.0  0.86741  0.51188  0.74680  1.0000
  C   C883      1.0  0.95662  0.48469  0.91213  1.0000
  H   H719      1.0  0.83996  0.51517  0.90205  1.0000
  C   C884      1.0  0.49954  0.69084  0.79844  1.0000
  C   C885      1.0  0.94145  0.87558  0.93657  1.0000
  H   H720      1.0  0.53929  0.73636  0.84028  1.0000
  H   H721      1.0  0.82576  0.63738  0.85358  1.0000
  H   H722      1.0  0.91086  0.71097  0.91522  1.0000
  H   H723      1.0  0.59935  0.53033  0.96073  1.0000
  H   H724      1.0  0.63289  0.50340  0.74806  1.0000
  C   C886      1.0  0.81344  0.54250  0.86057  1.0000
  C   C887      1.0  0.50734  0.89034  0.95261  1.0000
  S   S121      1.0  0.94645  0.52802  0.74885  1.0000
  H   H725      1.0  0.56810  0.65049  0.86019  1.0000
  C   C888      1.0  0.78624  0.64687  0.87438  1.0000
  C   C889      1.0  0.54784  0.52176  0.95137  1.0000
  H   H726      1.0  0.57800  0.70857  0.93098  1.0000
  H   H727      1.0  0.59954  0.76977  0.91427  1.0000
  H   H728      1.0  0.91624  0.74667  0.95687  1.0000
  C   C890      1.0  0.91100  0.63328  0.82983  1.0000
  C   C891      1.0  0.54756  0.95434  0.87365  1.0000
  H   H729      1.0  0.51879  0.58750  0.77274  1.0000
  C   C892      1.0  0.87247  0.61043  0.86908  1.0000
  H   H730      1.0  0.60707  0.81652  0.96060  1.0000
  C   C893      1.0  0.91690  0.84215  0.94208  1.0000
  C   C894      1.0  0.55929  0.60066  0.80262  1.0000
  C   C895      1.0  0.67098  0.50626  0.71787  1.0000
  C   C896      1.0  0.81395  0.54465  0.77504  1.0000
  C   C897      1.0  0.97333  0.59067  0.84690  1.0000
  C   C898      1.0  0.54705  0.72987  0.86016  1.0000
  C   C899      1.0  0.83838  0.78884  0.98603  1.0000
  C   C900      1.0  0.94386  0.59224  0.89893  1.0000
  C   C901      1.0  0.80831  0.75865  0.98457  1.0000
  H   H731      1.0  0.49017  0.61942  0.79700  1.0000
  C   C902      1.0  0.48092  0.53758  0.69869  1.0000
  C   C903      1.0  0.78067  0.59155  0.90960  1.0000
  C   C904      1.0  0.90984  0.83005  0.96969  1.0000
  C   C905      1.0  0.62073  0.93477  0.85049  1.0000
  S   S122      1.0  0.96147  0.70642  0.96940  1.0000
  C   C906      1.0  0.54567  0.68790  0.89543  1.0000
  H   H732      1.0  0.86710  0.55631  0.78075  1.0000
  H   H733      1.0  0.78830  0.66831  0.86081  1.0000
  C   C907      1.0  0.49021  0.65314  0.98346  1.0000
  C   C908      1.0  0.48430  0.67767  0.82429  1.0000
  S   S123      1.0  0.94424  0.62396  0.98652  1.0000
  C   C909      1.0  0.77727  0.75972  0.99141  1.0000
  C   C910      1.0  0.89346  0.72341  0.91834  1.0000
  C   C911      1.0  0.84575  0.73514  0.90300  1.0000
  C   C912      1.0  0.84877  0.75570  0.92667  1.0000
  C   C913      1.0  0.81443  0.49424  0.73723  1.0000
  C   C914      1.0  0.76251  0.63700  0.89606  1.0000
  C   C915      1.0  0.83301  0.52621  0.84862  1.0000
  S   S124      1.0  0.91832  0.53216  0.82897  1.0000
  C   C916      1.0  0.63697  0.79657  0.98553  1.0000
  H   H734      1.0  0.48293  0.48747  0.70459  1.0000
  H   H735      1.0  0.95808  0.67656  0.83890  1.0000
  C   C917      1.0  0.77859  0.52914  0.85491  1.0000
  H   H736      1.0  0.76274  0.54094  0.86393  1.0000
  C   C918      1.0  0.80746  0.62932  0.87043  1.0000
  Fe  Fe61      1.0  0.49418  0.49827  0.81528  1.0000
  C   C919      1.0  0.57023  0.75669  0.87631  1.0000
  C   C920      1.0  0.51375  0.62022  0.80537  1.0000
  H   H737      1.0  0.94364  0.68041  0.88834  1.0000
  C   C921      1.0  0.76376  0.50011  0.83750  1.0000
  C   C922      1.0  0.86803  0.71891  0.89887  1.0000
  P   P32       1.0  0.83294  0.57958  0.88353  1.0000
  H   H738      1.0  0.66116  0.51796  0.70190  1.0000
  H   H739      1.0  0.82594  0.73165  0.88798  1.0000
  H   H740      1.0  0.83143  0.76828  0.92933  1.0000
  C   C923      1.0  0.84140  0.56465  0.91703  1.0000
  C   C924      1.0  0.97435  0.61964  0.89150  1.0000
  C   C925      1.0  0.89641  0.74375  0.94210  1.0000
  H   H741      1.0  0.54305  0.66513  0.97610  1.0000
  C   C926      1.0  0.62605  0.82252  0.97672  1.0000
  H   H742      1.0  0.60694  0.93624  0.80748  1.0000
  C   C927      1.0  0.84585  0.58555  0.94088  1.0000
  S   S125      1.0  0.50972  0.95082  0.82681  1.0000
  C   C928      1.0  0.49593  0.94241  0.95155  1.0000
  H   H743      1.0  0.88991  0.63866  0.90784  1.0000
  H   H744      1.0  0.74657  0.65106  0.89968  1.0000
  H   H745      1.0  0.90382  0.54424  0.88567  1.0000
  C   C929      1.0  0.92558  0.66097  0.87494  1.0000
  Fe  Fe62      1.0  0.94014  0.51070  0.79373  1.0000
  H   H746      1.0  0.59549  0.61715  0.83608  1.0000
  C   C930      1.0  0.57316  0.61880  0.82710  1.0000
  H   H747      1.0  0.80887  0.73422  0.97811  1.0000
  H   H748      1.0  0.86565  0.70288  0.88061  1.0000
  C   C931      1.0  0.93376  0.65883  0.84702  1.0000
  H   H749      1.0  0.57093  0.58505  0.79260  1.0000
  C   C932      1.0  0.51556  0.61117  0.98693  1.0000
  S   S126      1.0  0.64713  0.62054  0.98345  1.0000
  C   C933      1.0  0.85360  0.54158  0.96932  1.0000
  C   C934      1.0  0.80508  0.60178  0.88823  1.0000
  H   H750      1.0  0.63605  0.94141  0.89361  1.0000
  H   H751      1.0  0.97374  0.54633  0.94095  1.0000
  H   H752      1.0  0.61218  0.90667  0.85103  1.0000
  C   C935      1.0  0.87387  0.75979  0.94665  1.0000
  C   C936      1.0  0.52980  0.60171  0.79161  1.0000
  H   H753      1.0  0.83384  0.48526  0.82200  1.0000
  C   C937      1.0  0.92772  0.56482  0.88001  1.0000
  C   C938      1.0  0.78140  0.49895  0.67577  1.0000
  H   H754      1.0  0.57999  0.78337  0.86887  1.0000
  C   C939      1.0  0.88021  0.60957  0.84064  1.0000
  H   H755      1.0  0.91758  0.63139  0.80824  1.0000
  H   H756      1.0  0.53798  0.60569  0.98553  1.0000
  S   S127      1.0  0.49992  0.51175  0.76944  1.0000
  C   C940      1.0  0.63416  0.95434  0.87447  1.0000
  Fe  Fe63      1.0  0.64003  0.94543  0.98698  1.0000
  C   C941      1.0  0.57614  0.53111  0.96863  1.0000
  H   H757      1.0  0.53681  0.66138  0.90302  1.0000
  C   C942      1.0  0.78400  0.52337  0.76151  1.0000
  C   C943      1.0  0.61787  0.95144  0.82597  1.0000
  H   H758      1.0  0.96066  0.48911  0.86697  1.0000
  C   C944      1.0  0.78394  0.49769  0.74264  1.0000
  H   H759      1.0  0.50412  0.55165  0.71001  1.0000
  S   S128      1.0  0.62461  0.88766  0.97638  1.0000
  C   C945      1.0  0.51822  0.52383  0.96122  1.0000
  C   C946      1.0  0.84416  0.51522  0.75097  1.0000
  C   C947      1.0  0.63959  0.85617  0.98846  1.0000
  H   H760      1.0  0.49280  0.67956  0.97952  1.0000
  C   C948      1.0  0.52792  0.96883  0.85931  1.0000
  C   C949      1.0  0.48326  0.70390  0.77920  1.0000
  H   H761      1.0  0.50558  0.97047  0.95304  1.0000
  H   H762      1.0  0.85014  0.49535  0.94783  1.0000
  C   C950      1.0  0.95885  0.89724  0.95855  1.0000
  C   C951      1.0  0.51856  0.64511  0.98164  1.0000
  C   C952      1.0  0.51659  0.53513  0.98858  1.0000
  H   H763      1.0  0.94715  0.88463  0.91522  1.0000
  C   C953      1.0  0.65501  0.49801  0.74389  1.0000
  Fe  Fe64      1.0  0.47839  0.97148  0.79973  1.0000
  C   C954      1.0  0.81818  0.49719  0.83135  1.0000
  H   H764      1.0  0.85825  0.53265  0.98942  1.0000
  H   H765      1.0  0.75420  0.73620  0.99014  1.0000
  H   H766      1.0  0.71073  0.50489  0.69176  1.0000
  C   C955      1.0  0.95151  0.88563  0.98610  1.0000
  H   H767      1.0  0.49707  0.51700  0.94716  1.0000
  H   H768      1.0  0.94626  0.79354  0.99372  1.0000
  C   C956      1.0  0.78354  0.48411  0.82575  1.0000
  C   C957      1.0  0.94396  0.48265  0.88492  1.0000
  C   C958      1.0  0.71124  0.48247  0.73251  1.0000
  C   C959      1.0  0.83684  0.82024  0.99459  1.0000
  C   C960      1.0  0.66720  0.48226  0.76433  1.0000
