data_image0
_chemical_formula_structural       FeSHFeS2FeSFeS3FeS2FeS2FeCFeS3CHC2HC5PHCHC4H3C6H4C3H6C2H3C3H2C3SHCHC2H2CHC2H2C2H4C4HC3SC2H2CHCHCHCHCHCHC7HC4HC2HCHCH2CHC3H3C2H2C4HCH5PC2H3CH3CH3CPC2HC4HCHCHC3H2C2H2PCH4CH2C4H3CH3C4HC3HC2H2CH2C4FeS2FeS2FeSFeS3FeS2FeS2FeHFeS3FeS2FeS2FeSFeS3FeS2FeS2FeSFeS3C3H2C4HC6H5C3H2CH2C6H4CHC6H4C7H3C2H2CHPC3HCHC2H2C2H3C2HCHCH2CHC2H3C2H5C4H2CH3C7H3C2HC2HPC2H3C11H2CH2CH7C6PC18H21C3HC3HC6PC14H15CH4CHCH3CH5CH4C5H3CH2CHC3HCHPCHC6HC4HCH2C3H2PSC2H2CHC2HC2H2CH2CHC5H2PC3H2C4H2C6HC4H4CH3CFeS2FeS2FeSFeS3FeS2FeS2FeSFeS3C3H5CHCH2C2HC2H2C7H4C6HCH2C6H5C4HC3H4CH6CH2CH2C2HCHCHC5HC2HCHCHC2H3C5PC17H16C2HC2H3C3HC5HPC3HC5HCHC6HCH9C3H5PC3HC2H3C2H2CH3CH2C3HC6H4PSFeS2FeS2FeSFeS3FeS2FeS2FeSFeS3C2H2CHPHCHC6H5C2HC3H2C6H4C6H5C3H2C2H2C2HC3HC2HC3H2C6PC6HCH3C3H2CH9C3HC2H2C2HC2H3CHC2HC3HCHC5HC2HC2HCHC2HC2H3CHCHCHC10H9C6PC16HCH8C2H7CHCHC7SH2C3HC3H3CHCHCHCHCH3C3HC2HCH2C2H2CH2CHPHCHCH2CHPHCH2C2H2CHFeS2FeS2FeSFeS3FeS2FeS2FeSFeS3FeS2FeS2FeSFeS3FeS2FeS2FeSFeS3C6H4C3HCH5CHC7H4C6H4C6H7C2HCHC2H2CH3C3HC2H2C3H2C6HC3HPHCH2C3H2CHCH2C2HC6H3C5H2C2HC2H3CHC2H2C3HCH2C2H2PC4H2CH2C5H3CHCPH2CH4CHC3H2CHCHCHCH2CH3C2H2C5HC2H2CH2C2HC8PC18H20CHCPC3H2C3HC2HC7HCH3CHC4H2C10PC19H18CH2PC2H4CH3C2HCHC3HC3HC3H4CHCHCH6C2HCH3CH2C2HFeS2FeS2FeSFeS2FeS2FeS2FeSCSHCHC2HCHC6PH3C6H4C4PC3H2SC2H2CPC2HCH3CHCHC4HC3HCHC2H2CHC2H2C2HCHFeC2H2C3H5C3H4C4H2CHCHCH5CHC3HC4HC5HC2H2C3HCHC2H2CHC2H3C2H2C2HC3HC3PHCHC3H8CH2CHC3H2C2HCFeSCFeS2FeSFeS3FeS2FeS2FeCFeS3HCHC2H2C7H4C2H3C3H3C2HC2HCHC2HC5PSC6PC8HCHCHC3HC3H6C2H2C2H5CH2C2HCHCH2CH5PCHC2HCHC4H2C2H4C2H2C2HC3H2PCHSHCHC5HCHC2H3CH5C2HCH3CHCH3CHC2HC2H3C3HC5HC7H4C2HC2HC5H3C4H2CH3CHCH6FeS2FeS2FeSFeS3FeS2FeS2FeSFeHS2FeS2FeS2FeSFeS3FeS2FeS2FeSFeS3C6H5C2H4CHCHC2H3C3H2C7H7CHCH2C6H4C2HCH2C6H4C7H7C2HC5H5PH2CHC2H3C6PC18H19C3HC3H2C4HCHCH3C5PC10HC6H10CHC2H5CH2PC2HC8HCHCHC2H2C2H4C2HC4HC2H2C3PHC2HC3HC2HCH2C2HC4HCHCHC3H3CH3PCHC2HC5H3CHCHC2H2CHC3H2C4H3C2H4C2H3C3HC2H2CHC2HSC2H2C2FeS2FeS2FeSFeS3FeS2FeS2FeSFeS3H2C2HC3HC7H4C2H2CHC3HC6H4C7H4CH2CH2CH2C8H3CH4C3H3CH2CHCHC6PC18H20CH2CHC3H2C2PC2HCH3CHCHC4HC3H2CHCHCHCHCHCHCH2PC6PC2HCHC5H5C4H2C5PHC5H2CH2CH2CHC2HPCHC3HC3PCH2C3HCH3C5HC2HCH2CH4C3H2C3S2FeS2FeS2FeSFeS3FeS2FeS2FeSFeS3C6H4C2H3C2H3C2H2CHCHCHC6H4C6H4C4PC9H8C4H2CHC4HC2HCHCHC3HCHC2HCH3CH5CH2C6H2C3H2C3H6PC7H3C6PC8HCHC7H6CH3CHCH6C2HC3PHCHC6PCH3C4H4C3H2C2HCH2C4H5CHC7H3C4HC3H2C3H3CHC3H4C3H3C2H2C2HC2H3C3H2CHC3H2CH2CH2FeS2FeS2FeSFeS3FeS2FeS2FeSFeS3FeS2FeS2FeSFeS3FeS2FeS2FeSFeS3H5C2H2C7H4C2H2CHC4H2C6H4CH2CHC6H4C6H5C2HC4HCH2CHCH2CHCHC4H2C7PC15H17CH3C2HC4PC18H14CH3C7PC14H13CPH3C3H4CH2C2H2C5H3C3HPHC4HCH3C2HPCHCHC3HC2H8C3HCHC2HCH3C2HCHCHC4HC3H2C2HC5HCHC3H3C2H2CHC2HC4H2PCHC3HCHC3HCFeSFeSHFeSFeS3FeS2FeS2FeSHSHCHC6HC3H2C2HCHC3HC7H5C5H3CHCHCH4CHC5H3C3HCHCHC5H4CHCH3C2H3C2PC2H3C6PC7HC2HC7H3CH3FeCH2CH3C2HCH2C3H2SHC2H3CH3C3H2CHCH3CHC2H2C2HCHP2C3HCHC9SCHCH7C2H3C4H5
_chemical_formula_sum              "Fe128 S256 H1536 C1920 P64"
_cell_length_a       42.1511
_cell_length_b       86.2543
_cell_length_c       42.1236
_cell_angle_alpha    90.1214
_cell_angle_beta     90.2252
_cell_angle_gamma    90.065

_space_group_name_H-M_alt    "P 1"
_space_group_IT_number       1

loop_
  _space_group_symop_operation_xyz
  'x, y, z'

loop_
  _atom_site_type_symbol
  _atom_site_label
  _atom_site_symmetry_multiplicity
  _atom_site_fract_x
  _atom_site_fract_y
  _atom_site_fract_z
  _atom_site_occupancy
  Fe  Fe1       1.0  0.34702  0.29390  0.11641  1.0000
  S   S1        1.0  0.37087  0.27971  0.15391  1.0000
  H   H1        1.0  0.26661  0.24048  0.39036  1.0000
  Fe  Fe2       1.0  0.33042  0.26432  0.07838  1.0000
  S   S2        1.0  0.35480  0.24875  0.11403  1.0000
  S   S3        1.0  0.30872  0.25526  0.03094  1.0000
  Fe  Fe3       1.0  0.32998  0.26346  0.15080  1.0000
  S   S4        1.0  0.31244  0.25329  0.19759  1.0000
  Fe  Fe4       1.0  0.39446  0.26650  0.11482  1.0000
  S   S5        1.0  0.44665  0.26191  0.12849  1.0000
  S   S6        1.0  0.30394  0.27834  0.11563  1.0000
  S   S7        1.0  0.37214  0.28132  0.07684  1.0000
  Fe  Fe5       1.0  0.18025  0.27271  0.33406  1.0000
  S   S8        1.0  0.20399  0.28143  0.37896  1.0000
  S   S9        1.0  0.19790  0.27747  0.28344  1.0000
  Fe  Fe6       1.0  0.11763  0.26433  0.36974  1.0000
  S   S10       1.0  0.13796  0.27219  0.41644  1.0000
  S   S11       1.0  0.06781  0.25370  0.36315  1.0000
  Fe  Fe7       1.0  0.15687  0.29273  0.38914  1.0000
  C   C1        1.0  0.00222  0.25286  0.36163  1.0000
  Fe  Fe8       1.0  0.18348  0.25999  0.40267  1.0000
  S   S12       1.0  0.20783  0.24125  0.43430  1.0000
  S   S13       1.0  0.13438  0.28528  0.34335  1.0000
  S   S14       1.0  0.16187  0.25084  0.35686  1.0000
  C   C2        1.0  0.02923  0.26154  0.37050  1.0000
  H   H2        1.0  0.03308  0.02796  0.08164  1.0000
  C   C3        1.0  0.02472  0.27587  0.38546  1.0000
  C   C4        1.0  0.02267  0.01667  0.08590  1.0000
  H   H3        1.0  0.04511  0.28270  0.39250  1.0000
  C   C5        1.0  0.23371  0.23515  0.46607  1.0000
  C   C6        1.0  0.20493  0.24835  0.15004  1.0000
  C   C7        1.0  0.17188  0.26581  0.03719  1.0000
  C   C8        1.0  0.29600  0.15265  0.45269  1.0000
  C   C9        1.0  0.23356  0.21949  0.47572  1.0000
  P   P1        1.0  0.47607  0.32360  0.16145  1.0000
  H   H4        1.0  0.00535  0.24176  0.35006  1.0000
  C   C10       1.0  0.13528  0.23841  0.47169  1.0000
  H   H5        1.0  0.46819  0.26988  0.06399  1.0000
  C   C11       1.0  0.27948  0.24206  0.01494  1.0000
  C   C12       1.0  0.17535  0.28298  0.15262  1.0000
  C   C13       1.0  0.23937  0.22167  0.02001  1.0000
  C   C14       1.0  0.26164  0.23199  0.03390  1.0000
  H   H6        1.0  0.29570  0.29036  0.26601  1.0000
  H   H7        1.0  0.22612  0.21391  0.03511  1.0000
  H   H8        1.0  0.26546  0.23182  0.05922  1.0000
  C   C15       1.0  0.28034  0.26017  0.22094  1.0000
  C   C16       1.0  0.26069  0.27228  0.21084  1.0000
  C   C17       1.0  0.23548  0.27732  0.23022  1.0000
  C   C18       1.0  0.22966  0.27039  0.25989  1.0000
  C   C19       1.0  0.24937  0.25833  0.26999  1.0000
  C   C20       1.0  0.27451  0.25325  0.25057  1.0000
  H   H9        1.0  0.26485  0.27768  0.18808  1.0000
  H   H10       1.0  0.22039  0.28666  0.22223  1.0000
  H   H11       1.0  0.24511  0.25285  0.29265  1.0000
  H   H12       1.0  0.28953  0.24386  0.25854  1.0000
  C   C21       1.0  0.38678  0.17079  0.41335  1.0000
  C   C22       1.0  0.42166  0.31860  0.06664  1.0000
  C   C23       1.0  0.26605  0.23913  0.13310  1.0000
  H   H13       1.0  0.26066  0.25394  0.09275  1.0000
  H   H14       1.0  0.26575  0.22579  0.17622  1.0000
  H   H15       1.0  0.40789  0.31717  0.04507  1.0000
  H   H16       1.0  0.24512  0.21417  0.39827  1.0000
  H   H17       1.0  0.38550  0.16494  0.43606  1.0000
  H   H18       1.0  0.06702  0.32033  0.41416  1.0000
  C   C24       1.0  0.32145  0.20873  0.04477  1.0000
  C   C25       1.0  0.44595  0.29634  0.18175  1.0000
  H   H19       1.0  0.14699  0.00136  0.00934  1.0000
  H   H20       1.0  0.25533  0.25738  0.47462  1.0000
  H   H21       1.0  0.09004  0.28867  0.11987  1.0000
  C   C26       1.0  0.22174  0.23802  0.16929  1.0000
  C   C27       1.0  0.45504  0.32184  0.12412  1.0000
  C   C28       1.0  0.30186  0.29503  0.38820  1.0000
  H   H22       1.0  0.28983  0.23561  0.12673  1.0000
  H   H23       1.0  0.08496  0.02214  0.01931  1.0000
  C   C29       1.0  0.20156  0.28798  0.46885  1.0000
  C   C30       1.0  0.09120  0.23617  0.43493  1.0000
  C   C31       1.0  0.22511  0.28247  0.08223  1.0000
  S   S15       1.0  0.14307  0.31719  0.40412  1.0000
  H   H24       1.0  0.36814  0.30518  0.20196  1.0000
  C   C32       1.0  0.24339  0.27885  0.05539  1.0000
  H   H25       1.0  0.19557  0.31151  0.45261  1.0000
  C   C33       1.0  0.48268  0.29417  0.23703  1.0000
  C   C34       1.0  0.31438  0.16440  0.43920  1.0000
  H   H26       1.0  0.27894  0.28666  0.02252  1.0000
  H   H27       1.0  0.18385  0.23510  0.08679  1.0000
  C   C35       1.0  0.28201  0.23140  0.39927  1.0000
  H   H28       1.0  0.47008  0.29822  0.11580  1.0000
  C   C36       1.0  0.44321  0.99783  0.47497  1.0000
  C   C37       1.0  0.18777  0.27565  0.48528  1.0000
  H   H29       1.0  0.25461  0.31870  0.24109  1.0000
  H   H30       1.0  0.49671  0.29340  0.25856  1.0000
  C   C38       1.0  0.16782  0.27782  0.12178  1.0000
  C   C39       1.0  0.46918  0.30759  0.18808  1.0000
  H   H31       1.0  0.23959  0.18329  0.99852  1.0000
  H   H32       1.0  0.42458  0.27490  0.19694  1.0000
  H   H33       1.0  0.45660  0.27310  0.24610  1.0000
  H   H34       1.0  0.49153  0.22518  0.12092  1.0000
  C   C40       1.0  0.22815  0.29726  0.09604  1.0000
  C   C41       1.0  0.07386  0.99776  0.02155  1.0000
  C   C42       1.0  0.32082  0.20796  0.42431  1.0000
  C   C43       1.0  0.40647  0.17148  0.35944  1.0000
  H   H35       1.0  0.27907  0.19337  0.41959  1.0000
  C   C44       1.0  0.21907  0.25463  0.12271  1.0000
  C   C45       1.0  0.17726  0.24161  0.06585  1.0000
  C   C46       1.0  0.32188  0.20136  0.98925  1.0000
  S   S16       1.0  0.35111  0.31872  0.13467  1.0000
  C   C47       1.0  0.31115  0.31421  0.27234  1.0000
  C   C48       1.0  0.44179  0.28386  0.20252  1.0000
  H   H36       1.0  0.15799  0.29349  0.19564  1.0000
  H   H37       1.0  0.35749  0.22556  0.42515  1.0000
  C   C49       1.0  0.26454  0.28972  0.04288  1.0000
  H   H38       1.0  0.08066  0.23102  0.41387  1.0000
  C   C50       1.0  0.32167  0.17787  0.45668  1.0000
  H   H39       1.0  0.10348  0.29730  0.17452  1.0000
  C   C51       1.0  0.35252  0.30763  0.22174  1.0000
  H   H40       1.0  0.43113  0.29701  0.16079  1.0000
  C   C52       1.0  0.03166  0.00816  0.11267  1.0000
  H   H41       1.0  0.41327  0.18784  0.45967  1.0000
  C   C53       1.0  0.12100  0.23126  0.44546  1.0000
  H   H42       1.0  0.32680  0.21715  0.06319  1.0000
  C   C54       1.0  0.01635  0.32088  0.33710  1.0000
  H   H43       1.0  0.30853  0.31813  0.37161  1.0000
  C   C55       1.0  0.48737  0.30648  0.21600  1.0000
  C   C56       1.0  0.24950  0.24966  0.11407  1.0000
  C   C57       1.0  0.45648  0.30793  0.10689  1.0000
  C   C58       1.0  0.05260  0.32040  0.39280  1.0000
  C   C59       1.0  0.25235  0.23346  0.16088  1.0000
  C   C60       1.0  0.37206  0.19195  0.37852  1.0000
  C   C61       1.0  0.16629  0.23353  0.03913  1.0000
  H   H44       1.0  0.19996  0.26464  0.48611  1.0000
  C   C62       1.0  0.06475  0.31409  0.36484  1.0000
  C   C63       1.0  0.43977  0.30631  0.07834  1.0000
  C   C64       1.0  0.39009  0.18533  0.35420  1.0000
  C   C65       1.0  0.37028  0.18473  0.40833  1.0000
  H   H45       1.0  0.21124  0.23370  0.19098  1.0000
  C   C66       1.0  0.24357  0.31819  0.29123  1.0000
  C   C67       1.0  0.26765  0.30432  0.05696  1.0000
  H   H46       1.0  0.18101  0.25144  0.15675  1.0000
  C   C68       1.0  0.28721  0.30361  0.33506  1.0000
  H   H47       1.0  0.42031  0.16633  0.34052  1.0000
  C   C69       1.0  0.25517  0.32186  0.16743  1.0000
  H   H48       1.0  0.29781  0.14184  0.99374  1.0000
  H   H49       1.0  0.26732  0.26567  0.34649  1.0000
  C   C70       1.0  0.40483  0.16422  0.38902  1.0000
  H   H50       1.0  0.19903  0.28137  0.16223  1.0000
  C   C71       1.0  0.12149  0.29201  0.15974  1.0000
  C   C72       1.0  0.31155  0.29941  0.25824  1.0000
  C   C73       1.0  0.26985  0.21649  0.40371  1.0000
  H   H51       1.0  0.24169  0.26755  0.04423  1.0000
  H   H52       1.0  0.28434  0.31265  0.04745  1.0000
  H   H53       1.0  0.44030  0.29537  0.06567  1.0000
  C   C74       1.0  0.33303  0.22291  0.41930  1.0000
  C   C75       1.0  0.28915  0.20478  0.41610  1.0000
  H   H54       1.0  0.08829  0.30909  0.36477  1.0000
  H   H55       1.0  0.28685  0.17345  0.03442  1.0000
  C   C76       1.0  0.28421  0.15437  0.48342  1.0000
  C   C77       1.0  0.07570  0.24828  0.45054  1.0000
  C   C78       1.0  0.29851  0.18422  0.02823  1.0000
  C   C79       1.0  0.07965  0.01173  0.00585  1.0000
  H   H56       1.0  0.13369  0.22237  0.43248  1.0000
  C   C80       1.0  0.13695  0.28000  0.11002  1.0000
  H   H57       1.0  0.15896  0.23490  0.47850  1.0000
  H   H58       1.0  0.29968  0.19244  0.07662  1.0000
  H   H59       1.0  0.31150  0.29757  0.41151  1.0000
  H   H60       1.0  0.39119  0.19090  0.33119  1.0000
  H   H61       1.0  0.25352  0.31020  0.15791  1.0000
  P   P2        1.0  0.19771  0.26828  0.09809  1.0000
  C   C81       1.0  0.18069  0.25781  0.06488  1.0000
  C   C82       1.0  0.37093  0.20108  0.47082  1.0000
  H   H62       1.0  0.18518  0.17307  0.99810  1.0000
  H   H63       1.0  0.26295  0.28629  0.30678  1.0000
  H   H64       1.0  0.21429  0.30050  0.11646  1.0000
  C   C83       1.0  0.24943  0.30810  0.08349  1.0000
  H   H65       1.0  0.05615  0.30932  0.31543  1.0000
  H   H66       1.0  0.13048  0.27613  0.08641  1.0000
  H   H67       1.0  0.14214  0.31434  0.47566  1.0000
  C   C84       1.0  0.33221  0.29615  0.23318  1.0000
  H   H68       1.0  0.32272  0.16293  0.41513  1.0000
  H   H69       1.0  0.41741  0.15344  0.39304  1.0000
  H   H70       1.0  0.33218  0.28472  0.22233  1.0000
  C   C85       1.0  0.23610  0.31852  0.25875  1.0000
  P   P3        1.0  0.34627  0.19288  0.43971  1.0000
  C   C86       1.0  0.31363  0.23459  0.40695  1.0000
  C   C87       1.0  0.30600  0.19487  0.05224  1.0000
  H   H71       1.0  0.35937  0.20259  0.37375  1.0000
  C   C88       1.0  0.48442  0.26652  0.11194  1.0000
  C   C89       1.0  0.08995  0.25547  0.47679  1.0000
  C   C90       1.0  0.15521  0.30366  0.47930  1.0000
  C   C91       1.0  0.18539  0.30204  0.46610  1.0000
  H   H72       1.0  0.05329  0.25252  0.44126  1.0000
  C   C92       1.0  0.30028  0.30670  0.36521  1.0000
  H   H73       1.0  0.17426  0.27830  0.03591  1.0000
  C   C93       1.0  0.15221  0.28993  0.17157  1.0000
  H   H74       1.0  0.29094  0.27125  0.39940  1.0000
  C   C94       1.0  0.27719  0.27703  0.35162  1.0000
  C   C95       1.0  0.29041  0.28018  0.38138  1.0000
  C   C96       1.0  0.46006  0.28279  0.23014  1.0000
  H   H75       1.0  0.32302  0.24615  0.40356  1.0000
  H   H76       1.0  0.30330  0.31885  0.18297  1.0000
  C   C97       1.0  0.27508  0.28874  0.32885  1.0000
  C   C98       1.0  0.11391  0.28710  0.12896  1.0000
  H   H77       1.0  0.23794  0.00176  0.01257  1.0000
  H   H78       1.0  0.16476  0.22098  0.03947  1.0000
  P   P4        1.0  0.28425  0.31849  0.30481  1.0000
  C   C99       1.0  0.16106  0.25767  0.01050  1.0000
  H   H79       1.0  0.29091  0.14215  0.43942  1.0000
  H   H80       1.0  0.00288  0.32118  0.31517  1.0000
  H   H81       1.0  0.15543  0.31759  0.26364  1.0000
  H   H82       1.0  0.16846  0.31733  0.32109  1.0000
  C   C100      1.0  0.40261  0.19638  0.47502  1.0000
  H   H83       1.0  0.25208  0.31943  0.09440  1.0000
  H   H84       1.0  0.20960  0.32503  0.39246  1.0000
  C   C101      1.0  0.18730  0.31781  0.30363  1.0000
  C   C102      1.0  0.30592  0.18750  0.99647  1.0000
  C   C103      1.0  0.01758  0.99379  0.11867  1.0000
  C   C104      1.0  0.35193  0.32245  0.23508  1.0000
  H   H85       1.0  0.04921  0.01277  0.12904  1.0000
  H   H86       1.0  0.22433  0.28648  0.45742  1.0000
  H   H87       1.0  0.22420  0.31737  0.33872  1.0000
  C   C105      1.0  0.48854  0.26981  0.07969  1.0000
  H   H88       1.0  0.19868  0.31827  0.22376  1.0000
  H   H89       1.0  0.35574  0.00375  0.43554  1.0000
  H   H90       1.0  0.00887  0.99931  0.00244  1.0000
  C   C106      1.0  0.20437  0.31835  0.24883  1.0000
  C   C107      1.0  0.04664  0.31429  0.33703  1.0000
  C   C108      1.0  0.32943  0.21194  0.01332  1.0000
  C   C109      1.0  0.17999  0.31800  0.27125  1.0000
  H   H91       1.0  0.21789  0.21140  0.46380  1.0000
  C   C110      1.0  0.21895  0.31778  0.31357  1.0000
  C   C111      1.0  0.25439  0.24536  0.48179  1.0000
  C   C112      1.0  0.47467  0.99371  0.46869  1.0000
  H   H92       1.0  0.07423  0.99734  0.04726  1.0000
  C   C113      1.0  0.35099  0.99578  0.45475  1.0000
  C   C114      1.0  0.15858  0.24152  0.01137  1.0000
  H   H93       1.0  0.34090  0.22284  0.00756  1.0000
  H   H94       1.0  0.34013  0.12251  0.00089  1.0000
  C   C115      1.0  0.34555  0.13356  0.98995  1.0000
  H   H95       1.0  0.15122  0.23513  0.99037  1.0000
  H   H96       1.0  0.15522  0.26382  0.98886  1.0000
  C   C116      1.0  0.33125  0.32576  0.26009  1.0000
  C   C117      1.0  0.34900  0.00147  0.48614  1.0000
  C   C118      1.0  0.49973  0.00322  0.47908  1.0000
  C   C119      1.0  0.23417  0.22122  0.98692  1.0000
  Fe  Fe9       1.0  0.13342  0.03716  0.84431  1.0000
  S   S17       1.0  0.14844  0.04631  0.89193  1.0000
  S   S18       1.0  0.08592  0.04340  0.82252  1.0000
  Fe  Fe10      1.0  0.19938  0.02428  0.82962  1.0000
  S   S19       1.0  0.21896  0.03204  0.87703  1.0000
  S   S20       1.0  0.22836  0.01163  0.79162  1.0000
  Fe  Fe11      1.0  0.17307  0.02311  0.89804  1.0000
  S   S21       1.0  0.16431  0.01214  0.94727  1.0000
  Fe  Fe12      1.0  0.19264  0.05437  0.86738  1.0000
  S   S22       1.0  0.21787  0.07776  0.86944  1.0000
  S   S23       1.0  0.15519  0.01362  0.85118  1.0000
  S   S24       1.0  0.17588  0.04695  0.81913  1.0000
  Fe  Fe13      1.0  0.40571  0.02867  0.62289  1.0000
  S   S25       1.0  0.39856  0.03254  0.57083  1.0000
  S   S26       1.0  0.45173  0.02026  0.64487  1.0000
  Fe  Fe14      1.0  0.33674  0.03790  0.63986  1.0000
  S   S27       1.0  0.32475  0.04237  0.58823  1.0000
  S   S28       1.0  0.30399  0.04582  0.68024  1.0000
  Fe  Fe15      1.0  0.35193  0.02024  0.57733  1.0000
  H   H97       1.0  0.26878  0.14586  0.93717  1.0000
  Fe  Fe16      1.0  0.37245  0.05420  0.58608  1.0000
  S   S29       1.0  0.38840  0.07783  0.56836  1.0000
  S   S30       1.0  0.36062  0.01525  0.62930  1.0000
  S   S31       1.0  0.38283  0.05093  0.63779  1.0000
  Fe  Fe17      1.0  0.32100  0.16115  0.57882  1.0000
  S   S32       1.0  0.34480  0.16137  0.62613  1.0000
  S   S33       1.0  0.30346  0.13844  0.55798  1.0000
  Fe  Fe18      1.0  0.31536  0.19663  0.57624  1.0000
  S   S34       1.0  0.33899  0.19906  0.62480  1.0000
  S   S35       1.0  0.29874  0.21867  0.54931  1.0000
  Fe  Fe19      1.0  0.37427  0.18114  0.60707  1.0000
  S   S36       1.0  0.42719  0.17867  0.62106  1.0000
  Fe  Fe20      1.0  0.30818  0.17895  0.64027  1.0000
  S   S37       1.0  0.27697  0.17160  0.68218  1.0000
  S   S38       1.0  0.35234  0.17976  0.55807  1.0000
  S   S39       1.0  0.28278  0.17781  0.59322  1.0000
  Fe  Fe21      1.0  0.16610  0.16691  0.89041  1.0000
  S   S40       1.0  0.15167  0.17872  0.84489  1.0000
  S   S41       1.0  0.15003  0.14205  0.89927  1.0000
  Fe  Fe22      1.0  0.18756  0.19786  0.92287  1.0000
  S   S42       1.0  0.17288  0.21133  0.87955  1.0000
  S   S43       1.0  0.20466  0.20817  0.97112  1.0000
  Fe  Fe23      1.0  0.12870  0.19635  0.87688  1.0000
  S   S44       1.0  0.07936  0.20710  0.86816  1.0000
  Fe  Fe24      1.0  0.19696  0.19238  0.85137  1.0000
  S   S45       1.0  0.23299  0.20077  0.81456  1.0000
  S   S46       1.0  0.14163  0.18419  0.92214  1.0000
  S   S47       1.0  0.21314  0.17927  0.89496  1.0000
  C   C120      1.0  0.14111  0.07508  0.63909  1.0000
  C   C121      1.0  0.04084  0.19825  0.86644  1.0000
  C   C122      1.0  0.03656  0.18215  0.86583  1.0000
  H   H98       1.0  0.01654  0.22023  0.86592  1.0000
  H   H99       1.0  0.05705  0.17462  0.86656  1.0000
  C   C123      1.0  0.46586  0.18355  0.60655  1.0000
  C   C124      1.0  0.07920  0.01223  0.97270  1.0000
  C   C125      1.0  0.47051  0.19211  0.57876  1.0000
  C   C126      1.0  0.23006  0.10300  0.64066  1.0000
  H   H100      1.0  0.45015  0.19597  0.56533  1.0000
  C   C127      1.0  0.26509  0.18010  0.71876  1.0000
  C   C128      1.0  0.24154  0.17265  0.73678  1.0000
  C   C129      1.0  0.23139  0.17874  0.76612  1.0000
  C   C130      1.0  0.24495  0.19237  0.77796  1.0000
  C   C131      1.0  0.26864  0.19980  0.76008  1.0000
  C   C132      1.0  0.27863  0.19374  0.73060  1.0000
  H   H101      1.0  0.23114  0.16204  0.72803  1.0000
  H   H102      1.0  0.21318  0.17288  0.77959  1.0000
  H   H103      1.0  0.27938  0.21030  0.76916  1.0000
  H   H104      1.0  0.29700  0.19951  0.71722  1.0000
  H   H105      1.0  0.13695  0.09906  0.71382  1.0000
  C   C133      1.0  0.18975  0.02064  0.71405  1.0000
  C   C134      1.0  0.27375  0.22442  0.51663  1.0000
  C   C135      1.0  0.19081  0.08850  0.78534  1.0000
  H   H106      1.0  0.28089  0.16927  0.52418  1.0000
  H   H107      1.0  0.14343  0.22789  0.53517  1.0000
  C   C136      1.0  0.25210  0.23123  0.96789  1.0000
  H   H108      1.0  0.29383  0.00722  0.64296  1.0000
  H   H109      1.0  0.24852  0.23116  0.94245  1.0000
  C   C137      1.0  0.36360  0.09439  0.56833  1.0000
  C   C138      1.0  0.33071  0.09329  0.56434  1.0000
  C   C139      1.0  0.31233  0.10688  0.56155  1.0000
  C   C140      1.0  0.32657  0.12160  0.56366  1.0000
  C   C141      1.0  0.35922  0.12266  0.56893  1.0000
  C   C142      1.0  0.37760  0.10912  0.57089  1.0000
  H   H110      1.0  0.31963  0.08202  0.56224  1.0000
  H   H111      1.0  0.28705  0.10598  0.55741  1.0000
  H   H112      1.0  0.37045  0.13392  0.57070  1.0000
  H   H113      1.0  0.40278  0.11012  0.57440  1.0000
  C   C143      1.0  0.31281  0.18031  0.87097  1.0000
  H   H114      1.0  0.26114  0.22421  0.68206  1.0000
  C   C144      1.0  0.19790  0.09557  0.87562  1.0000
  C   C145      1.0  0.16698  0.09607  0.88745  1.0000
  C   C146      1.0  0.15247  0.11043  0.89382  1.0000
  C   C147      1.0  0.16859  0.12444  0.88823  1.0000
  C   C148      1.0  0.19916  0.12397  0.87543  1.0000
  C   C149      1.0  0.21381  0.10958  0.86935  1.0000
  H   H115      1.0  0.15461  0.08537  0.89262  1.0000
  H   H116      1.0  0.12885  0.11068  0.90377  1.0000
  H   H117      1.0  0.21179  0.13468  0.87103  1.0000
  H   H118      1.0  0.23771  0.10928  0.86012  1.0000
  C   C150      1.0  0.26015  0.02158  0.61883  1.0000
  C   C151      1.0  0.25078  0.02127  0.76179  1.0000
  C   C152      1.0  0.25172  0.03745  0.75971  1.0000
  C   C153      1.0  0.26862  0.04470  0.73499  1.0000
  C   C154      1.0  0.28476  0.03592  0.71194  1.0000
  C   C155      1.0  0.28433  0.01974  0.71434  1.0000
  C   C156      1.0  0.26732  0.01247  0.73904  1.0000
  H   H119      1.0  0.23918  0.04435  0.77704  1.0000
  H   H120      1.0  0.26923  0.05721  0.73382  1.0000
  H   H121      1.0  0.29707  0.01283  0.69726  1.0000
  C   C157      1.0  0.25873  0.16491  0.96920  1.0000
  C   C158      1.0  0.17405  0.03005  0.73592  1.0000
  H   H122      1.0  0.41757  0.17371  0.53399  1.0000
  H   H123      1.0  0.16146  0.27651  0.61694  1.0000
  C   C159      1.0  0.28302  0.19576  0.92109  1.0000
  H   H124      1.0  0.46614  0.03235  0.58231  1.0000
  P   P5        1.0  0.01779  0.09635  0.85567  1.0000
  C   C160      1.0  0.05013  0.03430  0.83346  1.0000
  C   C161      1.0  0.04990  0.02072  0.85149  1.0000
  C   C162      1.0  0.26050  0.99346  0.61571  1.0000
  H   H125      1.0  0.07204  0.01574  0.85961  1.0000
  C   C163      1.0  0.42109  0.20273  0.49949  1.0000
  H   H126      1.0  0.02131  0.05121  0.80923  1.0000
  C   C164      1.0  0.37656  0.13688  0.98047  1.0000
  C   C165      1.0  0.20999  0.08188  0.67317  1.0000
  H   H127      1.0  0.43976  0.09713  0.54409  1.0000
  H   H128      1.0  0.48968  0.17194  0.64513  1.0000
  C   C166      1.0  0.05055  0.08990  0.83145  1.0000
  C   C167      1.0  0.40019  0.13822  0.50319  1.0000
  H   H129      1.0  0.25267  0.20210  0.50770  1.0000
  H   H130      1.0  0.02097  0.00260  0.87133  1.0000
  H   H131      1.0  0.43901  0.09371  0.65174  1.0000
  C   C168      1.0  0.02138  0.11184  0.91411  1.0000
  C   C169      1.0  0.03181  0.11126  0.88251  1.0000
  H   H132      1.0  0.02454  0.12379  0.95901  1.0000
  C   C170      1.0  0.05340  0.12250  0.87175  1.0000
  H   H133      1.0  0.26685  0.99995  0.74047  1.0000
  C   C171      1.0  0.46397  0.09588  0.53622  1.0000
  H   H134      1.0  0.27899  0.10118  0.62618  1.0000
  H   H135      1.0  0.04531  0.25442  0.58671  1.0000
  C   C172      1.0  0.41962  0.16144  0.52891  1.0000
  H   H136      1.0  0.21418  0.13544  0.93806  1.0000
  C   C173      1.0  0.25978  0.09589  0.63942  1.0000
  C   C174      1.0  0.39772  0.15412  0.50894  1.0000
  H   H137      1.0  0.29653  0.19925  0.84184  1.0000
  H   H138      1.0  0.27047  0.14515  0.49423  1.0000
  H   H139      1.0  0.06642  0.07478  0.75836  1.0000
  C   C175      1.0  0.06442  0.13408  0.89227  1.0000
  C   C176      1.0  0.14896  0.10402  0.76232  1.0000
  H   H140      1.0  0.45983  0.00093  0.58073  1.0000
  H   H141      1.0  0.06178  0.07204  0.62458  1.0000
  H   H142      1.0  0.35193  0.01372  0.49083  1.0000
  H   H143      1.0  0.07794  0.17391  0.96359  1.0000
  H   H144      1.0  0.45510  0.07304  0.51755  1.0000
  C   C177      1.0  0.16713  0.26732  0.63343  1.0000
  C   C178      1.0  0.28253  0.20212  0.89059  1.0000
  C   C179      1.0  0.02125  0.04065  0.82302  1.0000
  C   C180      1.0  0.35832  0.21232  0.49134  1.0000
  H   H145      1.0  0.05412  0.27890  0.61658  1.0000
  H   H146      1.0  0.06148  0.06829  0.68298  1.0000
  C   C181      1.0  0.10105  0.07827  0.79531  1.0000
  H   H147      1.0  0.22631  0.11387  0.62835  1.0000
  H   H148      1.0  0.06189  0.12229  0.84751  1.0000
  H   H149      1.0  0.27016  0.03224  0.62810  1.0000
  C   C182      1.0  0.22077  0.00834  0.58687  1.0000
  C   C183      1.0  0.45860  0.12254  0.60005  1.0000
  C   C184      1.0  0.44764  0.13523  0.61783  1.0000
  C   C185      1.0  0.43359  0.13299  0.64747  1.0000
  C   C186      1.0  0.43056  0.11804  0.65978  1.0000
  C   C187      1.0  0.44185  0.10535  0.64254  1.0000
  C   C188      1.0  0.45604  0.10760  0.61293  1.0000
  H   H150      1.0  0.44962  0.14692  0.60883  1.0000
  H   H151      1.0  0.42461  0.14291  0.66050  1.0000
  H   H152      1.0  0.41904  0.11626  0.68244  1.0000
  C   C189      1.0  0.49291  0.01628  0.49780  1.0000
  C   C190      1.0  0.32150  0.14452  0.98557  1.0000
  H   H153      1.0  0.13145  0.11314  0.76466  1.0000
  C   C191      1.0  0.29896  0.18176  0.92687  1.0000
  C   C192      1.0  0.00568  0.17575  0.86369  1.0000
  H   H154      1.0  0.47824  0.06529  0.57597  1.0000
  P   P6        1.0  0.13976  0.26100  0.51900  1.0000
  C   C193      1.0  0.11220  0.26694  0.54928  1.0000
  C   C194      1.0  0.40810  0.21373  0.52006  1.0000
  H   H155      1.0  0.06312  0.14342  0.93957  1.0000
  H   H156      1.0  0.36543  0.17335  0.95205  1.0000
  H   H157      1.0  0.11172  0.06878  0.71330  1.0000
  C   C195      1.0  0.11742  0.28060  0.56673  1.0000
  C   C196      1.0  0.09643  0.28492  0.59080  1.0000
  C   C197      1.0  0.07041  0.27552  0.59795  1.0000
  C   C198      1.0  0.06542  0.26175  0.58109  1.0000
  C   C199      1.0  0.08631  0.25742  0.55691  1.0000
  C   C200      1.0  0.16927  0.24952  0.53944  1.0000
  C   C201      1.0  0.16472  0.23354  0.54384  1.0000
  C   C202      1.0  0.18818  0.22462  0.55865  1.0000
  C   C203      1.0  0.21597  0.23165  0.56976  1.0000
  C   C204      1.0  0.22001  0.24765  0.56681  1.0000
  C   C205      1.0  0.19666  0.25659  0.55195  1.0000
  H   H158      1.0  0.45958  0.15877  0.55975  1.0000
  H   H159      1.0  0.18255  0.10190  0.65882  1.0000
  C   C206      1.0  0.31336  0.17392  0.90147  1.0000
  H   H160      1.0  0.13777  0.28789  0.56185  1.0000
  H   H161      1.0  0.10033  0.29558  0.60394  1.0000
  C   C207      1.0  0.11214  0.07077  0.68790  1.0000
  H   H162      1.0  0.08140  0.14261  0.88394  1.0000
  H   H163      1.0  0.08228  0.24665  0.54422  1.0000
  H   H164      1.0  0.44546  0.19902  0.50279  1.0000
  H   H165      1.0  0.18524  0.21219  0.56080  1.0000
  H   H166      1.0  0.23479  0.22470  0.58002  1.0000
  H   H167      1.0  0.24175  0.25301  0.57522  1.0000
  H   H168      1.0  0.20039  0.26896  0.54967  1.0000
  C   C208      1.0  0.34441  0.08973  0.67848  1.0000
  C   C209      1.0  0.35494  0.09927  0.65396  1.0000
  C   C210      1.0  0.34809  0.11511  0.65455  1.0000
  C   C211      1.0  0.33060  0.12141  0.67958  1.0000
  C   C212      1.0  0.31956  0.11188  0.70425  1.0000
  C   C213      1.0  0.32679  0.09596  0.70350  1.0000
  P   P7        1.0  0.29678  0.12022  0.73651  1.0000
  C   C214      1.0  0.29334  0.10673  0.76920  1.0000
  C   C215      1.0  0.31603  0.13771  0.75051  1.0000
  C   C216      1.0  0.29845  0.14906  0.76666  1.0000
  C   C217      1.0  0.31310  0.16267  0.77731  1.0000
  C   C218      1.0  0.34540  0.16508  0.77192  1.0000
  C   C219      1.0  0.36326  0.15369  0.75654  1.0000
  C   C220      1.0  0.34874  0.13998  0.74615  1.0000
  C   C221      1.0  0.27526  0.09313  0.76559  1.0000
  C   C222      1.0  0.27232  0.08272  0.79084  1.0000
  C   C223      1.0  0.28637  0.08603  0.82012  1.0000
  C   C224      1.0  0.30405  0.09960  0.82406  1.0000
  C   C225      1.0  0.30776  0.10988  0.79868  1.0000
  C   C226      1.0  0.25724  0.12544  0.72345  1.0000
  C   C227      1.0  0.23188  0.12514  0.74503  1.0000
  C   C228      1.0  0.20190  0.13051  0.73597  1.0000
  C   C229      1.0  0.19672  0.13593  0.70518  1.0000
  C   C230      1.0  0.22179  0.13636  0.68363  1.0000
  C   C231      1.0  0.25192  0.13121  0.69272  1.0000
  H   H169      1.0  0.34950  0.07739  0.67792  1.0000
  H   H170      1.0  0.35631  0.12254  0.63554  1.0000
  H   H171      1.0  0.32590  0.13378  0.67972  1.0000
  H   H172      1.0  0.31912  0.08819  0.72201  1.0000
  H   H173      1.0  0.27333  0.14754  0.77081  1.0000
  H   H174      1.0  0.29915  0.17150  0.78911  1.0000
  H   H175      1.0  0.35648  0.17582  0.77947  1.0000
  H   H176      1.0  0.38831  0.15558  0.75235  1.0000
  H   H177      1.0  0.36305  0.13126  0.73454  1.0000
  H   H178      1.0  0.26367  0.09054  0.74318  1.0000
  H   H179      1.0  0.25886  0.07209  0.78805  1.0000
  H   H180      1.0  0.28327  0.07810  0.83986  1.0000
  H   H181      1.0  0.31473  0.10215  0.84692  1.0000
  H   H182      1.0  0.32164  0.12028  0.80237  1.0000
  H   H183      1.0  0.23539  0.12127  0.76924  1.0000
  H   H184      1.0  0.18294  0.13088  0.75319  1.0000
  H   H185      1.0  0.17358  0.14026  0.69837  1.0000
  H   H186      1.0  0.21830  0.14117  0.66013  1.0000
  H   H187      1.0  0.27099  0.13222  0.67584  1.0000
  H   H188      1.0  0.37837  0.16068  0.49860  1.0000
  H   H189      1.0  0.08439  0.02298  0.96046  1.0000
  C   C232      1.0  0.24019  0.07506  0.67253  1.0000
  C   C233      1.0  0.48715  0.06811  0.59937  1.0000
  C   C234      1.0  0.08366  0.07041  0.67077  1.0000
  H   H190      1.0  0.02281  0.04374  0.90242  1.0000
  C   C235      1.0  0.27350  0.00734  0.62731  1.0000
  C   C236      1.0  0.16279  0.24051  0.64982  1.0000
  C   C237      1.0  0.15194  0.09590  0.73367  1.0000
  H   H191      1.0  0.25644  0.99717  0.95774  1.0000
  C   C238      1.0  0.11059  0.22757  0.75138  1.0000
  C   C239      1.0  0.11886  0.21978  0.77931  1.0000
  C   C240      1.0  0.14986  0.21447  0.78356  1.0000
  C   C241      1.0  0.17255  0.21695  0.76003  1.0000
  C   C242      1.0  0.16468  0.22495  0.73214  1.0000
  C   C243      1.0  0.13337  0.23012  0.72779  1.0000
  P   P8        1.0  0.19454  0.22786  0.70198  1.0000
  C   C244      1.0  0.18297  0.24345  0.67580  1.0000
  C   C245      1.0  0.23197  0.23312  0.72030  1.0000
  C   C246      1.0  0.26071  0.23019  0.70463  1.0000
  C   C247      1.0  0.28954  0.23477  0.71829  1.0000
  C   C248      1.0  0.28994  0.24228  0.74772  1.0000
  C   C249      1.0  0.26147  0.24530  0.76343  1.0000
  C   C250      1.0  0.23258  0.24086  0.74970  1.0000
  C   C251      1.0  0.19456  0.25855  0.68071  1.0000
  C   C252      1.0  0.19954  0.21040  0.67874  1.0000
  C   C253      1.0  0.21237  0.21126  0.64805  1.0000
  C   C254      1.0  0.21669  0.19782  0.63001  1.0000
  C   C255      1.0  0.20845  0.18340  0.64250  1.0000
  C   C256      1.0  0.19564  0.18242  0.67297  1.0000
  C   C257      1.0  0.19128  0.19584  0.69111  1.0000
  H   H192      1.0  0.08649  0.23163  0.74815  1.0000
  H   H193      1.0  0.10133  0.21782  0.79773  1.0000
  H   H194      1.0  0.15641  0.20845  0.80517  1.0000
  H   H195      1.0  0.19638  0.21268  0.76362  1.0000
  H   H196      1.0  0.12645  0.23616  0.70640  1.0000
  H   H197      1.0  0.31232  0.24561  0.75851  1.0000
  H   H198      1.0  0.26177  0.25095  0.78643  1.0000
  H   H199      1.0  0.21082  0.24347  0.76219  1.0000
  H   H200      1.0  0.20986  0.26120  0.70069  1.0000
  H   H201      1.0  0.21966  0.22230  0.63831  1.0000
  H   H202      1.0  0.22727  0.19852  0.60667  1.0000
  H   H203      1.0  0.21304  0.17292  0.62904  1.0000
  H   H204      1.0  0.19032  0.17119  0.68306  1.0000
  H   H205      1.0  0.18226  0.19469  0.71498  1.0000
  H   H206      1.0  0.16317  0.07635  0.62627  1.0000
  C   C258      1.0  0.47274  0.08204  0.52133  1.0000
  H   H207      1.0  0.44865  0.05658  0.62286  1.0000
  H   H208      1.0  0.07300  0.99937  0.92948  1.0000
  H   H209      1.0  0.15817  0.05289  0.74737  1.0000
  H   H210      1.0  0.12024  0.07305  0.78205  1.0000
  C   C259      1.0  0.04547  0.08494  0.80006  1.0000
  H   H211      1.0  0.02198  0.08503  0.78971  1.0000
  C   C260      1.0  0.25105  0.15156  0.95158  1.0000
  H   H212      1.0  0.32860  0.20408  0.96515  1.0000
  H   H213      1.0  0.11729  0.29256  0.50421  1.0000
  H   H214      1.0  0.36844  0.09435  0.63454  1.0000
  C   C261      1.0  0.18669  0.27041  0.65954  1.0000
  H   H215      1.0  0.19596  0.28200  0.66331  1.0000
  H   H216      1.0  0.16508  0.02506  0.75775  1.0000
  H   H217      1.0  0.24494  0.06440  0.68503  1.0000
  H   H218      1.0  0.04526  0.06614  0.87462  1.0000
  H   H219      1.0  0.32438  0.16273  0.90496  1.0000
  C   C262      1.0  0.19365  0.08025  0.75689  1.0000
  H   H220      1.0  0.42504  0.11730  0.51320  1.0000
  H   H221      1.0  0.15334  0.22899  0.64575  1.0000
  H   H222      1.0  0.27029  0.20155  0.94000  1.0000
  H   H223      1.0  0.02477  0.16337  0.97602  1.0000
  C   C263      1.0  0.03253  0.12344  0.93462  1.0000
  C   C264      1.0  0.00226  0.07997  0.87743  1.0000
  C   C265      1.0  0.47031  0.06317  0.62594  1.0000
  C   C266      1.0  0.20165  0.02702  0.68607  1.0000
  C   C267      1.0  0.20533  0.09614  0.65778  1.0000
  H   H224      1.0  0.31163  0.23225  0.70625  1.0000
  H   H225      1.0  0.31288  0.19016  0.50078  1.0000
  H   H226      1.0  0.16621  0.10659  0.81043  1.0000
  C   C268      1.0  0.05698  0.18096  0.95997  1.0000
  H   H227      1.0  0.22412  0.03319  0.59148  1.0000
  H   H228      1.0  0.32361  0.17417  0.85135  1.0000
  C   C269      1.0  0.15503  0.25241  0.62866  1.0000
  H   H229      1.0  0.38272  0.13244  0.48837  1.0000
  C   C270      1.0  0.16852  0.10037  0.78811  1.0000
  C   C271      1.0  0.44349  0.15284  0.54370  1.0000
  C   C272      1.0  0.23402  0.02211  0.59839  1.0000
  H   H230      1.0  0.28966  0.24815  0.51878  1.0000
  C   C273      1.0  0.07319  0.99875  0.95518  1.0000
  H   H231      1.0  0.42223  0.21848  0.53933  1.0000
  P   P9        1.0  0.47500  0.12570  0.56090  1.0000
  C   C274      1.0  0.02097  0.01327  0.85805  1.0000
  H   H232      1.0  0.11274  0.07604  0.59644  1.0000
  C   C275      1.0  0.26479  0.08193  0.65537  1.0000
  C   C276      1.0  0.44593  0.13677  0.53858  1.0000
  C   C277      1.0  0.01366  0.20777  0.86544  1.0000
  C   C278      1.0  0.29026  0.16797  0.50042  1.0000
  C   C279      1.0  0.10635  0.08322  0.82646  1.0000
  C   C280      1.0  0.17246  0.99435  0.96745  1.0000
  H   H233      1.0  0.28806  0.24915  0.96667  1.0000
  C   C281      1.0  0.43663  0.01112  0.49280  1.0000
  C   C282      1.0  0.30877  0.17971  0.48713  1.0000
  C   C283      1.0  0.11256  0.07475  0.62203  1.0000
  C   C284      1.0  0.35960  0.16219  0.96230  1.0000
  H   H234      1.0  0.21402  0.01969  0.66931  1.0000
  C   C285      1.0  0.07068  0.07919  0.78206  1.0000
  H   H235      1.0  0.46961  0.06160  0.67679  1.0000
  H   H236      1.0  0.20565  0.08557  0.80549  1.0000
  C   C286      1.0  0.17396  0.08375  0.73098  1.0000
  C   C287      1.0  0.14100  0.07339  0.67224  1.0000
  C   C288      1.0  0.06012  0.19600  0.94816  1.0000
  H   H237      1.0  0.20703  0.04754  0.65800  1.0000
  H   H238      1.0  0.40707  0.99495  0.55764  1.0000
  P   P10       1.0  0.29783  0.17327  0.96594  1.0000
  S   S48       1.0  0.33692  0.99803  0.55092  1.0000
  C   C289      1.0  0.20374  0.16678  0.98588  1.0000
  C   C290      1.0  0.22013  0.14568  0.95181  1.0000
  H   H239      1.0  0.08569  0.09230  0.86897  1.0000
  H   H240      1.0  0.26960  0.21276  0.88610  1.0000
  C   C291      1.0  0.27407  0.24004  0.50682  1.0000
  H   H241      1.0  0.03581  0.21663  0.93327  1.0000
  C   C292      1.0  0.46147  0.02024  0.50452  1.0000
  C   C293      1.0  0.48636  0.10769  0.54153  1.0000
  H   H242      1.0  0.45634  0.03030  0.51906  1.0000
  C   C294      1.0  0.29755  0.19444  0.86558  1.0000
  C   C295      1.0  0.18376  0.05257  0.70270  1.0000
  H   H243      1.0  0.12969  0.08195  0.83701  1.0000
  H   H244      1.0  0.17225  0.14903  0.96795  1.0000
  C   C296      1.0  0.48220  0.06603  0.65633  1.0000
  H   H245      1.0  0.20049  0.00872  0.57102  1.0000
  H   H246      1.0  0.08330  0.20059  0.94231  1.0000
  C   C297      1.0  0.42430  0.12958  0.51772  1.0000
  H   H247      1.0  0.28776  0.07633  0.65430  1.0000
  C   C298      1.0  0.19816  0.04288  0.68009  1.0000
  C   C299      1.0  0.17077  0.04591  0.73018  1.0000
  C   C300      1.0  0.08385  0.07247  0.63787  1.0000
  C   C301      1.0  0.15800  0.27737  0.49965  1.0000
  C   C302      1.0  0.08125  0.08901  0.84451  1.0000
  H   H248      1.0  0.41227  0.01415  0.49813  1.0000
  H   H249      1.0  0.21089  0.07098  0.75526  1.0000
  P   P11       1.0  0.17762  0.07291  0.69447  1.0000
  C   C303      1.0  0.05410  0.13453  0.92371  1.0000
  C   C304      1.0  0.37674  0.21853  0.51594  1.0000
  C   C305      1.0  0.03323  0.20510  0.94313  1.0000
  H   H250      1.0  0.46406  0.09760  0.59992  1.0000
  H   H251      1.0  0.13985  0.25002  0.60842  1.0000
  C   C306      1.0  0.23374  0.99406  0.59572  1.0000
  C   C307      1.0  0.02110  0.06683  0.88315  1.0000
  C   C308      1.0  0.00846  0.05403  0.89907  1.0000
  C   C309      1.0  0.49282  0.17862  0.62368  1.0000
  H   H252      1.0  0.33401  0.21618  0.48869  1.0000
  H   H253      1.0  0.36642  0.22691  0.53211  1.0000
  C   C310      1.0  0.19643  0.15333  0.96880  1.0000
  C   C311      1.0  0.48818  0.03006  0.59450  1.0000
  C   C312      1.0  0.32827  0.15881  0.97112  1.0000
  C   C313      1.0  0.25341  0.21414  0.50066  1.0000
  C   C314      1.0  0.27450  0.24151  0.98179  1.0000
  C   C315      1.0  0.02686  0.17502  0.96672  1.0000
  H   H254      1.0  0.40772  0.15388  0.95983  1.0000
  C   C316      1.0  0.48789  0.02407  0.62528  1.0000
  C   C317      1.0  0.38361  0.15122  0.96679  1.0000
  C   C318      1.0  0.14129  0.29130  0.49557  1.0000
  C   C319      1.0  0.23476  0.17255  0.98610  1.0000
  H   H255      1.0  0.39516  0.12838  0.98398  1.0000
  H   H256      1.0  0.00288  0.16331  0.86251  1.0000
  H   H257      1.0  0.00930  0.01070  0.94863  1.0000
  H   H258      1.0  0.19331  0.00848  0.71929  1.0000
  C   C320      1.0  0.00307  0.19916  0.94949  1.0000
  H   H259      1.0  0.00473  0.10336  0.92304  1.0000
  H   H260      1.0  0.00104  0.12799  0.83443  1.0000
  H   H261      1.0  0.07827  0.26530  0.48766  1.0000
  C   C321      1.0  0.11977  0.25047  0.48773  1.0000
  Fe  Fe25      1.0  0.18573  0.40460  0.37779  1.0000
  S   S49       1.0  0.15439  0.40890  0.33563  1.0000
  S   S50       1.0  0.21293  0.38185  0.38300  1.0000
  Fe  Fe26      1.0  0.17607  0.43823  0.40414  1.0000
  S   S51       1.0  0.14491  0.44466  0.36258  1.0000
  S   S52       1.0  0.18052  0.45147  0.45175  1.0000
  Fe  Fe27      1.0  0.12176  0.42137  0.36939  1.0000
  S   S53       1.0  0.06994  0.41569  0.37952  1.0000
  Fe  Fe28      1.0  0.18075  0.43158  0.33210  1.0000
  S   S54       1.0  0.19688  0.43932  0.28251  1.0000
  S   S55       1.0  0.15165  0.41531  0.41193  1.0000
  S   S56       1.0  0.21352  0.42684  0.37325  1.0000
  Fe  Fe29      1.0  0.34345  0.40675  0.09283  1.0000
  S   S57       1.0  0.36943  0.40618  0.13895  1.0000
  S   S58       1.0  0.32853  0.38421  0.06856  1.0000
  Fe  Fe30      1.0  0.35149  0.44215  0.08689  1.0000
  S   S59       1.0  0.37836  0.44355  0.13362  1.0000
  S   S60       1.0  0.34268  0.46509  0.06029  1.0000
  Fe  Fe31      1.0  0.40403  0.42237  0.11619  1.0000
  S   S61       1.0  0.45477  0.41371  0.11781  1.0000
  Fe  Fe32      1.0  0.34091  0.42720  0.15274  1.0000
  S   S62       1.0  0.32510  0.42624  0.20504  1.0000
  S   S63       1.0  0.37956  0.42188  0.06873  1.0000
  S   S64       1.0  0.31242  0.42695  0.10723  1.0000
  C   C322      1.0  0.35172  0.47200  0.02136  1.0000
  C   C323      1.0  0.48989  0.42488  0.11948  1.0000
  C   C324      1.0  0.39817  0.45512  0.41760  1.0000
  H   H262      1.0  0.28051  0.46990  0.00799  1.0000
  H   H263      1.0  0.05943  0.56152  0.46327  1.0000
  H   H264      1.0  0.10518  0.51721  0.46577  1.0000
  H   H265      1.0  0.33850  0.49547  0.03292  1.0000
  H   H266      1.0  0.33971  0.43374  0.45160  1.0000
  C   C325      1.0  0.30767  0.36666  0.34734  1.0000
  H   H267      1.0  0.46465  0.46078  0.07896  1.0000
  C   C326      1.0  0.50055  0.37485  0.11823  1.0000
  H   H268      1.0  0.46918  0.44575  0.13825  1.0000
  H   H269      1.0  0.42065  0.34798  0.00267  1.0000
  C   C327      1.0  0.18505  0.48394  0.45501  1.0000
  C   C328      1.0  0.19660  0.36289  0.27879  1.0000
  H   H270      1.0  0.18569  0.48392  0.42938  1.0000
  C   C329      1.0  0.03454  0.42356  0.36344  1.0000
  C   C330      1.0  0.03444  0.43392  0.33795  1.0000
  H   H271      1.0  0.23739  0.39348  0.44499  1.0000
  H   H272      1.0  0.05666  0.43753  0.32752  1.0000
  C   C331      1.0  0.34660  0.48777  0.01434  1.0000
  C   C332      1.0  0.23222  0.43482  0.26107  1.0000
  C   C333      1.0  0.25855  0.42781  0.27545  1.0000
  C   C334      1.0  0.28654  0.42517  0.25784  1.0000
  C   C335      1.0  0.28859  0.42931  0.22554  1.0000
  C   C336      1.0  0.26212  0.43610  0.21106  1.0000
  C   C337      1.0  0.23425  0.43889  0.22876  1.0000
  H   H273      1.0  0.25753  0.42469  0.30028  1.0000
  H   H274      1.0  0.30684  0.41994  0.26935  1.0000
  H   H275      1.0  0.26332  0.43947  0.18638  1.0000
  H   H276      1.0  0.21416  0.44439  0.21737  1.0000
  C   C338      1.0  0.19301  0.36382  0.38665  1.0000
  C   C339      1.0  0.21073  0.35000  0.38715  1.0000
  C   C340      1.0  0.19568  0.33553  0.39116  1.0000
  C   C341      1.0  0.16277  0.33479  0.39510  1.0000
  C   C342      1.0  0.14509  0.34859  0.39440  1.0000
  C   C343      1.0  0.16006  0.36303  0.38988  1.0000
  H   H277      1.0  0.23626  0.35052  0.38515  1.0000
  C   C344      1.0  0.09682  0.50679  0.45401  1.0000
  H   H278      1.0  0.11966  0.34816  0.39768  1.0000
  H   H279      1.0  0.14615  0.37357  0.38961  1.0000
  C   C345      1.0  0.34449  0.33663  0.11539  1.0000
  C   C346      1.0  0.33578  0.33762  0.08338  1.0000
  C   C347      1.0  0.33100  0.35227  0.06928  1.0000
  C   C348      1.0  0.33508  0.36599  0.08697  1.0000
  C   C349      1.0  0.34379  0.36491  0.11896  1.0000
  C   C350      1.0  0.34841  0.35033  0.13305  1.0000
  H   H280      1.0  0.46432  0.64059  0.99626  1.0000
  H   H281      1.0  0.32413  0.35298  0.04455  1.0000
  H   H282      1.0  0.34647  0.37529  0.13302  1.0000
  H   H283      1.0  0.35492  0.34966  0.15786  1.0000
  H   H284      1.0  0.36711  0.33143  0.22551  1.0000
  C   C351      1.0  0.49087  0.44011  0.13094  1.0000
  C   C352      1.0  0.42062  0.35732  0.20129  1.0000
  C   C353      1.0  0.46349  0.35610  0.02553  1.0000
  C   C354      1.0  0.43816  0.33444  0.11127  1.0000
  H   H285      1.0  0.47637  0.51418  0.08748  1.0000
  C   C355      1.0  0.00367  0.32703  0.36525  1.0000
  C   C356      1.0  0.44064  0.43888  0.01623  1.0000
  C   C357      1.0  0.46496  0.50246  0.00925  1.0000
  H   H286      1.0  0.19144  0.50876  0.45894  1.0000
  H   H287      1.0  0.05050  0.53352  0.45379  1.0000
  H   H288      1.0  0.44067  0.52376  0.12964  1.0000
  H   H289      1.0  0.36666  0.45013  0.00204  1.0000
  C   C358      1.0  0.27729  0.36361  0.33565  1.0000
  H   H290      1.0  0.44836  0.43413  0.06575  1.0000
  H   H291      1.0  0.40682  0.34222  0.07417  1.0000
  H   H292      1.0  0.31296  0.37793  0.35754  1.0000
  H   H293      1.0  0.39568  0.36040  0.20118  1.0000
  H   H294      1.0  0.41710  0.49466  0.99936  1.0000
  H   H295      1.0  0.34229  0.33191  0.33171  1.0000
  C   C359      1.0  0.48506  0.34954  0.20078  1.0000
  H   H296      1.0  0.33086  0.33741  0.26937  1.0000
  H   H297      1.0  0.04324  0.43306  0.43139  1.0000
  C   C360      1.0  0.45843  0.45796  0.05464  1.0000
  H   H298      1.0  0.38845  0.51112  0.13838  1.0000
  H   H299      1.0  0.41330  0.33674  0.17347  1.0000
  C   C361      1.0  0.18203  0.46992  0.47139  1.0000
  C   C362      1.0  0.47476  0.36272  0.21718  1.0000
  H   H300      1.0  0.07215  0.46783  0.41482  1.0000
  C   C363      1.0  0.41253  0.36905  0.02886  1.0000
  H   H301      1.0  0.43297  0.42717  0.01079  1.0000
  C   C364      1.0  0.46328  0.34042  0.18367  1.0000
  H   H302      1.0  0.43780  0.34561  0.12288  1.0000
  C   C365      1.0  0.32392  0.34067  0.33283  1.0000
  C   C366      1.0  0.05247  0.43934  0.45171  1.0000
  C   C367      1.0  0.45104  0.46525  0.99963  1.0000
  C   C368      1.0  0.07870  0.47884  0.42548  1.0000
  C   C369      1.0  0.25061  0.43200  0.45651  1.0000
  H   H303      1.0  0.01605  0.45421  0.40925  1.0000
  C   C370      1.0  0.10638  0.48631  0.41576  1.0000
  C   C371      1.0  0.42106  0.33269  0.08301  1.0000
  H   H304      1.0  0.20792  0.32844  0.15322  1.0000
  C   C372      1.0  0.45376  0.50850  0.09126  1.0000
  H   H305      1.0  0.38736  0.36953  0.02333  1.0000
  C   C373      1.0  0.33100  0.35518  0.34601  1.0000
  H   H306      1.0  0.49175  0.36995  0.22973  1.0000
  C   C374      1.0  0.44169  0.45009  0.99238  1.0000
  C   C375      1.0  0.43358  0.51398  0.11507  1.0000
  H   H307      1.0  0.25913  0.37249  0.33690  1.0000
  H   H308      1.0  0.00531  0.41086  0.39615  1.0000
  H   H309      1.0  0.37186  0.48895  0.10445  1.0000
  C   C376      1.0  0.44919  0.44281  0.04727  1.0000
  C   C377      1.0  0.40414  0.50690  0.11998  1.0000
  C   C378      1.0  0.28596  0.34170  0.19430  1.0000
  C   C379      1.0  0.26019  0.35196  0.19253  1.0000
  C   C380      1.0  0.23217  0.34713  0.17725  1.0000
  P   P12       1.0  0.26260  0.37126  0.20920  1.0000
  C   C381      1.0  0.23679  0.37320  0.24325  1.0000
  C   C382      1.0  0.30223  0.37525  0.22351  1.0000
  C   C383      1.0  0.31238  0.36871  0.25228  1.0000
  C   C384      1.0  0.34237  0.37226  0.26464  1.0000
  C   C385      1.0  0.36230  0.38248  0.24852  1.0000
  C   C386      1.0  0.35249  0.38893  0.21977  1.0000
  C   C387      1.0  0.32261  0.38534  0.20721  1.0000
  C   C388      1.0  0.23918  0.38642  0.26265  1.0000
  C   C389      1.0  0.21997  0.38800  0.28945  1.0000
  C   C390      1.0  0.19874  0.37622  0.29755  1.0000
  C   C391      1.0  0.21552  0.36136  0.25174  1.0000
  C   C392      1.0  0.25282  0.38479  0.17797  1.0000
  C   C393      1.0  0.23515  0.39826  0.18415  1.0000
  C   C394      1.0  0.22905  0.40888  0.15984  1.0000
  C   C395      1.0  0.24057  0.40618  0.12928  1.0000
  C   C396      1.0  0.25806  0.39279  0.12290  1.0000
  C   C397      1.0  0.26415  0.38212  0.14709  1.0000
  H   H310      1.0  0.40687  0.47935  0.06249  1.0000
  H   H311      1.0  0.30825  0.34525  0.20477  1.0000
  H   H312      1.0  0.21228  0.35502  0.17503  1.0000
  H   H313      1.0  0.29678  0.36111  0.26537  1.0000
  H   H314      1.0  0.34987  0.36740  0.28706  1.0000
  H   H315      1.0  0.38505  0.38570  0.25858  1.0000
  H   H316      1.0  0.36749  0.39725  0.20770  1.0000
  H   H317      1.0  0.31530  0.39096  0.18542  1.0000
  H   H318      1.0  0.25580  0.39557  0.25692  1.0000
  H   H319      1.0  0.22150  0.39837  0.30401  1.0000
  H   H320      1.0  0.21350  0.35090  0.23785  1.0000
  H   H321      1.0  0.22637  0.40083  0.20764  1.0000
  H   H322      1.0  0.21589  0.41937  0.16494  1.0000
  H   H323      1.0  0.23638  0.41458  0.11064  1.0000
  H   H324      1.0  0.26745  0.39082  0.09930  1.0000
  H   H325      1.0  0.27834  0.37198  0.14177  1.0000
  C   C398      1.0  0.23738  0.41728  0.46053  1.0000
  C   C399      1.0  0.11540  0.50029  0.43000  1.0000
  H   H326      1.0  0.39802  0.43466  0.44687  1.0000
  C   C400      1.0  0.08528  0.44102  0.45509  1.0000
  C   C401      1.0  0.00538  0.43927  0.32533  1.0000
  H   H327      1.0  0.01323  0.33163  0.41501  1.0000
  H   H328      1.0  0.12123  0.48107  0.39772  1.0000
  H   H329      1.0  0.33287  0.32715  0.06954  1.0000
  C   C402      1.0  0.26574  0.49338  0.47404  1.0000
  C   C403      1.0  0.28333  0.32671  0.18185  1.0000
  C   C404      1.0  0.06850  0.49955  0.46342  1.0000
  H   H330      1.0  0.35457  0.35755  0.35517  1.0000
  C   C405      1.0  0.09778  0.44884  0.48136  1.0000
  C   C406      1.0  0.24844  0.40478  0.44265  1.0000
  C   C407      1.0  0.27269  0.40700  0.42060  1.0000
  C   C408      1.0  0.28591  0.42175  0.41644  1.0000
  C   C409      1.0  0.27519  0.43435  0.43466  1.0000
  H   H331      1.0  0.47680  0.37102  0.11238  1.0000
  P   P13       1.0  0.28925  0.45365  0.42590  1.0000
  C   C410      1.0  0.28056  0.46741  0.45713  1.0000
  C   C411      1.0  0.33181  0.45396  0.42219  1.0000
  C   C412      1.0  0.35056  0.44278  0.43752  1.0000
  H   H332      1.0  0.12318  0.45013  0.48402  1.0000
  C   C413      1.0  0.42631  0.38076  0.04723  1.0000
  C   C414      1.0  0.37964  0.46645  0.40281  1.0000
  C   C415      1.0  0.34658  0.46595  0.40528  1.0000
  C   C416      1.0  0.27261  0.48281  0.44979  1.0000
  C   C417      1.0  0.38364  0.44333  0.43505  1.0000
  H   H333      1.0  0.25855  0.50512  0.46835  1.0000
  C   C418      1.0  0.03185  0.44548  0.47459  1.0000
  H   H334      1.0  0.24069  0.44159  0.46967  1.0000
  C   C419      1.0  0.27010  0.45880  0.38900  1.0000
  C   C420      1.0  0.23909  0.46467  0.38922  1.0000
  C   C421      1.0  0.22343  0.46799  0.36072  1.0000
  C   C422      1.0  0.23845  0.46521  0.33176  1.0000
  C   C423      1.0  0.26906  0.45902  0.33128  1.0000
  C   C424      1.0  0.28480  0.45571  0.35978  1.0000
  H   H335      1.0  0.03947  0.47898  0.45769  1.0000
  C   C425      1.0  0.22962  0.33210  0.16490  1.0000
  H   H336      1.0  0.28010  0.39740  0.40579  1.0000
  H   H337      1.0  0.30363  0.42344  0.39824  1.0000
  H   H338      1.0  0.01412  0.35367  0.33198  1.0000
  H   H339      1.0  0.41188  0.39030  0.05575  1.0000
  H   H340      1.0  0.47765  0.34669  0.01621  1.0000
  H   H341      1.0  0.00542  0.44702  0.30517  1.0000
  H   H342      1.0  0.39090  0.47569  0.38956  1.0000
  H   H343      1.0  0.33252  0.47494  0.39408  1.0000
  H   H344      1.0  0.27137  0.48669  0.42542  1.0000
  C   C426      1.0  0.48813  0.51355  0.00146  1.0000
  C   C427      1.0  0.29320  0.33740  0.32150  1.0000
  C   C428      1.0  0.36255  0.46226  0.99710  1.0000
  H   H345      1.0  0.22675  0.46634  0.41142  1.0000
  H   H346      1.0  0.19930  0.47231  0.36104  1.0000
  H   H347      1.0  0.22602  0.46742  0.30963  1.0000
  H   H348      1.0  0.28018  0.45645  0.30870  1.0000
  H   H349      1.0  0.30807  0.45046  0.35886  1.0000
  P   P14       1.0  0.47065  0.48892  0.04149  1.0000
  C   C429      1.0  0.44474  0.49577  0.07246  1.0000
  C   C430      1.0  0.39480  0.49441  0.10095  1.0000
  C   C431      1.0  0.26995  0.34905  0.32295  1.0000
  H   H350      1.0  0.13735  0.50586  0.42308  1.0000
  C   C432      1.0  0.43079  0.34403  0.18525  1.0000
  C   C433      1.0  0.06009  0.48528  0.44956  1.0000
  H   H351      1.0  0.01721  0.38107  0.31591  1.0000
  H   H352      1.0  0.46892  0.38961  0.06840  1.0000
  H   H353      1.0  0.18403  0.37740  0.31849  1.0000
  C   C434      1.0  0.47711  0.36740  0.04545  1.0000
  C   C435      1.0  0.41491  0.48891  0.07717  1.0000
  H   H354      1.0  0.18026  0.35374  0.28537  1.0000
  H   H355      1.0  0.49826  0.48374  0.10463  1.0000
  C   C436      1.0  0.44265  0.36677  0.21695  1.0000
  H   H356      1.0  0.43487  0.37722  0.22889  1.0000
  H   H357      1.0  0.24604  0.34706  0.31450  1.0000
  H   H358      1.0  0.49142  0.33554  0.06871  1.0000
  C   C437      1.0  0.45914  0.46937  0.03094  1.0000
  H   H359      1.0  0.42380  0.45556  0.41576  1.0000
  H   H360      1.0  0.10101  0.43627  0.43725  1.0000
  C   C438      1.0  0.45861  0.38017  0.05478  1.0000
  C   C439      1.0  0.18806  0.49808  0.47189  1.0000
  C   C440      1.0  0.43125  0.35688  0.01750  1.0000
  H   H361      1.0  0.02490  0.41340  0.47520  1.0000
  C   C441      1.0  0.02212  0.32681  0.39310  1.0000
  C   C442      1.0  0.43603  0.50249  0.99265  1.0000
  C   C443      1.0  0.05408  0.53771  0.47780  1.0000
  C   C444      1.0  0.05886  0.55357  0.48311  1.0000
  C   C445      1.0  0.00547  0.41897  0.37666  1.0000
  C   C446      1.0  0.00150  0.41111  0.46564  1.0000
  H   H362      1.0  0.48632  0.38316  0.16418  1.0000
  H   H363      1.0  0.21764  0.41573  0.47664  1.0000
  H   H364      1.0  0.01106  0.38673  0.45971  1.0000
  H   H365      1.0  0.00397  0.49930  0.44214  1.0000
  P   P15       1.0  0.03091  0.61234  0.59660  1.0000
  S   S65       1.0  0.34572  0.63672  0.84221  1.0000
  Fe  Fe33      1.0  0.34927  0.54828  0.88115  1.0000
  S   S66       1.0  0.37878  0.54946  0.83723  1.0000
  S   S67       1.0  0.32618  0.56984  0.90231  1.0000
  Fe  Fe34      1.0  0.36332  0.51343  0.89149  1.0000
  S   S68       1.0  0.39308  0.51255  0.84693  1.0000
  S   S69       1.0  0.36511  0.49020  0.91869  1.0000
  Fe  Fe35      1.0  0.41384  0.53490  0.86414  1.0000
  S   S70       1.0  0.46494  0.54261  0.86875  1.0000
  Fe  Fe36      1.0  0.35494  0.52709  0.82355  1.0000
  S   S71       1.0  0.34270  0.52368  0.77088  1.0000
  S   S72       1.0  0.38603  0.53534  0.90937  1.0000
  S   S73       1.0  0.32331  0.52635  0.86651  1.0000
  Fe  Fe37      1.0  0.16127  0.55708  0.60531  1.0000
  S   S74       1.0  0.14360  0.54479  0.64874  1.0000
  S   S75       1.0  0.15216  0.58290  0.61223  1.0000
  Fe  Fe38      1.0  0.18039  0.52603  0.57420  1.0000
  S   S76       1.0  0.16540  0.51217  0.61697  1.0000
  S   S77       1.0  0.19561  0.51643  0.52535  1.0000
  Fe  Fe39      1.0  0.12191  0.52740  0.61594  1.0000
  S   S78       1.0  0.07306  0.51616  0.61769  1.0000
  Fe  Fe40      1.0  0.18892  0.53102  0.64669  1.0000
  S   S79       1.0  0.20994  0.53055  0.69736  1.0000
  S   S80       1.0  0.13595  0.54054  0.57243  1.0000
  S   S81       1.0  0.20738  0.54397  0.60400  1.0000
  C   C447      1.0  0.03565  0.54130  0.63444  1.0000
  C   C448      1.0  0.03711  0.52662  0.62032  1.0000
  H   H366      1.0  0.47043  0.56493  0.64649  1.0000
  H   H367      1.0  0.05717  0.54679  0.64294  1.0000
  C   C449      1.0  0.29672  0.52912  0.94589  1.0000
  H   H368      1.0  0.44134  0.52128  0.78310  1.0000
  P   P16       1.0  0.33316  0.59795  0.74602  1.0000
  H   H369      1.0  0.01445  0.58737  0.70058  1.0000
  C   C450      1.0  0.31610  0.62151  0.70298  1.0000
  H   H370      1.0  0.47541  0.51127  0.84345  1.0000
  C   C451      1.0  0.30597  0.52660  0.75054  1.0000
  C   C452      1.0  0.30431  0.52379  0.71761  1.0000
  C   C453      1.0  0.27541  0.52525  0.70074  1.0000
  C   C454      1.0  0.24766  0.52949  0.71667  1.0000
  C   C455      1.0  0.24944  0.53252  0.74953  1.0000
  C   C456      1.0  0.27838  0.53118  0.76633  1.0000
  H   H371      1.0  0.32546  0.52021  0.70512  1.0000
  H   H372      1.0  0.27445  0.52277  0.67558  1.0000
  H   H373      1.0  0.22814  0.53573  0.76217  1.0000
  H   H374      1.0  0.27917  0.53331  0.79163  1.0000
  H   H375      1.0  0.08561  0.60043  0.56190  1.0000
  C   C457      1.0  0.32739  0.61790  0.73354  1.0000
  C   C458      1.0  0.49866  0.53292  0.85407  1.0000
  H   H376      1.0  0.44172  0.54826  0.80276  1.0000
  C   C459      1.0  0.18346  0.48453  0.52169  1.0000
  C   C460      1.0  0.00896  0.51960  0.60949  1.0000
  C   C461      1.0  0.43512  0.60654  0.90305  1.0000
  H   H377      1.0  0.18359  0.48454  0.54736  1.0000
  H   H378      1.0  0.16998  0.64990  0.66340  1.0000
  C   C462      1.0  0.34363  0.61881  0.86256  1.0000
  C   C463      1.0  0.32615  0.61682  0.89043  1.0000
  C   C464      1.0  0.32140  0.60177  0.90276  1.0000
  C   C465      1.0  0.33428  0.58869  0.88750  1.0000
  C   C466      1.0  0.35263  0.59085  0.86033  1.0000
  C   C467      1.0  0.35719  0.60580  0.84794  1.0000
  H   H379      1.0  0.31530  0.62674  0.90173  1.0000
  H   H380      1.0  0.30721  0.60024  0.92386  1.0000
  H   H381      1.0  0.36275  0.58098  0.84845  1.0000
  H   H382      1.0  0.37073  0.60730  0.82646  1.0000
  C   C468      1.0  0.19343  0.62689  0.56679  1.0000
  C   C469      1.0  0.20180  0.61223  0.55477  1.0000
  C   C470      1.0  0.19000  0.59855  0.56874  1.0000
  C   C471      1.0  0.16961  0.59947  0.59479  1.0000
  C   C472      1.0  0.16171  0.61410  0.60709  1.0000
  C   C473      1.0  0.17359  0.62772  0.59324  1.0000
  H   H383      1.0  0.21722  0.61147  0.53436  1.0000
  H   H384      1.0  0.19623  0.58734  0.55905  1.0000
  H   H385      1.0  0.14598  0.61497  0.62722  1.0000
  H   H386      1.0  0.16692  0.63885  0.60274  1.0000
  H   H387      1.0  0.01486  0.48620  0.54329  1.0000
  C   C474      1.0  0.45994  0.52916  0.77567  1.0000
  C   C475      1.0  0.43642  0.59430  0.78247  1.0000
  C   C476      1.0  0.11372  0.63627  0.54406  1.0000
  H   H388      1.0  0.33969  0.65488  0.76056  1.0000
  H   H389      1.0  0.43979  0.64987  0.76150  1.0000
  C   C477      1.0  0.36090  0.48379  0.95884  1.0000
  C   C478      1.0  0.32096  0.64900  0.71445  1.0000
  H   H390      1.0  0.43593  0.47397  0.87246  1.0000
  H   H391      1.0  0.01429  0.61247  0.52943  1.0000
  C   C479      1.0  0.07639  0.59909  0.63710  1.0000
  C   C480      1.0  0.27606  0.47359  0.51331  1.0000
  H   H392      1.0  0.42231  0.56870  0.88400  1.0000
  C   C481      1.0  0.33304  0.64554  0.74450  1.0000
  C   C482      1.0  0.42849  0.60539  0.75966  1.0000
  C   C483      1.0  0.09590  0.63668  0.67886  1.0000
  H   H393      1.0  0.07084  0.57961  0.70703  1.0000
  C   C484      1.0  0.25780  0.64380  0.61899  1.0000
  C   C485      1.0  0.33654  0.63008  0.75388  1.0000
  H   H394      1.0  0.36543  0.57614  0.78930  1.0000
  C   C486      1.0  0.33664  0.56062  0.68572  1.0000
  C   C487      1.0  0.19769  0.65687  0.78120  1.0000
  C   C488      1.0  0.41364  0.58368  0.79263  1.0000
  H   H395      1.0  0.41972  0.57508  0.81029  1.0000
  H   H396      1.0  0.11037  0.58714  0.66644  1.0000
  C   C489      1.0  0.19416  0.57966  0.69650  1.0000
  C   C490      1.0  0.20887  0.57425  0.72408  1.0000
  C   C491      1.0  0.22093  0.58479  0.74632  1.0000
  C   C492      1.0  0.21866  0.60076  0.74083  1.0000
  C   C493      1.0  0.20421  0.60630  0.71293  1.0000
  C   C494      1.0  0.19161  0.59559  0.69105  1.0000
  P   P17       1.0  0.20039  0.62689  0.70528  1.0000
  C   C495      1.0  0.21121  0.63837  0.73972  1.0000
  C   C496      1.0  0.22543  0.63302  0.67282  1.0000
  C   C497      1.0  0.23444  0.62266  0.64870  1.0000
  C   C498      1.0  0.25066  0.62805  0.62200  1.0000
  C   C499      1.0  0.00957  0.60094  0.53843  1.0000
  C   C500      1.0  0.05774  0.53308  0.53438  1.0000
  H   H397      1.0  0.44509  0.65827  0.88573  1.0000
  C   C501      1.0  0.42569  0.63983  0.80597  1.0000
  H   H398      1.0  0.41794  0.63068  0.85257  1.0000
  H   H399      1.0  0.44264  0.48760  0.92355  1.0000
  H   H400      1.0  0.17878  0.45964  0.51788  1.0000
  C   C502      1.0  0.18862  0.64751  0.75552  1.0000
  C   C503      1.0  0.15948  0.63071  0.69479  1.0000
  C   C504      1.0  0.13497  0.62186  0.70821  1.0000
  H   H401      1.0  0.34739  0.50581  0.97869  1.0000
  H   H402      1.0  0.05716  0.52538  0.55457  1.0000
  C   C505      1.0  0.24296  0.63886  0.74991  1.0000
  H   H403      1.0  0.40935  0.51198  0.95373  1.0000
  H   H404      1.0  0.18466  0.57148  0.67927  1.0000
  H   H405      1.0  0.21084  0.56186  0.72814  1.0000
  H   H406      1.0  0.23214  0.58053  0.76777  1.0000
  H   H407      1.0  0.22803  0.60861  0.75854  1.0000
  H   H408      1.0  0.17970  0.59952  0.66968  1.0000
  H   H409      1.0  0.22801  0.61056  0.64952  1.0000
  H   H410      1.0  0.04741  0.64565  0.58473  1.0000
  H   H411      1.0  0.07144  0.63898  0.67265  1.0000
  C   C506      1.0  0.44387  0.65820  0.96638  1.0000
  C   C507      1.0  0.03185  0.59085  0.68310  1.0000
  C   C508      1.0  0.48398  0.52404  0.75549  1.0000
  H   H412      1.0  0.26079  0.63212  0.73772  1.0000
  C   C509      1.0  0.46282  0.48181  0.91292  1.0000
  C   C510      1.0  0.06217  0.54894  0.53966  1.0000
  H   H413      1.0  0.16410  0.64768  0.74782  1.0000
  H   H414      1.0  0.14026  0.61264  0.72481  1.0000
  C   C511      1.0  0.23378  0.64874  0.67010  1.0000
  C   C512      1.0  0.49258  0.48223  0.92774  1.0000
  H   H415      1.0  0.08450  0.61796  0.71052  1.0000
  C   C513      1.0  0.34561  0.57245  0.70674  1.0000
  C   C514      1.0  0.10331  0.62486  0.70025  1.0000
  H   H416      1.0  0.02791  0.64051  0.63589  1.0000
  H   H417      1.0  0.36919  0.57218  0.71695  1.0000
  H   H418      1.0  0.39969  0.58978  0.91671  1.0000
  C   C515      1.0  0.00433  0.63812  0.62689  1.0000
  H   H419      1.0  0.13008  0.61313  0.53437  1.0000
  C   C516      1.0  0.42086  0.59190  0.90279  1.0000
  C   C517      1.0  0.47065  0.63534  0.94665  1.0000
  H   H420      1.0  0.42430  0.61567  0.91693  1.0000
  C   C518      1.0  0.08580  0.59066  0.66385  1.0000
  C   C519      1.0  0.06354  0.58645  0.68673  1.0000
  C   C520      1.0  0.11156  0.62012  0.54501  1.0000
  H   H421      1.0  0.39181  0.61492  0.73028  1.0000
  C   C521      1.0  0.06314  0.62196  0.57610  1.0000
  H   H422      1.0  0.02578  0.64787  0.50980  1.0000
  C   C522      1.0  0.05406  0.52731  0.50341  1.0000
  C   C523      1.0  0.02234  0.59927  0.65637  1.0000
  C   C524      1.0  0.26757  0.47974  0.96268  1.0000
  C   C525      1.0  0.46242  0.60933  0.88483  1.0000
  C   C526      1.0  0.48926  0.57055  0.65985  1.0000
  H   H423      1.0  0.35318  0.55144  0.67994  1.0000
  C   C527      1.0  0.12008  0.64563  0.66563  1.0000
  C   C528      1.0  0.06304  0.55918  0.51404  1.0000
  H   H424      1.0  0.02958  0.45782  0.51945  1.0000
  C   C529      1.0  0.32381  0.58403  0.71524  1.0000
  C   C530      1.0  0.46776  0.63565  0.84466  1.0000
  H   H425      1.0  0.43480  0.44710  0.96833  1.0000
  C   C531      1.0  0.09040  0.64530  0.55850  1.0000
  H   H426      1.0  0.45200  0.53036  0.93779  1.0000
  C   C532      1.0  0.46009  0.54444  0.78669  1.0000
  C   C533      1.0  0.31289  0.63699  0.69359  1.0000
  H   H427      1.0  0.46009  0.59398  0.79246  1.0000
  C   C534      1.0  0.00604  0.54850  0.63912  1.0000
  C   C535      1.0  0.25191  0.64813  0.77574  1.0000
  H   H428      1.0  0.40072  0.63938  0.79974  1.0000
  H   H429      1.0  0.06690  0.57144  0.51826  1.0000
  H   H430      1.0  0.08748  0.46093  0.52466  1.0000
  C   C536      1.0  0.43341  0.58004  0.88406  1.0000
  H   H431      1.0  0.13386  0.64178  0.53269  1.0000
  C   C537      1.0  0.43146  0.51243  0.96690  1.0000
  H   H432      1.0  0.06526  0.55322  0.56373  1.0000
  C   C538      1.0  0.44773  0.64564  0.78440  1.0000
  H   H433      1.0  0.44620  0.61358  0.75162  1.0000
  C   C539      1.0  0.30758  0.59302  0.77902  1.0000
  C   C540      1.0  0.29438  0.60447  0.79875  1.0000
  C   C541      1.0  0.27687  0.60027  0.82552  1.0000
  C   C542      1.0  0.27224  0.58464  0.83283  1.0000
  C   C543      1.0  0.28447  0.57317  0.81293  1.0000
  C   C544      1.0  0.30177  0.57731  0.78600  1.0000
  C   C545      1.0  0.29300  0.58354  0.70246  1.0000
  C   C546      1.0  0.28419  0.57178  0.68128  1.0000
  C   C547      1.0  0.30598  0.56030  0.67299  1.0000
  C   C548      1.0  0.04450  0.60333  0.63293  1.0000
  H   H434      1.0  0.31013  0.61252  0.68608  1.0000
  H   H435      1.0  0.29825  0.61664  0.79450  1.0000
  H   H436      1.0  0.26807  0.60917  0.84140  1.0000
  H   H437      1.0  0.25993  0.58142  0.85437  1.0000
  H   H438      1.0  0.28127  0.56104  0.81882  1.0000
  H   H439      1.0  0.31144  0.56815  0.77126  1.0000
  H   H440      1.0  0.27559  0.59211  0.70929  1.0000
  H   H441      1.0  0.26023  0.57132  0.67182  1.0000
  H   H442      1.0  0.29883  0.55098  0.65720  1.0000
  C   C549      1.0  0.16178  0.47625  0.88353  1.0000
  C   C550      1.0  0.14301  0.48343  0.90654  1.0000
  C   C551      1.0  0.15694  0.49336  0.92886  1.0000
  C   C552      1.0  0.18958  0.49627  0.92797  1.0000
  C   C553      1.0  0.20841  0.48948  0.90430  1.0000
  C   C554      1.0  0.19444  0.47912  0.88261  1.0000
  P   P18       1.0  0.25072  0.49251  0.90424  1.0000
  C   C555      1.0  0.26634  0.49207  0.86439  1.0000
  C   C556      1.0  0.26043  0.51166  0.91857  1.0000
  C   C557      1.0  0.24127  0.52437  0.91048  1.0000
  C   C558      1.0  0.24958  0.53931  0.92054  1.0000
  C   C559      1.0  0.27718  0.54166  0.93840  1.0000
  C   C560      1.0  0.01612  0.59734  0.57029  1.0000
  C   C561      1.0  0.28853  0.51419  0.93576  1.0000
  C   C562      1.0  0.29790  0.48765  0.85905  1.0000
  C   C563      1.0  0.31075  0.48837  0.82853  1.0000
  C   C564      1.0  0.29221  0.49356  0.80314  1.0000
  C   C565      1.0  0.26087  0.49814  0.80828  1.0000
  C   C566      1.0  0.24807  0.49760  0.83884  1.0000
  C   C567      1.0  0.26689  0.47760  0.92960  1.0000
  C   C568      1.0  0.27678  0.46336  0.91683  1.0000
  C   C569      1.0  0.28843  0.45171  0.93677  1.0000
  C   C570      1.0  0.46506  0.64010  0.91526  1.0000
  H   H443      1.0  0.49447  0.58926  0.62644  1.0000
  C   C571      1.0  0.49762  0.51755  0.84335  1.0000
  H   H444      1.0  0.15107  0.46837  0.86651  1.0000
  H   H445      1.0  0.11772  0.48116  0.90730  1.0000
  H   H446      1.0  0.27705  0.47003  0.53793  1.0000
  H   H447      1.0  0.20012  0.50372  0.94587  1.0000
  H   H448      1.0  0.20878  0.47321  0.86506  1.0000
  H   H449      1.0  0.22024  0.52279  0.89599  1.0000
  H   H450      1.0  0.23501  0.54915  0.91401  1.0000
  H   H451      1.0  0.28392  0.55328  0.94570  1.0000
  C   C572      1.0  0.15172  0.64273  0.67372  1.0000
  C   C573      1.0  0.26702  0.48872  0.50574  1.0000
  H   H452      1.0  0.31289  0.48403  0.87856  1.0000
  H   H453      1.0  0.33536  0.48528  0.82469  1.0000
  H   H454      1.0  0.30240  0.49442  0.77959  1.0000
  H   H455      1.0  0.24681  0.50248  0.78860  1.0000
  H   H456      1.0  0.22415  0.50177  0.84252  1.0000
  H   H457      1.0  0.27556  0.46123  0.89153  1.0000
  H   H458      1.0  0.29667  0.44086  0.92680  1.0000
  C   C574      1.0  0.04470  0.45318  0.50113  1.0000
  H   H459      1.0  0.48404  0.56632  0.78689  1.0000
  C   C575      1.0  0.18748  0.49850  0.50535  1.0000
  H   H460      1.0  0.30424  0.63971  0.67003  1.0000
  C   C576      1.0  0.45537  0.52276  0.95803  1.0000
  C   C577      1.0  0.06041  0.49611  0.53060  1.0000
  C   C578      1.0  0.03978  0.48706  0.54903  1.0000
  C   C579      1.0  0.05131  0.47902  0.57546  1.0000
  C   C580      1.0  0.08350  0.47981  0.58343  1.0000
  C   C581      1.0  0.10424  0.48853  0.56482  1.0000
  C   C582      1.0  0.09279  0.49666  0.53853  1.0000
  S   S82       1.0  0.20786  0.64386  0.54802  1.0000
  H   H461      1.0  0.31868  0.53104  0.95878  1.0000
  H   H462      1.0  0.34655  0.62762  0.77703  1.0000
  C   C583      1.0  0.18100  0.47037  0.50484  1.0000
  C   C584      1.0  0.45899  0.47410  0.88400  1.0000
  C   C585      1.0  0.38266  0.58440  0.78075  1.0000
  H   H463      1.0  0.09408  0.60191  0.61958  1.0000
  C   C586      1.0  0.22931  0.65716  0.79134  1.0000
  C   C587      1.0  0.37399  0.59602  0.75909  1.0000
  C   C588      1.0  0.07754  0.45491  0.50435  1.0000
  H   H464      1.0  0.09232  0.47398  0.60442  1.0000
  H   H465      1.0  0.12908  0.48939  0.57129  1.0000
  H   H466      1.0  0.10921  0.50361  0.52480  1.0000
  C   C589      1.0  0.48347  0.52350  0.97565  1.0000
  H   H467      1.0  0.37434  0.46033  0.94736  1.0000
  C   C590      1.0  0.39748  0.60617  0.74777  1.0000
  H   H468      1.0  0.25621  0.62016  0.60275  1.0000
  C   C591      1.0  0.06507  0.63823  0.57423  1.0000
  H   H469      1.0  0.26058  0.49683  0.52437  1.0000
  C   C592      1.0  0.43557  0.63494  0.83603  1.0000
  H   H470      1.0  0.03524  0.47240  0.59015  1.0000
  C   C593      1.0  0.48490  0.46674  0.86987  1.0000
  H   H471      1.0  0.27649  0.64853  0.78343  1.0000
  H   H472      1.0  0.26881  0.64807  0.59749  1.0000
  H   H473      1.0  0.46972  0.57369  0.85064  1.0000
  C   C594      1.0  0.35140  0.49366  0.98344  1.0000
  C   C595      1.0  0.48431  0.55460  0.77778  1.0000
  C   C596      1.0  0.08641  0.61299  0.56088  1.0000
  H   H474      1.0  0.48195  0.46091  0.84725  1.0000
  C   C597      1.0  0.36686  0.46811  0.96606  1.0000
  C   C598      1.0  0.47427  0.59748  0.86535  1.0000
  H   H475      1.0  0.48398  0.51214  0.74718  1.0000
  C   C599      1.0  0.46006  0.58286  0.86528  1.0000
  H   H476      1.0  0.48900  0.55345  0.69653  1.0000
  H   H477      1.0  0.25937  0.49046  0.97321  1.0000
  C   C600      1.0  0.47986  0.64622  0.79261  1.0000
  C   C601      1.0  0.00374  0.50599  0.49192  1.0000
  H   H478      1.0  0.11435  0.65486  0.64908  1.0000
  H   H479      1.0  0.30453  0.50469  0.94054  1.0000
  C   C602      1.0  0.27915  0.46806  0.98253  1.0000
  H   H480      1.0  0.21051  0.65528  0.89069  1.0000
  H   H481      1.0  0.14248  0.49872  0.94705  1.0000
  C   C603      1.0  0.45995  0.64433  0.97210  1.0000
  H   H482      1.0  0.00998  0.50827  0.59850  1.0000
  P   P19       1.0  0.47986  0.62841  0.88307  1.0000
  H   H483      1.0  0.49533  0.48852  0.94985  1.0000
  C   C604      1.0  0.28968  0.45407  0.96959  1.0000
  H   H484      1.0  0.48335  0.62467  0.95138  1.0000
  C   C605      1.0  0.44909  0.65410  0.90965  1.0000
  H   H485      1.0  0.45178  0.47360  0.98067  1.0000
  H   H486      1.0  0.00495  0.55956  0.65120  1.0000
  C   C606      1.0  0.00906  0.58241  0.58160  1.0000
  H   H487      1.0  0.01348  0.57923  0.60603  1.0000
  P   P20       1.0  0.04635  0.50697  0.49680  1.0000
  H   H488      1.0  0.09224  0.65785  0.55788  1.0000
  C   C607      1.0  0.24966  0.65411  0.64321  1.0000
  H   H489      1.0  0.22672  0.65705  0.68804  1.0000
  H   H490      1.0  0.29047  0.45139  0.49543  1.0000
  C   C608      1.0  0.48993  0.64114  0.82253  1.0000
  C   C609      1.0  0.28329  0.46304  0.48914  1.0000
  H   H491      1.0  0.49452  0.59954  0.85026  1.0000
  H   H492      1.0  0.49695  0.65086  0.77600  1.0000
  C   C610      1.0  0.49994  0.56406  0.68834  1.0000
  H   H493      1.0  0.29914  0.44516  0.98507  1.0000
  Fe  Fe41      1.0  0.20833  0.77274  0.11291  1.0000
  S   S83       1.0  0.22066  0.77826  0.06181  1.0000
  S   S84       1.0  0.25172  0.77286  0.14639  1.0000
  Fe  Fe42      1.0  0.13681  0.76852  0.09629  1.0000
  S   S85       1.0  0.14529  0.77343  0.04479  1.0000
  S   S86       1.0  0.08766  0.76500  0.11920  1.0000
  Fe  Fe43      1.0  0.18898  0.75821  0.04823  1.0000
  S   S87       1.0  0.19754  0.73838  0.01180  1.0000
  Fe  Fe44      1.0  0.17646  0.79289  0.06268  1.0000
  S   S88       1.0  0.16764  0.81667  0.04121  1.0000
  S   S89       1.0  0.17853  0.75192  0.09938  1.0000
  S   S90       1.0  0.16616  0.78872  0.11411  1.0000
  Fe  Fe45      1.0  0.35081  0.80417  0.37311  1.0000
  S   S91       1.0  0.35985  0.79627  0.32309  1.0000
  S   S92       1.0  0.36556  0.82879  0.38586  1.0000
  Fe  Fe46      1.0  0.33477  0.77086  0.39638  1.0000
  S   S93       1.0  0.34348  0.76116  0.34723  1.0000
  S   S94       1.0  0.32681  0.75452  0.43948  1.0000
  Fe  Fe47      1.0  0.38711  0.77664  0.34550  1.0000
  S   S95       1.0  0.43598  0.77016  0.32478  1.0000
  Fe  Fe48      1.0  0.31584  0.78171  0.32909  1.0000
  S   S96       1.0  0.27180  0.78047  0.29669  1.0000
  S   S97       1.0  0.38003  0.78512  0.39506  1.0000
  S   S98       1.0  0.30528  0.79086  0.37849  1.0000
  Fe  Fe49      1.0  0.39682  0.92545  0.36293  1.0000
  S   S99       1.0  0.36591  0.92800  0.40598  1.0000
  S   S100      1.0  0.44633  0.91693  0.37596  1.0000
  Fe  Fe50      1.0  0.34157  0.93396  0.31719  1.0000
  S   S101      1.0  0.30758  0.93760  0.35764  1.0000
  S   S102      1.0  0.33066  0.93390  0.26353  1.0000
  Fe  Fe51      1.0  0.34810  0.94980  0.38311  1.0000
  S   S103      1.0  0.34775  0.97370  0.40747  1.0000
  Fe  Fe52      1.0  0.32874  0.91553  0.37730  1.0000
  S   S104      1.0  0.29934  0.89496  0.39339  1.0000
  S   S105      1.0  0.38093  0.94781  0.34085  1.0000
  S   S106      1.0  0.36070  0.91142  0.33617  1.0000
  Fe  Fe53      1.0  0.18995  0.90271  0.09597  1.0000
  S   S107      1.0  0.15709  0.90733  0.13654  1.0000
  S   S108      1.0  0.21964  0.88070  0.09587  1.0000
  Fe  Fe54      1.0  0.17950  0.93560  0.06767  1.0000
  S   S109      1.0  0.14679  0.94254  0.10754  1.0000
  S   S110      1.0  0.19275  0.94870  0.02188  1.0000
  Fe  Fe55      1.0  0.18204  0.93035  0.14026  1.0000
  S   S111      1.0  0.19714  0.93835  0.19014  1.0000
  Fe  Fe56      1.0  0.12514  0.91883  0.10080  1.0000
  S   S112      1.0  0.07378  0.91125  0.09414  1.0000
  S   S113      1.0  0.21617  0.92529  0.10098  1.0000
  S   S114      1.0  0.15644  0.91231  0.05964  1.0000
  C   C611      1.0  0.29285  0.93414  0.24410  1.0000
  C   C612      1.0  0.29076  0.93001  0.21175  1.0000
  C   C613      1.0  0.26161  0.93081  0.19506  1.0000
  C   C614      1.0  0.23417  0.93599  0.21040  1.0000
  C   C615      1.0  0.23621  0.93995  0.24280  1.0000
  C   C616      1.0  0.26523  0.93895  0.25959  1.0000
  H   H494      1.0  0.31191  0.92632  0.19943  1.0000
  H   H495      1.0  0.26056  0.92784  0.17011  1.0000
  H   H496      1.0  0.21523  0.94401  0.25495  1.0000
  H   H497      1.0  0.26637  0.94235  0.28430  1.0000
  C   C617      1.0  0.03834  0.93584  0.11846  1.0000
  C   C618      1.0  0.03840  0.92105  0.10467  1.0000
  C   C619      1.0  0.48263  0.92883  0.32680  1.0000
  H   H498      1.0  0.06060  0.94166  0.12322  1.0000
  C   C620      1.0  0.48185  0.77720  0.37121  1.0000
  H   H499      1.0  0.26964  0.72756  0.05591  1.0000
  H   H500      1.0  0.34235  0.72947  0.39693  1.0000
  H   H501      1.0  0.20554  0.69670  0.33831  1.0000
  H   H502      1.0  0.30668  0.95660  0.98864  1.0000
  H   H503      1.0  0.46066  0.93050  0.31389  1.0000
  C   C621      1.0  0.34624  0.97995  0.44784  1.0000
  H   H504      1.0  0.06048  0.76829  0.05476  1.0000
  C   C622      1.0  0.18388  0.96636  0.00158  1.0000
  C   C623      1.0  0.34558  0.84686  0.38487  1.0000
  C   C624      1.0  0.36407  0.86040  0.38489  1.0000
  C   C625      1.0  0.34998  0.87512  0.38619  1.0000
  C   C626      1.0  0.31705  0.87651  0.38831  1.0000
  C   C627      1.0  0.29831  0.86299  0.38792  1.0000
  C   C628      1.0  0.31250  0.84818  0.38588  1.0000
  H   H505      1.0  0.38952  0.85952  0.38431  1.0000
  H   H506      1.0  0.36469  0.88541  0.38665  1.0000
  H   H507      1.0  0.27280  0.86398  0.38965  1.0000
  H   H508      1.0  0.29796  0.83784  0.38618  1.0000
  C   C629      1.0  0.25650  0.77541  0.18820  1.0000
  C   C630      1.0  0.23078  0.77724  0.20878  1.0000
  C   C631      1.0  0.23598  0.77882  0.24180  1.0000
  C   C632      1.0  0.26686  0.77870  0.25473  1.0000
  C   C633      1.0  0.29259  0.77709  0.23411  1.0000
  C   C634      1.0  0.28740  0.77544  0.20112  1.0000
  H   H509      1.0  0.20689  0.77727  0.19931  1.0000
  H   H510      1.0  0.21586  0.77998  0.25747  1.0000
  H   H511      1.0  0.31647  0.77695  0.24359  1.0000
  H   H512      1.0  0.30749  0.77403  0.18549  1.0000
  C   C635      1.0  0.18131  0.83419  0.05841  1.0000
  C   C636      1.0  0.20925  0.83479  0.07638  1.0000
  C   C637      1.0  0.22059  0.84912  0.08775  1.0000
  C   C638      1.0  0.20365  0.86288  0.08225  1.0000
  C   C639      1.0  0.17520  0.86221  0.06508  1.0000
  C   C640      1.0  0.16437  0.84795  0.05279  1.0000
  H   H513      1.0  0.22258  0.82429  0.08069  1.0000
  H   H514      1.0  0.24281  0.84957  0.10047  1.0000
  H   H515      1.0  0.16195  0.87273  0.06064  1.0000
  H   H516      1.0  0.14276  0.84756  0.03891  1.0000
  H   H517      1.0  0.44488  0.80874  0.39228  1.0000
  H   H518      1.0  0.00942  0.95434  0.13746  1.0000
  H   H519      1.0  0.08587  0.88425  0.05318  1.0000
  C   C641      1.0  0.45111  0.84715  0.37513  1.0000
  C   C642      1.0  0.36128  0.70307  0.12910  1.0000
  H   H520      1.0  0.44434  0.84692  0.28071  1.0000
  C   C643      1.0  0.29427  0.74557  0.46029  1.0000
  H   H521      1.0  0.23108  0.74492  0.24405  1.0000
  C   C644      1.0  0.20723  0.69748  0.36390  1.0000
  C   C645      1.0  0.04829  0.84297  0.05398  1.0000
  H   H522      1.0  0.29688  0.78605  0.03667  1.0000
  H   H523      1.0  0.09326  0.86660  0.00724  1.0000
  C   C646      1.0  0.26174  0.90512  0.03816  1.0000
  H   H524      1.0  0.46229  0.77982  0.38685  1.0000
  H   H525      1.0  0.08986  0.79741  0.14171  1.0000
  H   H526      1.0  0.19302  0.67565  0.42979  1.0000
  C   C647      1.0  0.04815  0.76771  0.10423  1.0000
  C   C648      1.0  0.04130  0.76869  0.07173  1.0000
  C   C649      1.0  0.03315  0.79957  0.01032  1.0000
  H   H527      1.0  0.16981  0.71950  0.32985  1.0000
  C   C650      1.0  0.19758  0.68484  0.38234  1.0000
  C   C651      1.0  0.42587  0.95715  0.44615  1.0000
  H   H528      1.0  0.28592  0.89984  0.08170  1.0000
  H   H529      1.0  0.38897  0.71258  0.16763  1.0000
  C   C652      1.0  0.38855  0.78388  0.47378  1.0000
  C   C653      1.0  0.06812  0.98422  0.00409  1.0000
  C   C654      1.0  0.28031  0.96325  0.15159  1.0000
  H   H530      1.0  0.49800  0.84832  0.45467  1.0000
  H   H531      1.0  0.47724  0.80687  0.34377  1.0000
  C   C655      1.0  0.43180  0.96031  0.41417  1.0000
  C   C656      1.0  0.32625  0.74335  0.04174  1.0000
  C   C657      1.0  0.33017  0.75186  0.01364  1.0000
  C   C658      1.0  0.42262  0.71493  0.99825  1.0000
  C   C659      1.0  0.30550  0.77423  0.03818  1.0000
  C   C660      1.0  0.21358  0.69849  0.43006  1.0000
  H   H532      1.0  0.44405  0.85838  0.38414  1.0000
  C   C661      1.0  0.35454  0.71969  0.08304  1.0000
  C   C662      1.0  0.28120  0.68627  0.02136  1.0000
  C   C663      1.0  0.00946  0.76967  0.06108  1.0000
  H   H533      1.0  0.22778  0.96082  0.07595  1.0000
  P   P21       1.0  0.33826  0.72326  0.04399  1.0000
  H   H534      1.0  0.36346  0.78536  0.47860  1.0000
  C   C664      1.0  0.46729  0.72886  0.41123  1.0000
  H   H535      1.0  0.29456  0.96327  0.17309  1.0000
  H   H536      1.0  0.42385  0.99063  0.46640  1.0000
  C   C665      1.0  0.34000  0.96980  0.47295  1.0000
  C   C666      1.0  0.07515  0.87281  0.05320  1.0000
  C   C667      1.0  0.18385  0.72445  0.31094  1.0000
  H   H537      1.0  0.08783  0.91508  0.02658  1.0000
  H   H538      1.0  0.25408  0.98435  0.05570  1.0000
  C   C668      1.0  0.26212  0.98186  0.03194  1.0000
  H   H539      1.0  0.25265  0.89343  0.03517  1.0000
  C   C669      1.0  0.49069  0.81357  0.27656  1.0000
  H   H540      1.0  0.02947  0.84984  0.09976  1.0000
  H   H541      1.0  0.28515  0.73543  0.39779  1.0000
  C   C670      1.0  0.45205  0.81920  0.38003  1.0000
  C   C671      1.0  0.25346  0.91669  0.01652  1.0000
  H   H542      1.0  0.37797  0.74201  0.08635  1.0000
  C   C672      1.0  0.32728  0.72567  0.37750  1.0000
  C   C673      1.0  0.32069  0.71250  0.32716  1.0000
  C   C674      1.0  0.23844  0.75894  0.36484  1.0000
  C   C675      1.0  0.37314  0.73109  0.09807  1.0000
  C   C676      1.0  0.48502  0.87258  0.23519  1.0000
  C   C677      1.0  0.20409  0.77416  0.39875  1.0000
  H   H543      1.0  0.44205  0.84930  0.47149  1.0000
  H   H544      1.0  0.42059  0.71631  0.45634  1.0000
  H   H545      1.0  0.20325  0.96572  0.12817  1.0000
  C   C678      1.0  0.47469  0.78705  0.24123  1.0000
  C   C679      1.0  0.40024  0.71841  0.02173  1.0000
  C   C680      1.0  0.31975  0.76723  0.01189  1.0000
  C   C681      1.0  0.45201  0.79416  0.26046  1.0000
  C   C682      1.0  0.45984  0.80744  0.27788  1.0000
  H   H546      1.0  0.39225  0.98455  0.07726  1.0000
  H   H547      1.0  0.00907  0.90218  0.08812  1.0000
  C   C683      1.0  0.37954  0.71452  0.14400  1.0000
  C   C684      1.0  0.38217  0.97366  0.06922  1.0000
  H   H548      1.0  0.40445  0.93820  0.04174  1.0000
  C   C685      1.0  0.47762  0.83161  0.33523  1.0000
  C   C686      1.0  0.44561  0.73988  0.42275  1.0000
  H   H549      1.0  0.47490  0.85665  0.33476  1.0000
  H   H550      1.0  0.30821  0.74416  0.08992  1.0000
  H   H551      1.0  0.00458  0.76998  0.03589  1.0000
  C   C687      1.0  0.48196  0.92291  0.35769  1.0000
  H   H552      1.0  0.06356  0.97355  0.01676  1.0000
  C   C688      1.0  0.29173  0.96644  0.99419  1.0000
  C   C689      1.0  0.16977  0.72688  0.28120  1.0000
  H   H553      1.0  0.42855  0.78910  0.26267  1.0000
  H   H554      1.0  0.44188  0.81265  0.29281  1.0000
  C   C690      1.0  0.49643  0.87027  0.42962  1.0000
  C   C691      1.0  0.35608  0.94560  0.04816  1.0000
  C   C692      1.0  0.07928  0.86286  0.02735  1.0000
  H   H555      1.0  0.18800  0.67456  0.37102  1.0000
  C   C693      1.0  0.43971  0.79472  0.46034  1.0000
  H   H556      1.0  0.39956  0.73742  0.14005  1.0000
  H   H557      1.0  0.02755  0.76772  0.15097  1.0000
  C   C694      1.0  0.38551  0.72851  0.12846  1.0000
  C   C695      1.0  0.06432  0.80877  0.10404  1.0000
  H   H558      1.0  0.14533  0.72349  0.27710  1.0000
  H   H559      1.0  0.43552  0.86962  0.24627  1.0000
  P   P22       1.0  0.03135  0.82367  0.05509  1.0000
  C   C696      1.0  0.03645  0.81658  0.09516  1.0000
  C   C697      1.0  0.05076  0.81063  0.02752  1.0000
  C   C698      1.0  0.10443  0.93707  0.00913  1.0000
  C   C699      1.0  0.01299  0.81930  0.11814  1.0000
  H   H560      1.0  0.50024  0.94565  0.46793  1.0000
  H   H561      1.0  0.48242  0.71542  0.37086  1.0000
  C   C700      1.0  0.08383  0.81114  0.02364  1.0000
  H   H562      1.0  0.46564  0.91895  0.47231  1.0000
  H   H563      1.0  0.49445  0.87879  0.36379  1.0000
  C   C701      1.0  0.22864  0.77332  0.37664  1.0000
  C   C702      1.0  0.28089  0.96878  0.02532  1.0000
  C   C703      1.0  0.19770  0.74629  0.39587  1.0000
  C   C704      1.0  0.30063  0.73369  0.48243  1.0000
  C   C705      1.0  0.06559  0.84807  0.02751  1.0000
  H   H564      1.0  0.15689  0.97691  0.03905  1.0000
  H   H565      1.0  0.43943  0.72509  0.33568  1.0000
  H   H566      1.0  0.40837  0.87185  0.45731  1.0000
  C   C706      1.0  0.40207  0.96155  0.05988  1.0000
  H   H567      1.0  0.23988  0.78382  0.36830  1.0000
  C   C707      1.0  0.18866  0.76064  0.40840  1.0000
  P   P23       1.0  0.44968  0.74736  0.46264  1.0000
  H   H568      1.0  0.40843  0.72068  0.04564  1.0000
  H   H569      1.0  0.19692  0.78530  0.40822  1.0000
  C   C708      1.0  0.30763  0.69587  0.02574  1.0000
  H   H570      1.0  0.09817  0.81933  0.03697  1.0000
  H   H571      1.0  0.49710  0.76516  0.29611  1.0000
  H   H572      1.0  0.44765  0.71455  0.00417  1.0000
  H   H573      1.0  0.36543  0.71499  0.35168  1.0000
  C   C709      1.0  0.34923  0.97176  0.06811  1.0000
  H   H574      1.0  0.48740  0.89327  0.41122  1.0000
  C   C710      1.0  0.26257  0.74988  0.45551  1.0000
  C   C711      1.0  0.24726  0.70631  0.04265  1.0000
  C   C712      1.0  0.49141  0.74804  0.47296  1.0000
  H   H575      1.0  0.18441  0.82207  0.14691  1.0000
  H   H576      1.0  0.23650  0.96708  0.17661  1.0000
  C   C713      1.0  0.46987  0.81817  0.35222  1.0000
  H   H577      1.0  0.47931  0.98315  0.45564  1.0000
  C   C714      1.0  0.28814  0.71568  0.32779  1.0000
  H   H578      1.0  0.40320  0.75300  0.41158  1.0000
  C   C715      1.0  0.21938  0.71087  0.37857  1.0000
  H   H579      1.0  0.34802  0.91646  0.47156  1.0000
  C   C716      1.0  0.34883  0.70561  0.09872  1.0000
  H   H580      1.0  0.41278  0.96443  0.39899  1.0000
  H   H581      1.0  0.34650  0.93476  0.03940  1.0000
  C   C717      1.0  0.20052  0.68540  0.41542  1.0000
  H   H582      1.0  0.16953  0.76127  0.42547  1.0000
  H   H583      1.0  0.33068  0.70604  0.30753  1.0000
  H   H584      1.0  0.38563  0.75912  0.47552  1.0000
  C   C718      1.0  0.43351  0.76676  0.46493  1.0000
  C   C719      1.0  0.36775  0.71884  0.01415  1.0000
  H   H585      1.0  0.33401  0.98128  0.07521  1.0000
  H   H586      1.0  0.25586  0.74103  0.29639  1.0000
  C   C720      1.0  0.04486  0.80618  0.15778  1.0000
  C   C721      1.0  0.18693  0.73404  0.25695  1.0000
  C   C722      1.0  0.27354  0.71602  0.04668  1.0000
  C   C723      1.0  0.02265  0.76832  0.12578  1.0000
  C   C724      1.0  0.45017  0.95140  0.46570  1.0000
  H   H587      1.0  0.29037  0.77124  0.08661  1.0000
  C   C725      1.0  0.06852  0.80369  0.13525  1.0000
  C   C726      1.0  0.49536  0.84684  0.27456  1.0000
  H   H588      1.0  0.08285  0.80639  0.08706  1.0000
  H   H589      1.0  0.23043  0.68419  0.02598  1.0000
  C   C727      1.0  0.29088  0.92403  0.06938  1.0000
  H   H590      1.0  0.06868  0.84068  0.00698  1.0000
  H   H591      1.0  0.12617  0.93688  0.02290  1.0000
  C   C728      1.0  0.28063  0.90876  0.06445  1.0000
  C   C729      1.0  0.47774  0.88343  0.42373  1.0000
  H   H592      1.0  0.32223  0.77365  0.98996  1.0000
  C   C730      1.0  0.46193  0.95777  0.40152  1.0000
  C   C731      1.0  0.21806  0.73893  0.26252  1.0000
  C   C732      1.0  0.27211  0.90436  0.31130  1.0000
  C   C733      1.0  0.24909  0.89574  0.32716  1.0000
  C   C734      1.0  0.24726  0.87973  0.32250  1.0000
  C   C735      1.0  0.26852  0.87234  0.30205  1.0000
  C   C736      1.0  0.29296  0.88084  0.28746  1.0000
  C   C737      1.0  0.29412  0.89694  0.29182  1.0000
  P   P24       1.0  0.32250  0.87158  0.26284  1.0000
  C   C738      1.0  0.31785  0.87763  0.22200  1.0000
  C   C739      1.0  0.36107  0.87836  0.27643  1.0000
  C   C740      1.0  0.37782  0.87070  0.30071  1.0000
  C   C741      1.0  0.40642  0.87677  0.31232  1.0000
  C   C742      1.0  0.41885  0.89043  0.29964  1.0000
  C   C743      1.0  0.40272  0.89800  0.27516  1.0000
  C   C744      1.0  0.37386  0.89211  0.26382  1.0000
  C   C745      1.0  0.34190  0.87434  0.19999  1.0000
  C   C746      1.0  0.33908  0.87926  0.16848  1.0000
  C   C747      1.0  0.31229  0.88754  0.15875  1.0000
  C   C748      1.0  0.28842  0.89096  0.18053  1.0000
  C   C749      1.0  0.29106  0.88600  0.21204  1.0000
  C   C750      1.0  0.31904  0.85068  0.26592  1.0000
  C   C751      1.0  0.31548  0.84141  0.23860  1.0000
  C   C752      1.0  0.31139  0.82537  0.24133  1.0000
  C   C753      1.0  0.31041  0.81849  0.27127  1.0000
  C   C754      1.0  0.31344  0.82761  0.29854  1.0000
  C   C755      1.0  0.31788  0.84359  0.29591  1.0000
  H   H593      1.0  0.27339  0.91678  0.31459  1.0000
  H   H594      1.0  0.23297  0.90147  0.34334  1.0000
  H   H595      1.0  0.22941  0.87305  0.33486  1.0000
  H   H596      1.0  0.26575  0.86006  0.29811  1.0000
  H   H597      1.0  0.31215  0.90378  0.28027  1.0000
  H   H598      1.0  0.36869  0.86033  0.31160  1.0000
  H   H599      1.0  0.41834  0.87114  0.33194  1.0000
  H   H600      1.0  0.44031  0.89546  0.30956  1.0000
  H   H601      1.0  0.41162  0.90893  0.26612  1.0000
  H   H602      1.0  0.36097  0.89872  0.24611  1.0000
  H   H603      1.0  0.36286  0.86801  0.20732  1.0000
  H   H604      1.0  0.35768  0.87670  0.15161  1.0000
  H   H605      1.0  0.30995  0.89136  0.13438  1.0000
  H   H606      1.0  0.26787  0.89753  0.17293  1.0000
  H   H607      1.0  0.27233  0.88888  0.22851  1.0000
  H   H608      1.0  0.31532  0.84643  0.21516  1.0000
  H   H609      1.0  0.30851  0.81824  0.22028  1.0000
  H   H610      1.0  0.30711  0.80609  0.27333  1.0000
  H   H611      1.0  0.31225  0.82231  0.32185  1.0000
  H   H612      1.0  0.31937  0.85046  0.31743  1.0000
  C   C756      1.0  0.44074  0.72886  0.36021  1.0000
  H   H613      1.0  0.42841  0.83446  0.41277  1.0000
  C   C757      1.0  0.00932  0.94300  0.12646  1.0000
  P   P25       1.0  0.29341  0.95561  0.05635  1.0000
  C   C758      1.0  0.21555  0.72877  0.31632  1.0000
  C   C759      1.0  0.45203  0.85879  0.45798  1.0000
  C   C760      1.0  0.38903  0.94755  0.04926  1.0000
  H   H614      1.0  0.17594  0.73612  0.23403  1.0000
  H   H615      1.0  0.48627  0.72457  0.42620  1.0000
  C   C761      1.0  0.45256  0.77978  0.45874  1.0000
  C   C762      1.0  0.44607  0.88393  0.43343  1.0000
  C   C763      1.0  0.43309  0.87154  0.45024  1.0000
  H   H616      1.0  0.23791  0.91399  0.99671  1.0000
  C   C764      1.0  0.48082  0.94962  0.45318  1.0000
  C   C765      1.0  0.27580  0.96010  0.09434  1.0000
  H   H617      1.0  0.40220  0.95896  0.45531  1.0000
  C   C766      1.0  0.46449  0.85246  0.26951  1.0000
  C   C767      1.0  0.29487  0.72912  0.37788  1.0000
  C   C768      1.0  0.16613  0.97831  0.01531  1.0000
  C   C769      1.0  0.29442  0.96054  0.12210  1.0000
  C   C770      1.0  0.30181  0.76589  0.06631  1.0000
  C   C771      1.0  0.42068  0.74481  0.40309  1.0000
  C   C772      1.0  0.48650  0.95257  0.42110  1.0000
  H   H618      1.0  0.18463  0.73606  0.40285  1.0000
  C   C773      1.0  0.41838  0.73931  0.37192  1.0000
  H   H619      1.0  0.04795  0.80188  0.18172  1.0000
  H   H620      1.0  0.30437  0.92680  0.09059  1.0000
  H   H621      1.0  0.43153  0.89393  0.42762  1.0000
  C   C774      1.0  0.00931  0.91362  0.09871  1.0000
  H   H622      1.0  0.23698  0.81344  0.28551  1.0000
  C   C775      1.0  0.24754  0.96539  0.15365  1.0000
  C   C776      1.0  0.22879  0.96464  0.12629  1.0000
  C   C777      1.0  0.47554  0.77233  0.34007  1.0000
  C   C778      1.0  0.31204  0.75052  0.06810  1.0000
  H   H623      1.0  0.23418  0.72094  0.42343  1.0000
  H   H624      1.0  0.25749  0.75851  0.34768  1.0000
  C   C779      1.0  0.44278  0.83370  0.39154  1.0000
  C   C780      1.0  0.45939  0.86531  0.24996  1.0000
  C   C781      1.0  0.22308  0.74531  0.37440  1.0000
  C   C782      1.0  0.28247  0.93575  0.04782  1.0000
  C   C783      1.0  0.21701  0.81708  0.27099  1.0000
  C   C784      1.0  0.18713  0.81050  0.27584  1.0000
  C   C785      1.0  0.16149  0.81491  0.25673  1.0000
  C   C786      1.0  0.16576  0.82578  0.23247  1.0000
  C   C787      1.0  0.19585  0.83223  0.22714  1.0000
  C   C788      1.0  0.22132  0.82801  0.24694  1.0000
  P   P26       1.0  0.20252  0.84555  0.19479  1.0000
  C   C789      1.0  0.20555  0.86530  0.20929  1.0000
  C   C790      1.0  0.23856  0.83906  0.17559  1.0000
  C   C791      1.0  0.26105  0.84969  0.16419  1.0000
  C   C792      1.0  0.28868  0.84442  0.14938  1.0000
  C   C793      1.0  0.29419  0.82854  0.14594  1.0000
  C   C794      1.0  0.27214  0.81788  0.15748  1.0000
  C   C795      1.0  0.24455  0.82309  0.17233  1.0000
  C   C796      1.0  0.20381  0.86858  0.24195  1.0000
  C   C797      1.0  0.20345  0.88396  0.25264  1.0000
  C   C798      1.0  0.20529  0.89616  0.23101  1.0000
  C   C799      1.0  0.20720  0.89302  0.19860  1.0000
  C   C800      1.0  0.20709  0.87769  0.18771  1.0000
  C   C801      1.0  0.16998  0.84423  0.16660  1.0000
  C   C802      1.0  0.14671  0.85590  0.16510  1.0000
  C   C803      1.0  0.12197  0.85496  0.14294  1.0000
  C   C804      1.0  0.11971  0.84217  0.12271  1.0000
  C   C805      1.0  0.14202  0.83029  0.12473  1.0000
  C   C806      1.0  0.16715  0.83131  0.14641  1.0000
  C   C807      1.0  0.05512  0.92503  0.99283  1.0000
  H   H625      1.0  0.18401  0.80185  0.29420  1.0000
  H   H626      1.0  0.13836  0.80974  0.26042  1.0000
  H   H627      1.0  0.14571  0.82891  0.21768  1.0000
  H   H628      1.0  0.24465  0.83294  0.24334  1.0000
  H   H629      1.0  0.25714  0.86201  0.16593  1.0000
  H   H630      1.0  0.30543  0.85270  0.13987  1.0000
  H   H631      1.0  0.31531  0.82446  0.13399  1.0000
  H   H632      1.0  0.27616  0.80553  0.15461  1.0000
  H   H633      1.0  0.22781  0.81455  0.18103  1.0000
  H   H634      1.0  0.20193  0.85938  0.25922  1.0000
  H   H635      1.0  0.20125  0.88650  0.27768  1.0000
  H   H636      1.0  0.20491  0.90809  0.23926  1.0000
  H   H637      1.0  0.20843  0.90255  0.18191  1.0000
  H   H638      1.0  0.20743  0.87550  0.16236  1.0000
  H   H639      1.0  0.14755  0.86586  0.18073  1.0000
  H   H640      1.0  0.10476  0.86425  0.14120  1.0000
  H   H641      1.0  0.10098  0.84152  0.10512  1.0000
  H   H642      1.0  0.14039  0.82050  0.10864  1.0000
  C   C808      1.0  0.08290  0.92479  0.01104  1.0000
  H   H643      1.0  0.22376  0.71054  0.04855  1.0000
  H   H644      1.0  0.21360  0.74611  0.46879  1.0000
  P   P27       1.0  0.23287  0.72719  0.35544  1.0000
  C   C809      1.0  0.41579  0.72074  0.47988  1.0000
  C   C810      1.0  0.34026  0.71749  0.35203  1.0000
  H   H645      1.0  0.31968  0.95843  0.12130  1.0000
  H   H646      1.0  0.39987  0.74354  0.35640  1.0000
  H   H647      1.0  0.01884  0.93901  0.04580  1.0000
  H   H648      1.0  0.33639  0.95760  0.46812  1.0000
  C   C811      1.0  0.27512  0.72425  0.35296  1.0000
  H   H649      1.0  0.27317  0.71134  0.30882  1.0000
  H   H650      1.0  0.25603  0.94073  0.00475  1.0000
  H   H651      1.0  0.40219  0.92700  0.46550  1.0000
  C   C812      1.0  0.24280  0.96188  0.09678  1.0000
  C   C813      1.0  0.23219  0.73651  0.29218  1.0000
  H   H652      1.0  0.48104  0.88261  0.22022  1.0000
  C   C814      1.0  0.46847  0.84613  0.34705  1.0000
  H   H653      1.0  0.25706  0.75901  0.43885  1.0000
  C   C815      1.0  0.33597  0.95765  0.05800  1.0000
  C   C816      1.0  0.30399  0.71090  0.03819  1.0000
  C   C817      1.0  0.22340  0.71106  0.41169  1.0000
  H   H654      1.0  0.33465  0.69661  0.08771  1.0000
  C   C818      1.0  0.16056  0.99218  0.99836  1.0000
  C   C819      1.0  0.04351  0.85324  0.07948  1.0000
  C   C820      1.0  0.46503  0.72351  0.37996  1.0000
  H   H655      1.0  0.21621  0.69894  0.45573  1.0000
  C   C821      1.0  0.05696  0.86808  0.07907  1.0000
  C   C822      1.0  0.26387  0.93193  0.02122  1.0000
  C   C823      1.0  0.40125  0.76894  0.47193  1.0000
  H   H656      1.0  0.46872  0.77655  0.22838  1.0000
  H   H657      1.0  0.47725  0.77848  0.45245  1.0000
  H   H658      1.0  0.46609  0.95964  0.37644  1.0000
  H   H659      1.0  0.35658  0.69223  0.14120  1.0000
  C   C824      1.0  0.48368  0.85821  0.44802  1.0000
  H   H660      1.0  0.02407  0.98726  0.13969  1.0000
  C   C825      1.0  0.40774  0.79677  0.46795  1.0000
  H   H661      1.0  0.01243  0.96708  0.05312  1.0000
  C   C826      1.0  0.01713  0.81402  0.14925  1.0000
  H   H662      1.0  0.28408  0.67483  0.01112  1.0000
  H   H663      1.0  0.39753  0.80830  0.46843  1.0000
  H   H664      1.0  0.05335  0.87601  0.09878  1.0000
  H   H665      1.0  0.45446  0.80469  0.45525  1.0000
  H   H666      1.0  0.34072  0.74663  0.99287  1.0000
  H   H667      1.0  0.12439  0.80136  1.00000  1.0000
  C   C827      1.0  0.09886  0.80091  0.00277  1.0000
  C   C828      1.0  0.09802  0.94969  0.98946  1.0000
  H   H668      1.0  0.25886  0.75100  0.98905  1.0000
  C   C829      1.0  0.25102  0.69149  0.02980  1.0000
  H   H669      1.0  0.33082  0.69158  0.01919  1.0000
  H   H670      1.0  0.42760  0.96303  0.06072  1.0000
  H   H671      1.0  0.03861  0.91542  0.99424  1.0000
  C   C830      1.0  0.04834  0.78921  0.98982  1.0000
  H   H672      1.0  0.11516  0.95905  0.98812  1.0000
  H   H673      1.0  0.00776  0.79863  0.01294  1.0000
  C   C831      1.0  0.23787  0.74252  0.47263  1.0000
  C   C832      1.0  0.25336  0.99200  0.00759  1.0000
  H   H674      1.0  0.32493  0.73019  0.48654  1.0000
  Fe  Fe57      1.0  0.13764  0.68884  0.58421  1.0000
  S   S115      1.0  0.16305  0.68406  0.53806  1.0000
  S   S116      1.0  0.08547  0.68502  0.59944  1.0000
  Fe  Fe58      1.0  0.20187  0.69067  0.62165  1.0000
  S   S117      1.0  0.23139  0.68607  0.57789  1.0000
  S   S118      1.0  0.21323  0.68991  0.67507  1.0000
  Fe  Fe59      1.0  0.19840  0.70277  0.55260  1.0000
  S   S119      1.0  0.21141  0.72151  0.51492  1.0000
  Fe  Fe60      1.0  0.19450  0.66794  0.56594  1.0000
  S   S120      1.0  0.17068  0.70851  0.59761  1.0000
  S   S121      1.0  0.16753  0.67153  0.61058  1.0000
  Fe  Fe61      1.0  0.39787  0.68790  0.86345  1.0000
  S   S122      1.0  0.36394  0.67644  0.89745  1.0000
  S   S123      1.0  0.44753  0.69435  0.88199  1.0000
  Fe  Fe62      1.0  0.34556  0.69008  0.81109  1.0000
  S   S124      1.0  0.30849  0.67921  0.84190  1.0000
  S   S125      1.0  0.33966  0.69594  0.75851  1.0000
  Fe  Fe63      1.0  0.32799  0.69440  0.88168  1.0000
  S   S126      1.0  0.30379  0.71162  0.91632  1.0000
  C   C833      1.0  0.38923  0.71759  0.53039  1.0000
  S   S127      1.0  0.36294  0.70638  0.84940  1.0000
  H   H675      1.0  0.37386  0.71093  0.54582  1.0000
  C   C834      1.0  0.26999  0.96090  0.59700  1.0000
  H   H676      1.0  0.39086  0.97162  0.60380  1.0000
  C   C835      1.0  0.16008  0.72776  0.79731  1.0000
  C   C836      1.0  0.26910  0.95734  0.68339  1.0000
  H   H677      1.0  0.16123  0.69050  0.83827  1.0000
  C   C837      1.0  0.31804  0.97636  0.63752  1.0000
  H   H678      1.0  0.33320  0.73461  0.80493  1.0000
  C   C838      1.0  0.27382  0.71896  0.94260  1.0000
  C   C839      1.0  0.27791  0.73364  0.95689  1.0000
  C   C840      1.0  0.27527  0.96518  0.56527  1.0000
  C   C841      1.0  0.37333  0.97400  0.62186  1.0000
  C   C842      1.0  0.25611  0.96912  0.66439  1.0000
  C   C843      1.0  0.25472  0.93513  0.57895  1.0000
  P   P28       1.0  0.44222  0.94625  0.50642  1.0000
  H   H679      1.0  0.00469  0.70776  0.52720  1.0000
  H   H680      1.0  0.19388  0.97909  0.71189  1.0000
  H   H681      1.0  0.09840  0.94530  0.84596  1.0000
  C   C844      1.0  0.24943  0.69057  0.69689  1.0000
  C   C845      1.0  0.24921  0.68613  0.72901  1.0000
  C   C846      1.0  0.27668  0.68742  0.74808  1.0000
  C   C847      1.0  0.30482  0.69320  0.73514  1.0000
  C   C848      1.0  0.30530  0.69724  0.70278  1.0000
  C   C849      1.0  0.27781  0.69589  0.68369  1.0000
  H   H682      1.0  0.22755  0.68172  0.73919  1.0000
  H   H683      1.0  0.27595  0.68422  0.77286  1.0000
  H   H684      1.0  0.32694  0.70170  0.69251  1.0000
  H   H685      1.0  0.27835  0.69938  0.65905  1.0000
  C   C850      1.0  0.34198  0.99140  0.51112  1.0000
  C   C851      1.0  0.49746  0.72282  0.83561  1.0000
  C   C852      1.0  0.30912  0.73134  0.81090  1.0000
  C   C853      1.0  0.18563  0.70414  0.77961  1.0000
  P   P29       1.0  0.20759  0.71591  0.83723  1.0000
  C   C854      1.0  0.04038  0.69805  0.55829  1.0000
  C   C855      1.0  0.04631  0.68987  0.58635  1.0000
  C   C856      1.0  0.02020  0.68513  0.60482  1.0000
  H   H686      1.0  0.06008  0.70181  0.54382  1.0000
  H   H687      1.0  0.02445  0.67886  0.62662  1.0000
  S   S128      1.0  0.38356  0.67279  0.82267  1.0000
  C   C857      1.0  0.47942  0.92940  0.54936  1.0000
  C   C858      1.0  0.22341  0.71677  0.97069  1.0000
  H   H688      1.0  0.48289  0.71127  0.75976  1.0000
  H   H689      1.0  0.27428  0.95801  0.51624  1.0000
  C   C859      1.0  0.00887  0.70141  0.54893  1.0000
  P   P30       1.0  0.06161  0.96711  0.94787  1.0000
  C   C860      1.0  0.19381  0.72904  0.86776  1.0000
  C   C861      1.0  0.02105  0.96813  0.93411  1.0000
  H   H690      1.0  0.25578  0.93135  0.52831  1.0000
  C   C862      1.0  0.13043  0.96286  0.86339  1.0000
  H   H691      1.0  0.37287  0.71044  0.93510  1.0000
  H   H692      1.0  0.33421  0.96938  0.59079  1.0000
  H   H693      1.0  0.48554  0.74102  0.52199  1.0000
  C   C863      1.0  0.48076  0.71713  0.80937  1.0000
  H   H694      1.0  0.17122  0.69563  0.73352  1.0000
  C   C864      1.0  0.18232  0.71592  0.80245  1.0000
  H   H695      1.0  0.13223  0.71662  0.72462  1.0000
  C   C865      1.0  0.14581  0.71632  0.74654  1.0000
  C   C866      1.0  0.08878  0.96551  0.91497  1.0000
  C   C867      1.0  0.08269  0.95476  0.89062  1.0000
  C   C868      1.0  0.10336  0.95351  0.86483  1.0000
  H   H696      1.0  0.48562  0.72381  0.85834  1.0000
  C   C869      1.0  0.06963  0.95031  0.97201  1.0000
  C   C870      1.0  0.11656  0.97447  0.91382  1.0000
  C   C871      1.0  0.14185  0.72792  0.76944  1.0000
  H   H697      1.0  0.06187  0.94739  0.89154  1.0000
  C   C872      1.0  0.22762  0.73137  0.98529  1.0000
  H   H698      1.0  0.31745  0.92175  0.52043  1.0000
  C   C873      1.0  0.47832  0.96767  0.54116  1.0000
  C   C874      1.0  0.49136  0.68105  0.84043  1.0000
  H   H699      1.0  0.20944  0.95936  0.95973  1.0000
  H   H700      1.0  0.16267  0.66426  0.86149  1.0000
  C   C875      1.0  0.42037  0.74067  0.52031  1.0000
  H   H701      1.0  0.25474  0.66638  0.64075  1.0000
  C   C876      1.0  0.22870  0.97688  0.67476  1.0000
  C   C877      1.0  0.35842  0.92346  0.49036  1.0000
  H   H702      1.0  0.17718  0.71111  0.89981  1.0000
  H   H703      1.0  0.42653  0.67396  0.93088  1.0000
  C   C878      1.0  0.33772  0.97553  0.50431  1.0000
  C   C879      1.0  0.25969  0.94575  0.60365  1.0000
  H   H704      1.0  0.24658  0.92349  0.58418  1.0000
  C   C880      1.0  0.18994  0.98233  0.95363  1.0000
  H   H705      1.0  0.12261  0.98238  0.93282  1.0000
  Fe  Fe64      1.0  0.34726  0.66233  0.85530  1.0000
  C   C881      1.0  0.13707  0.97328  0.88795  1.0000
  C   C882      1.0  0.48609  0.68839  0.86959  1.0000
  H   H706      1.0  0.33337  0.71650  0.97632  1.0000
  H   H707      1.0  0.20287  0.69498  0.78301  1.0000
  C   C883      1.0  0.24415  0.73056  0.49462  1.0000
  C   C884      1.0  0.21474  0.97295  0.70373  1.0000
  C   C885      1.0  0.18046  0.72340  0.89601  1.0000
  H   H708      1.0  0.02715  0.93751  0.95892  1.0000
  H   H709      1.0  0.40807  0.98022  0.65739  1.0000
  H   H710      1.0  0.26539  0.94448  0.72706  1.0000
  H   H711      1.0  0.03464  0.78052  0.97721  1.0000
  H   H712      1.0  0.12496  0.73717  0.76532  1.0000
  C   C886      1.0  0.25519  0.73976  0.97824  1.0000
  C   C887      1.0  0.48250  0.98103  0.55966  1.0000
  C   C888      1.0  0.32802  0.98138  0.66774  1.0000
  H   H713      1.0  0.36788  0.98662  0.69817  1.0000
  H   H714      1.0  0.15693  0.73695  0.81450  1.0000
  H   H715      1.0  0.19942  0.98376  0.93001  1.0000
  H   H716      1.0  0.25688  0.67282  0.89685  1.0000
  C   C889      1.0  0.01423  0.97307  0.90312  1.0000
  C   C890      1.0  0.16767  0.70443  0.75165  1.0000
  C   C891      1.0  0.43854  0.66308  0.93523  1.0000
  C   C892      1.0  0.42278  0.97402  0.53450  1.0000
  H   H717      1.0  0.43004  0.70928  0.94880  1.0000
  H   H718      1.0  0.29737  0.72432  0.76324  1.0000
  C   C893      1.0  0.46789  0.93049  0.51814  1.0000
  H   H719      1.0  0.34147  0.93731  0.56400  1.0000
  C   C894      1.0  0.19560  0.96848  0.97061  1.0000
  H   H720      1.0  0.09310  0.78174  0.97054  1.0000
  C   C895      1.0  0.24631  0.71058  0.94973  1.0000
  H   H721      1.0  0.33268  0.96759  0.52343  1.0000
  H   H722      1.0  0.24340  0.71617  0.77636  1.0000
  H   H723      1.0  0.31088  0.98464  0.68565  1.0000
  H   H724      1.0  0.31426  0.73688  0.86060  1.0000
  H   H725      1.0  0.25592  0.69890  0.87365  1.0000
  C   C896      1.0  0.23614  0.67659  0.88366  1.0000
  H   H726      1.0  0.26007  0.72895  0.87440  1.0000
  C   C897      1.0  0.25819  0.72076  0.79513  1.0000
  C   C898      1.0  0.18313  0.67180  0.86373  1.0000
  C   C899      1.0  0.26768  0.72802  0.84993  1.0000
  H   H727      1.0  0.15817  0.98046  0.88707  1.0000
  C   C900      1.0  0.40231  0.93889  0.51079  1.0000
  C   C901      1.0  0.20893  0.69650  0.85328  1.0000
  C   C902      1.0  0.24729  0.72193  0.82655  1.0000
  C   C903      1.0  0.25991  0.93953  0.54747  1.0000
  H   H728      1.0  0.47282  0.93790  0.56708  1.0000
  C   C904      1.0  0.04856  0.93768  0.97312  1.0000
  C   C905      1.0  0.19821  0.74509  0.86417  1.0000
  C   C906      1.0  0.38302  0.97883  0.65207  1.0000
  C   C907      1.0  0.29846  0.73263  0.84215  1.0000
  C   C908      1.0  0.19010  0.75528  0.88872  1.0000
  H   H729      1.0  0.20877  0.74968  0.84273  1.0000
  C   C909      1.0  0.23559  0.69141  0.87030  1.0000
  C   C910      1.0  0.44815  0.96380  0.52930  1.0000
  H   H730      1.0  0.39972  0.97183  0.52408  1.0000
  H   H731      1.0  0.29090  0.97461  0.94582  1.0000
  C   C911      1.0  0.17740  0.74954  0.91695  1.0000
  C   C912      1.0  0.27023  0.95455  0.54066  1.0000
  C   C913      1.0  0.22795  0.96129  0.72254  1.0000
  H   H732      1.0  0.24266  0.69927  0.93926  1.0000
  C   C914      1.0  0.27588  0.72621  0.49931  1.0000
  H   H733      1.0  0.28136  0.71710  0.51605  1.0000
  C   C915      1.0  0.38543  0.94115  0.53915  1.0000
  C   C916      1.0  0.34118  0.92641  0.51797  1.0000
  H   H734      1.0  0.42879  0.75191  0.52820  1.0000
  H   H735      1.0  0.19429  0.76761  0.88618  1.0000
  C   C917      1.0  0.40121  0.73189  0.54051  1.0000
  H   H736      1.0  0.16299  0.72924  0.94266  1.0000
  C   C918      1.0  0.17230  0.73364  0.92045  1.0000
  C   C919      1.0  0.28893  0.72549  0.78742  1.0000
  H   H737      1.0  0.47144  0.67840  0.82509  1.0000
  H   H738      1.0  0.21733  0.95845  0.74521  1.0000
  H   H739      1.0  0.29886  0.74035  0.95141  1.0000
  C   C920      1.0  0.18249  0.68665  0.85042  1.0000
  C   C921      1.0  0.38058  0.71260  0.95932  1.0000
  H   H740      1.0  0.29045  0.95134  0.67606  1.0000
  H   H741      1.0  0.17199  0.75734  0.93644  1.0000
  C   C922      1.0  0.34101  0.97278  0.61457  1.0000
  C   C923      1.0  0.26379  0.98941  0.97661  1.0000
  H   H742      1.0  0.14641  0.96198  0.84338  1.0000
  C   C924      1.0  0.47531  0.91872  0.49621  1.0000
  C   C925      1.0  0.41278  0.71198  0.96707  1.0000
  C   C926      1.0  0.35821  0.71606  0.98271  1.0000
  H   H743      1.0  0.45612  0.71371  0.81193  1.0000
  C   C927      1.0  0.36036  0.98248  0.67502  1.0000
  C   C928      1.0  0.25504  0.95344  0.71231  1.0000
  C   C929      1.0  0.45672  0.99070  0.56607  1.0000
  P   P31       1.0  0.27611  0.97496  0.62841  1.0000
  H   H744      1.0  0.39508  0.73630  0.56379  1.0000
  C   C930      1.0  0.06862  0.98454  0.97073  1.0000
  H   H745      1.0  0.25520  0.94210  0.62774  1.0000
  C   C931      1.0  0.21000  0.66675  0.88025  1.0000
  C   C932      1.0  0.35474  0.93517  0.54245  1.0000
  C   C933      1.0  0.42693  0.98726  0.55326  1.0000
  H   H746      1.0  0.39580  0.94757  0.55870  1.0000
  H   H747      1.0  0.03306  0.97612  0.88690  1.0000
  H   H748      1.0  0.20234  0.71011  0.97593  1.0000
  H   H749      1.0  0.00537  0.66353  0.55445  1.0000
  H   H750      1.0  0.01051  0.74658  0.58021  1.0000
  H   H751      1.0  0.28327  0.97679  0.55950  1.0000
  H   H752      1.0  0.21828  0.98612  0.66091  1.0000
  H   H753      1.0  0.23645  0.66456  0.81096  1.0000
  C   C934      1.0  0.28304  0.97665  0.96991  1.0000
  H   H754      1.0  0.31810  0.66101  0.70726  1.0000
  H   H755      1.0  0.18026  0.66406  0.79291  1.0000
  C   C935      1.0  0.38898  0.92956  0.48689  1.0000
  H   H756      1.0  0.43574  0.66526  0.98602  1.0000
  C   C936      1.0  0.39661  0.71200  0.50015  1.0000
  C   C937      1.0  0.08120  0.78987  0.98607  1.0000
  C   C938      1.0  0.49546  0.90657  0.50490  1.0000
  H   H757      1.0  0.22281  0.98351  0.58698  1.0000
  H   H758      1.0  0.38694  0.70101  0.49218  1.0000
  C   C939      1.0  0.42771  0.73520  0.48975  1.0000
  C   C940      1.0  0.49951  0.91719  0.55800  1.0000
  H   H759      1.0  0.49856  0.96037  0.53629  1.0000
  C   C941      1.0  0.49596  0.71564  0.78010  1.0000
  Fe  Fe65      1.0  0.69548  0.29409  0.07890  1.0000
  S   S129      1.0  0.65944  0.29099  0.11724  1.0000
  C   C942      1.0  0.73658  0.24189  0.33266  1.0000
  Fe  Fe66      1.0  0.70323  0.25900  0.06710  1.0000
  S   S130      1.0  0.66698  0.25374  0.10541  1.0000
  S   S131      1.0  0.72349  0.23744  0.04073  1.0000
  Fe  Fe67      1.0  0.63723  0.27312  0.08528  1.0000
  S   S132      1.0  0.58470  0.27355  0.06965  1.0000
  Fe  Fe68      1.0  0.69193  0.27201  0.13510  1.0000
  S   S133      1.0  0.69730  0.27235  0.18963  1.0000
  S   S134      1.0  0.67182  0.27728  0.04531  1.0000
  S   S135      1.0  0.72965  0.27623  0.09832  1.0000
  Fe  Fe69      1.0  0.87542  0.27540  0.38071  1.0000
  S   S136      1.0  0.84249  0.28648  0.41642  1.0000
  S   S137      1.0  0.92827  0.28014  0.39183  1.0000
  Fe  Fe70      1.0  0.81841  0.26621  0.33791  1.0000
  S   S138      1.0  0.78272  0.27658  0.37126  1.0000
  S   S139      1.0  0.80646  0.25482  0.28994  1.0000
  Fe  Fe71      1.0  0.81704  0.29663  0.37454  1.0000
  C   C943      1.0  0.53402  0.30930  0.14894  1.0000
  Fe  Fe72      1.0  0.81100  0.26534  0.41076  1.0000
  S   S140      1.0  0.78951  0.25595  0.45780  1.0000
  S   S141      1.0  0.85111  0.28682  0.33916  1.0000
  S   S142      1.0  0.84537  0.25368  0.37717  1.0000
  H   H760      1.0  0.86078  0.01849  0.06632  1.0000
  C   C944      1.0  0.76581  0.22547  0.45753  1.0000
  H   H761      1.0  0.77577  0.22430  0.43404  1.0000
  C   C945      1.0  0.74827  0.23242  0.00748  1.0000
  C   C946      1.0  0.55951  0.23420  0.08193  1.0000
  H   H762      1.0  0.59982  0.23384  0.24130  1.0000
  H   H763      1.0  0.82640  0.00047  0.00989  1.0000
  C   C947      1.0  0.58131  0.28271  0.20485  1.0000
  C   C948      1.0  0.77754  0.26108  0.26156  1.0000
  C   C949      1.0  0.75186  0.27048  0.27004  1.0000
  C   C950      1.0  0.72779  0.27388  0.24765  1.0000
  C   C951      1.0  0.72956  0.26847  0.21612  1.0000
  C   C952      1.0  0.75583  0.25955  0.20730  1.0000
  C   C953      1.0  0.77933  0.25568  0.23001  1.0000
  H   H764      1.0  0.75010  0.27477  0.29413  1.0000
  H   H765      1.0  0.70767  0.28080  0.25484  1.0000
  H   H766      1.0  0.75769  0.25530  0.18320  1.0000
  H   H767      1.0  0.79906  0.24844  0.22307  1.0000
  C   C954      1.0  0.97120  0.25843  0.36738  1.0000
  C   C955      1.0  0.96672  0.27273  0.38246  1.0000
  H   H768      1.0  0.71185  0.04685  0.24174  1.0000
  H   H769      1.0  0.95079  0.25160  0.36038  1.0000
  H   H770      1.0  0.52191  0.29840  0.15297  1.0000
  C   C956      1.0  0.54208  0.26886  0.11952  1.0000
  C   C957      1.0  0.54634  0.27163  0.08713  1.0000
  C   C958      1.0  0.70153  0.25546  0.38192  1.0000
  H   H771      1.0  0.56256  0.26832  0.13488  1.0000
  H   H772      1.0  0.52221  0.27446  0.04231  1.0000
  H   H773      1.0  0.64613  0.29450  0.42340  1.0000
  C   C959      1.0  0.86377  0.99804  0.09545  1.0000
  C   C960      1.0  0.52967  0.31937  0.06366  1.0000
  H   H774      1.0  0.76691  0.29322  0.47135  1.0000
  C   C961      1.0  0.93044  0.24705  0.44207  1.0000
  C   C962      1.0  0.57987  0.28033  0.38747  1.0000
  H   H775      1.0  0.53632  0.27460  0.22232  1.0000
  C   C963      1.0  0.51661  0.22723  0.11711  1.0000
  H   H776      1.0  0.57240  0.30592  0.05824  1.0000
  C   C964      1.0  0.59141  0.25188  0.18578  1.0000
  C   C965      1.0  0.56999  0.23066  0.13824  1.0000
  H   H777      1.0  0.79243  0.17045  0.44480  1.0000
  C   C966      1.0  0.95796  0.99642  0.00386  1.0000
  C   C967      1.0  0.90805  0.25733  0.45439  1.0000
  C   C968      1.0  0.98186  0.17221  0.06521  1.0000
  C   C969      1.0  0.90979  0.19527  0.42052  1.0000
  C   C970      1.0  0.91399  0.18529  0.39448  1.0000
  P   P32       1.0  0.87691  0.20860  0.42171  1.0000
  S   S143      1.0  0.79808  0.32111  0.36733  1.0000
  C   C971      1.0  0.88966  0.22728  0.43638  1.0000
  C   C972      1.0  0.86723  0.23778  0.44825  1.0000
  C   C973      1.0  0.63111  0.28638  0.41070  1.0000
  C   C974      1.0  0.95540  0.18351  0.44640  1.0000
  C   C975      1.0  0.82945  0.18703  0.43490  1.0000
  C   C976      1.0  0.91372  0.19544  0.99609  1.0000
  P   P33       1.0  0.68159  0.26544  0.41374  1.0000
  C   C977      1.0  0.70705  0.28180  0.42186  1.0000
  C   C978      1.0  0.94242  0.30970  0.33229  1.0000
  C   C979      1.0  0.86305  0.21255  0.38192  1.0000
  C   C980      1.0  0.88494  0.21733  0.35883  1.0000
  C   C981      1.0  0.87468  0.22107  0.32819  1.0000
  C   C982      1.0  0.84253  0.22007  0.32034  1.0000
  C   C983      1.0  0.82056  0.21544  0.34319  1.0000
  C   C984      1.0  0.83063  0.21193  0.37406  1.0000
  H   H778      1.0  0.97182  0.15336  0.09715  1.0000
  C   C985      1.0  0.74296  0.31260  0.20245  1.0000
  H   H779      1.0  0.97951  0.16575  0.41971  1.0000
  C   C986      1.0  0.51139  0.26624  0.13178  1.0000
  H   H780      1.0  0.89789  0.18560  0.37439  1.0000
  C   C987      1.0  0.56704  0.19325  0.21843  1.0000
  C   C988      1.0  0.89894  0.30996  0.29458  1.0000
  C   C989      1.0  0.76268  0.24352  0.98796  1.0000
  H   H781      1.0  0.83297  0.18282  0.41093  1.0000
  C   C990      1.0  0.88973  0.20661  0.99394  1.0000
  C   C991      1.0  0.95488  0.14856  0.04980  1.0000
  C   C992      1.0  0.62163  0.26104  0.38755  1.0000
  H   H782      1.0  0.72520  0.21823  0.14253  1.0000
  H   H783      1.0  0.90989  0.21850  0.36466  1.0000
  H   H784      1.0  0.89152  0.22512  0.31066  1.0000
  H   H785      1.0  0.83453  0.22331  0.29674  1.0000
  H   H786      1.0  0.79562  0.21498  0.33701  1.0000
  H   H787      1.0  0.81301  0.20913  0.39172  1.0000
  C   C993      1.0  0.59473  0.01661  0.47677  1.0000
  C   C994      1.0  0.51929  0.27234  0.06743  1.0000
  H   H788      1.0  0.69187  0.99535  0.32812  1.0000
  H   H789      1.0  0.85888  0.26088  0.46590  1.0000
  C   C995      1.0  0.74673  0.24037  0.36411  1.0000
  C   C996      1.0  0.69173  0.25718  0.35021  1.0000
  H   H790      1.0  0.52854  0.22510  0.16637  1.0000
  H   H791      1.0  0.84237  0.23464  0.44937  1.0000
  H   H792      1.0  0.55852  0.18179  0.21210  1.0000
  H   H793      1.0  0.87655  0.20998  0.01488  1.0000
  H   H794      1.0  0.74766  0.20203  0.45863  1.0000
  C   C997      1.0  0.70839  0.29411  0.40013  1.0000
  H   H795      1.0  0.94256  0.16720  0.37384  1.0000
  H   H796      1.0  0.54498  0.24753  0.20566  1.0000
  C   C998      1.0  0.93932  0.32576  0.33687  1.0000
  C   C999      1.0  0.56330  0.25607  0.20139  1.0000
  H   H797      1.0  0.68579  0.02775  0.20598  1.0000
  C   C1000     1.0  0.58283  0.21193  0.25847  1.0000
  H   H798      1.0  0.75952  0.25571  0.99317  1.0000
  C   C1001     1.0  0.98675  0.00083  0.98986  1.0000
  H   H799      1.0  0.73817  0.24645  0.41271  1.0000
  H   H800      1.0  0.61258  0.05324  0.45302  1.0000
  C   C1002     1.0  0.70903  0.25025  0.32573  1.0000
  H   H801      1.0  0.92483  0.28944  0.30805  1.0000
  H   H802      1.0  0.67143  0.26426  0.34415  1.0000
  H   H803      1.0  0.70186  0.25183  0.30120  1.0000
  H   H804      1.0  0.75066  0.23709  0.31352  1.0000
  H   H805      1.0  0.52653  0.02732  0.43902  1.0000
  P   P34       1.0  0.54055  0.99809  0.47138  1.0000
  C   C1003     1.0  0.91312  0.32099  0.44179  1.0000
  H   H806      1.0  0.74218  0.20787  0.01476  1.0000
  C   C1004     1.0  0.84334  0.20427  0.47825  1.0000
  C   C1005     1.0  0.56592  0.30903  0.13994  1.0000
  H   H807      1.0  0.56578  0.18892  0.26877  1.0000
  C   C1006     1.0  0.70067  0.22046  0.14868  1.0000
  H   H808      1.0  0.74385  0.00993  0.30192  1.0000
  C   C1007     1.0  0.72911  0.02951  0.27424  1.0000
  C   C1008     1.0  0.71280  0.03459  0.24724  1.0000
  C   C1009     1.0  0.69806  0.02384  0.22714  1.0000
  C   C1010     1.0  0.64454  0.21750  0.13750  1.0000
  H   H809      1.0  0.67231  0.21501  0.46910  1.0000
  H   H810      1.0  0.57747  0.29463  0.21204  1.0000
  C   C1011     1.0  0.55035  0.02806  0.44864  1.0000
  C   C1012     1.0  0.92253  0.30188  0.31102  1.0000
  H   H811      1.0  0.92026  0.31337  0.39401  1.0000
  H   H812      1.0  0.71245  0.23471  0.18913  1.0000
  H   H813      1.0  0.58665  0.21493  0.28318  1.0000
  H   H814      1.0  0.94054  0.14679  0.00117  1.0000
  C   C1013     1.0  0.58055  0.23444  0.10766  1.0000
  C   C1014     1.0  0.67619  0.21419  0.13022  1.0000
  H   H815      1.0  0.60472  0.23816  0.10370  1.0000
  H   H816      1.0  0.95983  0.30312  0.34558  1.0000
  C   C1015     1.0  0.74649  0.30806  0.17083  1.0000
  C   C1016     1.0  0.67625  0.25316  0.44797  1.0000
  H   H817      1.0  0.92677  0.20134  0.46748  1.0000
  C   C1017     1.0  0.95210  0.15405  0.01869  1.0000
  C   C1018     1.0  0.90289  0.00526  0.05621  1.0000
  C   C1019     1.0  0.74997  0.21278  0.47171  1.0000
  H   H818      1.0  0.68184  0.20704  0.10983  1.0000
  H   H819      1.0  0.62597  0.21245  0.12301  1.0000
  P   P35       1.0  0.59650  0.23222  0.17191  1.0000
  C   C1020     1.0  0.73053  0.01368  0.28128  1.0000
  H   H820      1.0  0.56772  0.23763  0.05861  1.0000
  S   S144      1.0  0.71167  0.31787  0.06200  1.0000
  H   H821      1.0  0.74089  0.03782  0.28962  1.0000
  C   C1021     1.0  0.76887  0.23954  0.47387  1.0000
  H   H822      1.0  0.93877  0.22462  0.42200  1.0000
  C   C1022     1.0  0.95997  0.17391  0.42003  1.0000
  C   C1023     1.0  0.67695  0.23694  0.44495  1.0000
  C   C1024     1.0  0.60921  0.27866  0.18911  1.0000
  C   C1025     1.0  0.61402  0.26338  0.17915  1.0000
  C   C1026     1.0  0.63722  0.22749  0.16283  1.0000
  H   H823      1.0  0.74844  0.31563  0.12219  1.0000
  C   C1027     1.0  0.72932  0.24715  0.38861  1.0000
  H   H824      1.0  0.60643  0.32260  0.12618  1.0000
  C   C1028     1.0  0.69351  0.22978  0.17484  1.0000
  C   C1029     1.0  0.66193  0.23316  0.18211  1.0000
  H   H825      1.0  0.88308  0.30381  0.27860  1.0000
  H   H826      1.0  0.62720  0.28734  0.18429  1.0000
  H   H827      1.0  0.63527  0.26069  0.16599  1.0000
  C   C1030     1.0  0.96417  0.16871  0.01064  1.0000
  H   H828      1.0  0.91869  0.19032  0.01897  1.0000
  H   H829      1.0  0.51099  0.23121  0.06694  1.0000
  H   H830      1.0  0.65702  0.24053  0.20236  1.0000
  H   H831      1.0  0.74304  0.30391  0.22099  1.0000
  H   H832      1.0  0.76880  0.23454  0.36949  1.0000
  C   C1031     1.0  0.64233  0.27161  0.40233  1.0000
  C   C1032     1.0  0.93024  0.19406  0.44678  1.0000
  H   H833      1.0  0.57810  0.29806  0.13690  1.0000
  C   C1033     1.0  0.92131  0.23211  0.43288  1.0000
  H   H834      1.0  0.73154  0.31556  0.38749  1.0000
  H   H835      1.0  0.62949  0.24938  0.38210  1.0000
  H   H836      1.0  0.57478  0.25726  0.36836  1.0000
  C   C1034     1.0  0.58515  0.21884  0.20263  1.0000
  H   H837      1.0  0.74918  0.29588  0.16496  1.0000
  C   C1035     1.0  0.59060  0.26545  0.37990  1.0000
  H   H838      1.0  0.66179  0.32428  0.10783  1.0000
  H   H839      1.0  0.50510  0.99744  0.41092  1.0000
  H   H840      1.0  0.69351  0.29412  0.37913  1.0000
  C   C1036     1.0  0.87446  0.00824  0.07209  1.0000
  H   H841      1.0  0.57169  0.20055  0.16995  1.0000
  C   C1037     1.0  0.60008  0.29076  0.40298  1.0000
  C   C1038     1.0  0.57431  0.20394  0.19461  1.0000
  H   H842      1.0  0.55776  0.05129  0.43140  1.0000
  C   C1039     1.0  0.57118  0.19726  0.25035  1.0000
  C   C1040     1.0  0.72994  0.30625  0.40471  1.0000
  H   H843      1.0  0.94545  0.13726  0.05588  1.0000
  H   H844      1.0  0.68191  0.23149  0.42236  1.0000
  H   H845      1.0  0.55579  0.28371  0.38168  1.0000
  C   C1041     1.0  0.58188  0.32289  0.13369  1.0000
  C   C1042     1.0  0.84731  0.19958  0.44655  1.0000
  C   C1043     1.0  0.59006  0.22266  0.23469  1.0000
  H   H846      1.0  0.98854  0.18909  0.02840  1.0000
  C   C1044     1.0  0.55827  0.27144  0.21080  1.0000
  C   C1045     1.0  0.56343  0.01554  0.46543  1.0000
  C   C1046     1.0  0.80210  0.18502  0.48523  1.0000
  C   C1047     1.0  0.56799  0.04164  0.44422  1.0000
  C   C1048     1.0  0.87647  0.25270  0.45747  1.0000
  H   H847      1.0  0.68834  0.99976  0.21810  1.0000
  C   C1049     1.0  0.66887  0.25979  0.47751  1.0000
  C   C1050     1.0  0.52753  0.23066  0.08666  1.0000
  C   C1051     1.0  0.80671  0.17989  0.45409  1.0000
  C   C1052     1.0  0.75299  0.21663  0.99998  1.0000
  C   C1053     1.0  0.72813  0.28163  0.44773  1.0000
  C   C1054     1.0  0.75078  0.30603  0.43057  1.0000
  C   C1055     1.0  0.97912  0.17773  0.03413  1.0000
  H   H848      1.0  0.91122  0.01356  0.03889  1.0000
  H   H849      1.0  0.63626  0.03098  0.48169  1.0000
  H   H850      1.0  0.59165  0.30222  0.40930  1.0000
  H   H851      1.0  0.90762  0.99308  0.99514  1.0000
  C   C1056     1.0  0.96973  0.15763  0.07305  1.0000
  C   C1057     1.0  0.59888  0.04273  0.45627  1.0000
  H   H852      1.0  0.66752  0.27226  0.48017  1.0000
  C   C1058     1.0  0.74990  0.29372  0.45204  1.0000
  C   C1059     1.0  0.71520  0.00285  0.26156  1.0000
  H   H853      1.0  0.84183  0.00036  0.10788  1.0000
  C   C1060     1.0  0.56204  0.31742  0.05783  1.0000
  C   C1061     1.0  0.53771  0.22725  0.14284  1.0000
  C   C1062     1.0  0.69942  0.00800  0.23414  1.0000
  C   C1063     1.0  0.74610  0.31918  0.14680  1.0000
  C   C1064     1.0  0.98669  0.99599  0.07000  1.0000
  H   H854      1.0  0.72883  0.27190  0.46386  1.0000
  H   H855      1.0  0.99064  0.29246  0.40313  1.0000
  H   H856      1.0  0.76831  0.31517  0.43323  1.0000
  C   C1065     1.0  0.67109  0.22753  0.47128  1.0000
  C   C1066     1.0  0.99371  0.28137  0.39149  1.0000
  C   C1067     1.0  0.61226  0.03020  0.47242  1.0000
  C   C1068     1.0  0.93918  0.17475  0.39416  1.0000
  H   H857      1.0  0.89682  0.31161  0.44699  1.0000
  H   H858      1.0  0.51510  0.30931  0.06868  1.0000
  C   C1069     1.0  0.51784  0.32348  0.15186  1.0000
  H   H859      1.0  0.64556  0.99464  0.45250  1.0000
  H   H860      1.0  0.50521  0.31515  0.22143  1.0000
  H   H861      1.0  0.99267  0.01766  0.04474  1.0000
  C   C1070     1.0  0.92653  0.32202  0.41158  1.0000
  H   H862      1.0  0.95458  0.25097  0.43822  1.0000
  C   C1071     1.0  0.99999  0.01070  0.06480  1.0000
  H   H863      1.0  0.91493  0.26914  0.46011  1.0000
  H   H864      1.0  0.97136  0.18274  0.46656  1.0000
  H   H865      1.0  0.50855  0.26370  0.15672  1.0000
  H   H866      1.0  0.99336  0.17925  0.08323  1.0000
  H   H867      1.0  0.65160  0.99319  0.27212  1.0000
  H   H868      1.0  0.68948  0.25401  0.98711  1.0000
  Fe  Fe73      1.0  0.84243  0.02402  0.82566  1.0000
  S   S145      1.0  0.82482  0.03877  0.86629  1.0000
  S   S146      1.0  0.81903  0.01580  0.77926  1.0000
  Fe  Fe74      1.0  0.90955  0.02148  0.85513  1.0000
  S   S147      1.0  0.89698  0.03632  0.89685  1.0000
  S   S148      1.0  0.95671  0.00902  0.85348  1.0000
  Fe  Fe75      1.0  0.85211  0.02213  0.89849  1.0000
  S   S149      1.0  0.83684  0.01247  0.94700  1.0000
  Fe  Fe76      1.0  0.87144  0.05147  0.86150  1.0000
  S   S150      1.0  0.88300  0.07696  0.85329  1.0000
  S   S151      1.0  0.86594  0.00668  0.85828  1.0000
  S   S152      1.0  0.88772  0.03742  0.81958  1.0000
  Fe  Fe77      1.0  0.63163  0.03344  0.59406  1.0000
  S   S153      1.0  0.66490  0.03503  0.55269  1.0000
  S   S154      1.0  0.58122  0.03586  0.57556  1.0000
  Fe  Fe78      1.0  0.68735  0.03193  0.64238  1.0000
  S   S155      1.0  0.72371  0.03314  0.60346  1.0000
  S   S156      1.0  0.69811  0.03513  0.69567  1.0000
  Fe  Fe79      1.0  0.69262  0.05185  0.58272  1.0000
  S   S157      1.0  0.70988  0.07474  0.56204  1.0000
  Fe  Fe80      1.0  0.69199  0.01614  0.57689  1.0000
  H   H869      1.0  0.52879  0.07949  0.58208  1.0000
  S   S158      1.0  0.65773  0.05147  0.62242  1.0000
  S   S159      1.0  0.65739  0.01365  0.61743  1.0000
  Fe  Fe81      1.0  0.67512  0.19332  0.63472  1.0000
  S   S160      1.0  0.70606  0.17758  0.60603  1.0000
  S   S161      1.0  0.69100  0.20330  0.68276  1.0000
  Fe  Fe82      1.0  0.61812  0.19016  0.58783  1.0000
  S   S162      1.0  0.64641  0.17422  0.55621  1.0000
  S   S163      1.0  0.56721  0.19670  0.57234  1.0000
  Fe  Fe83      1.0  0.66250  0.16262  0.60133  1.0000
  S   S164      1.0  0.65719  0.13794  0.61954  1.0000
  Fe  Fe84      1.0  0.68762  0.19087  0.56322  1.0000
  S   S165      1.0  0.71840  0.19703  0.51941  1.0000
  S   S166      1.0  0.63227  0.17779  0.63234  1.0000
  S   S167      1.0  0.65851  0.20748  0.59238  1.0000
  Fe  Fe85      1.0  0.88631  0.18168  0.86222  1.0000
  S   S168      1.0  0.85849  0.17820  0.90748  1.0000
  S   S169      1.0  0.94012  0.17636  0.85983  1.0000
  Fe  Fe86      1.0  0.82379  0.18327  0.82156  1.0000
  S   S170      1.0  0.79279  0.17983  0.86436  1.0000
  S   S171      1.0  0.80794  0.18122  0.76921  1.0000
  Fe  Fe87      1.0  0.82521  0.19679  0.88975  1.0000
  S   S172      1.0  0.80863  0.21801  0.91939  1.0000
  Fe  Fe88      1.0  0.82834  0.16167  0.87920  1.0000
  S   S173      1.0  0.81240  0.13833  0.89853  1.0000
  S   S174      1.0  0.85489  0.20134  0.84546  1.0000
  S   S175      1.0  0.85724  0.16402  0.83522  1.0000
  C   C1072     1.0  0.72232  0.19609  0.70726  1.0000
  C   C1073     1.0  0.72559  0.20174  0.73851  1.0000
  C   C1074     1.0  0.75078  0.19683  0.75830  1.0000
  C   C1075     1.0  0.77354  0.18646  0.74683  1.0000
  C   C1076     1.0  0.77007  0.18067  0.71570  1.0000
  C   C1077     1.0  0.74453  0.18534  0.69612  1.0000
  H   H870      1.0  0.70861  0.21005  0.74743  1.0000
  H   H871      1.0  0.75301  0.20137  0.78209  1.0000
  H   H872      1.0  0.78756  0.17270  0.70646  1.0000
  H   H873      1.0  0.74252  0.18094  0.67214  1.0000
  H   H874      1.0  0.89263  0.21383  0.91471  1.0000
  C   C1078     1.0  0.74019  0.22790  0.51887  1.0000
  C   C1079     1.0  0.97704  0.05426  0.90948  1.0000
  H   H875      1.0  0.57756  0.11506  0.59540  1.0000
  H   H876      1.0  0.73044  0.22901  0.54250  1.0000
  H   H877      1.0  0.75772  0.25147  0.51746  1.0000
  H   H878      1.0  0.74625  0.14453  0.64438  1.0000
  C   C1080     1.0  0.67967  0.16317  0.77604  1.0000
  H   H879      1.0  0.79537  0.09260  0.62184  1.0000
  C   C1081     1.0  0.78548  0.22308  0.95378  1.0000
  H   H880      1.0  0.72569  0.09690  0.66584  1.0000
  C   C1082     1.0  0.78864  0.08583  0.64239  1.0000
  C   C1083     1.0  0.97849  0.18527  0.86292  1.0000
  H   H881      1.0  0.61127  0.21317  0.78537  1.0000
  H   H882      1.0  0.55142  0.08920  0.51150  1.0000
  H   H883      1.0  0.96225  0.20889  0.86337  1.0000
  C   C1084     1.0  0.84704  0.12451  0.77478  1.0000
  C   C1085     1.0  0.52387  0.18242  0.61359  1.0000
  C   C1086     1.0  0.52854  0.19116  0.58600  1.0000
  H   H884      1.0  0.63564  0.27195  0.90853  1.0000
  H   H885      1.0  0.54419  0.17870  0.62734  1.0000
  C   C1087     1.0  0.69287  0.24116  0.94336  1.0000
  C   C1088     1.0  0.69567  0.09239  0.57807  1.0000
  C   C1089     1.0  0.68111  0.09284  0.60777  1.0000
  C   C1090     1.0  0.66983  0.10692  0.62003  1.0000
  C   C1091     1.0  0.67280  0.12075  0.60282  1.0000
  C   C1092     1.0  0.68786  0.12044  0.57329  1.0000
  C   C1093     1.0  0.69938  0.10629  0.56103  1.0000
  H   H886      1.0  0.67897  0.08239  0.62160  1.0000
  H   H887      1.0  0.65952  0.10711  0.64339  1.0000
  H   H888      1.0  0.69043  0.13103  0.55985  1.0000
  H   H889      1.0  0.71085  0.10605  0.53811  1.0000
  H   H890      1.0  0.69007  0.15879  0.79779  1.0000
  H   H891      1.0  0.64365  0.19562  0.74764  1.0000
  H   H892      1.0  0.64431  0.12126  0.71134  1.0000
  C   C1094     1.0  0.54597  0.03084  0.59531  1.0000
  H   H893      1.0  0.55088  0.14814  0.69711  1.0000
  C   C1095     1.0  0.54788  0.15571  0.54270  1.0000
  H   H894      1.0  0.56811  0.02227  0.63789  1.0000
  H   H895      1.0  0.73667  0.21073  0.83686  1.0000
  C   C1096     1.0  0.86238  0.09363  0.86632  1.0000
  C   C1097     1.0  0.87387  0.10820  0.85706  1.0000
  C   C1098     1.0  0.85876  0.12189  0.86683  1.0000
  C   C1099     1.0  0.83203  0.12119  0.88627  1.0000
  C   C1100     1.0  0.82032  0.10660  0.89549  1.0000
  C   C1101     1.0  0.83542  0.09284  0.88552  1.0000
  H   H896      1.0  0.89481  0.10893  0.84251  1.0000
  H   H897      1.0  0.86810  0.13300  0.85966  1.0000
  H   H898      1.0  0.79958  0.10596  0.91047  1.0000
  H   H899      1.0  0.82645  0.08168  0.89296  1.0000
  C   C1102     1.0  0.98428  0.11986  0.82430  1.0000
  C   C1103     1.0  0.90019  0.05407  0.73742  1.0000
  H   H900      1.0  0.95765  0.13798  0.80127  1.0000
  C   C1104     1.0  0.84061  0.10886  0.76865  1.0000
  H   H901      1.0  0.97016  0.03827  0.82181  1.0000
  H   H902      1.0  0.59780  0.06609  0.59885  1.0000
  C   C1105     1.0  0.78614  0.02222  0.75604  1.0000
  C   C1106     1.0  0.78274  0.01653  0.72486  1.0000
  C   C1107     1.0  0.75646  0.02066  0.70580  1.0000
  C   C1108     1.0  0.73276  0.03029  0.71796  1.0000
  C   C1109     1.0  0.73625  0.03610  0.74910  1.0000
  C   C1110     1.0  0.76298  0.03228  0.76790  1.0000
  H   H903      1.0  0.80049  0.00876  0.71538  1.0000
  H   H904      1.0  0.75419  0.01608  0.68196  1.0000
  H   H905      1.0  0.71809  0.04356  0.75878  1.0000
  H   H906      1.0  0.76525  0.03679  0.79178  1.0000
  C   C1111     1.0  0.58954  0.07602  0.66371  1.0000
  C   C1112     1.0  0.51801  0.10515  0.53229  1.0000
  C   C1113     1.0  0.58274  0.06005  0.66515  1.0000
  C   C1114     1.0  0.60077  0.05027  0.68451  1.0000
  C   C1115     1.0  0.62613  0.05624  0.70209  1.0000
  C   C1116     1.0  0.63392  0.07194  0.69985  1.0000
  C   C1117     1.0  0.61583  0.08178  0.68062  1.0000
  H   H907      1.0  0.77506  0.19983  0.96868  1.0000
  H   H908      1.0  0.92572  0.07503  0.72677  1.0000
  H   H909      1.0  0.56396  0.05498  0.65089  1.0000
  H   H910      1.0  0.59559  0.03796  0.68524  1.0000
  H   H911      1.0  0.64035  0.04856  0.71668  1.0000
  H   H912      1.0  0.65444  0.07635  0.71250  1.0000
  H   H913      1.0  0.62286  0.09373  0.67867  1.0000
  C   C1118     1.0  0.63223  0.10922  0.79922  1.0000
  C   C1119     1.0  0.87048  0.04746  0.74304  1.0000
  H   H914      1.0  0.70904  0.23274  0.95342  1.0000
  C   C1120     1.0  0.73109  0.18435  0.92843  1.0000
  C   C1121     1.0  0.72848  0.19759  0.90948  1.0000
  C   C1122     1.0  0.70201  0.20734  0.91207  1.0000
  C   C1123     1.0  0.68124  0.19062  0.95359  1.0000
  C   C1124     1.0  0.62454  0.20715  0.83326  1.0000
  H   H915      1.0  0.60877  0.11509  0.64853  1.0000
  H   H916      1.0  0.66033  0.22682  0.52115  1.0000
  H   H917      1.0  0.82483  0.07519  0.80282  1.0000
  H   H918      1.0  0.75188  0.17701  0.92657  1.0000
  H   H919      1.0  0.74768  0.20037  0.89363  1.0000
  P   P36       1.0  0.96097  0.17616  0.97069  1.0000
  H   H920      1.0  0.79627  0.14097  0.72184  1.0000
  H   H921      1.0  0.89228  0.23976  0.51910  1.0000
  C   C1125     1.0  0.58632  0.11792  0.65932  1.0000
  H   H922      1.0  0.86836  0.03510  0.74735  1.0000
  C   C1126     1.0  0.55480  0.14664  0.59653  1.0000
  C   C1127     1.0  0.56496  0.15567  0.57112  1.0000
  H   H923      1.0  0.85230  0.10009  0.78291  1.0000
  H   H924      1.0  0.56815  0.14687  0.61847  1.0000
  H   H925      1.0  0.58566  0.16295  0.57381  1.0000
  C   C1128     1.0  0.77791  0.18082  0.57603  1.0000
  C   C1129     1.0  0.79353  0.16949  0.59381  1.0000
  C   C1130     1.0  0.81327  0.17385  0.61903  1.0000
  C   C1131     1.0  0.81730  0.18954  0.62653  1.0000
  C   C1132     1.0  0.80072  0.20096  0.60948  1.0000
  C   C1133     1.0  0.78132  0.19649  0.58390  1.0000
  P   P37       1.0  0.80751  0.22128  0.61703  1.0000
  C   C1134     1.0  0.77072  0.23192  0.61579  1.0000
  C   C1135     1.0  0.82261  0.22467  0.65662  1.0000
  C   C1136     1.0  0.84536  0.23626  0.66241  1.0000
  C   C1137     1.0  0.85659  0.23891  0.69328  1.0000
  C   C1138     1.0  0.84478  0.23021  0.71859  1.0000
  C   C1139     1.0  0.82134  0.21906  0.71315  1.0000
  C   C1140     1.0  0.80997  0.21643  0.68237  1.0000
  C   C1141     1.0  0.77044  0.24760  0.60678  1.0000
  C   C1142     1.0  0.74208  0.25600  0.60692  1.0000
  C   C1143     1.0  0.71405  0.24897  0.61709  1.0000
  C   C1144     1.0  0.71440  0.23356  0.62716  1.0000
  C   C1145     1.0  0.74255  0.22500  0.62638  1.0000
  C   C1146     1.0  0.83451  0.22735  0.58629  1.0000
  C   C1147     1.0  0.82272  0.23318  0.55751  1.0000
  C   C1148     1.0  0.84345  0.23781  0.53353  1.0000
  C   C1149     1.0  0.87619  0.23618  0.53772  1.0000
  C   C1150     1.0  0.88811  0.22975  0.56578  1.0000
  C   C1151     1.0  0.86734  0.22523  0.58992  1.0000
  H   H926      1.0  0.76252  0.17747  0.55650  1.0000
  H   H927      1.0  0.79032  0.15734  0.58797  1.0000
  H   H928      1.0  0.82561  0.16507  0.63268  1.0000
  H   H929      1.0  0.83345  0.19267  0.64554  1.0000
  H   H930      1.0  0.76883  0.20510  0.56991  1.0000
  H   H931      1.0  0.85420  0.24338  0.64327  1.0000
  H   H932      1.0  0.87430  0.24778  0.69766  1.0000
  H   H933      1.0  0.81190  0.21246  0.73286  1.0000
  H   H934      1.0  0.79127  0.20798  0.67873  1.0000
  H   H935      1.0  0.79212  0.25340  0.59985  1.0000
  H   H936      1.0  0.74192  0.26803  0.59958  1.0000
  H   H937      1.0  0.69211  0.25550  0.61766  1.0000
  H   H938      1.0  0.69288  0.22827  0.63607  1.0000
  H   H939      1.0  0.74231  0.21311  0.63469  1.0000
  H   H940      1.0  0.79746  0.23412  0.55348  1.0000
  H   H941      1.0  0.53616  0.11381  0.53638  1.0000
  H   H942      1.0  0.83397  0.24257  0.51163  1.0000
  H   H943      1.0  0.91346  0.22825  0.56880  1.0000
  H   H944      1.0  0.87686  0.22003  0.61132  1.0000
  C   C1152     1.0  0.80912  0.13196  0.73436  1.0000
  C   C1153     1.0  0.90271  0.06997  0.73150  1.0000
  C   C1154     1.0  0.92261  0.19756  0.93948  1.0000
  H   H945      1.0  0.74689  0.02298  0.86275  1.0000
  C   C1155     1.0  0.55367  0.13678  0.68641  1.0000
  C   C1156     1.0  0.51078  0.07406  0.66016  1.0000
  C   C1157     1.0  0.96258  0.14144  0.90389  1.0000
  H   H946      1.0  0.95912  0.01386  0.91880  1.0000
  H   H947      1.0  0.74094  0.08184  0.74510  1.0000
  C   C1158     1.0  0.51580  0.07612  0.60302  1.0000
  C   C1159     1.0  0.64587  0.20978  0.85824  1.0000
  C   C1160     1.0  0.67071  0.22051  0.85481  1.0000
  C   C1161     1.0  0.87554  0.07929  0.73154  1.0000
  H   H948      1.0  0.93376  0.06751  0.91200  1.0000
  C   C1162     1.0  0.73724  0.21379  0.50258  1.0000
  H   H949      1.0  0.51064  0.10471  0.66836  1.0000
  C   C1163     1.0  0.70755  0.18090  0.95056  1.0000
  H   H950      1.0  0.90845  0.00489  0.94194  1.0000
  H   H951      1.0  0.82059  0.05139  0.74807  1.0000
  H   H952      1.0  0.76657  0.06021  0.71446  1.0000
  C   C1164     1.0  0.97183  0.15355  0.92403  1.0000
  C   C1165     1.0  0.56068  0.10753  0.65751  1.0000
  C   C1166     1.0  0.65837  0.11834  0.79093  1.0000
  C   C1167     1.0  0.66364  0.12229  0.75905  1.0000
  C   C1168     1.0  0.98713  0.00720  0.95935  1.0000
  P   P38       1.0  0.69607  0.13487  0.74839  1.0000
  C   C1169     1.0  0.67942  0.15412  0.74824  1.0000
  C   C1170     1.0  0.72904  0.13320  0.77553  1.0000
  C   C1171     1.0  0.74818  0.14612  0.78236  1.0000
  C   C1172     1.0  0.77334  0.14482  0.80382  1.0000
  C   C1173     1.0  0.78045  0.13051  0.81745  1.0000
  C   C1174     1.0  0.76247  0.11744  0.80971  1.0000
  C   C1175     1.0  0.73688  0.11874  0.78868  1.0000
  C   C1176     1.0  0.66420  0.15981  0.72096  1.0000
  C   C1177     1.0  0.65090  0.17464  0.72114  1.0000
  C   C1178     1.0  0.65270  0.18388  0.74833  1.0000
  H   H953      1.0  0.72520  0.15250  0.69645  1.0000
  C   C1179     1.0  0.71207  0.12922  0.71050  1.0000
  C   C1180     1.0  0.71314  0.11348  0.70199  1.0000
  C   C1181     1.0  0.72587  0.10901  0.67280  1.0000
  C   C1182     1.0  0.73779  0.12018  0.65203  1.0000
  C   C1183     1.0  0.73752  0.13584  0.66070  1.0000
  C   C1184     1.0  0.72505  0.14034  0.69002  1.0000
  H   H954      1.0  0.67424  0.12240  0.80946  1.0000
  H   H955      1.0  0.74647  0.11671  0.62888  1.0000
  H   H956      1.0  0.74396  0.15721  0.77110  1.0000
  H   H957      1.0  0.78785  0.15485  0.80938  1.0000
  H   H958      1.0  0.80040  0.12952  0.83345  1.0000
  H   H959      1.0  0.76855  0.10633  0.82005  1.0000
  H   H960      1.0  0.72327  0.10851  0.78272  1.0000
  H   H961      1.0  0.66283  0.15292  0.69944  1.0000
  H   H962      1.0  0.64008  0.17926  0.69985  1.0000
  H   H963      1.0  0.70396  0.10465  0.71771  1.0000
  C   C1185     1.0  0.66117  0.26430  0.94998  1.0000
  H   H964      1.0  0.55987  0.00933  0.53406  1.0000
  C   C1186     1.0  0.50993  0.13765  0.56525  1.0000
  C   C1187     1.0  0.64141  0.11776  0.73588  1.0000
  H   H965      1.0  0.64274  0.20349  0.88016  1.0000
  H   H966      1.0  0.85353  0.23219  0.74250  1.0000
  H   H967      1.0  0.63513  0.09398  0.52376  1.0000
  H   H968      1.0  0.70767  0.07410  0.79044  1.0000
  H   H969      1.0  0.60910  0.11727  0.54671  1.0000
  C   C1188     1.0  0.80240  0.11634  0.72837  1.0000
  H   H970      1.0  0.62878  0.06840  0.54973  1.0000
  H   H971      1.0  0.92118  0.04682  0.73760  1.0000
  P   P39       1.0  0.69796  0.22433  0.88719  1.0000
  C   C1189     1.0  0.75221  0.07867  0.76727  1.0000
  C   C1190     1.0  0.66687  0.17811  0.77588  1.0000
  H   H972      1.0  0.87782  0.09150  0.72617  1.0000
  C   C1191     1.0  0.58838  0.10477  0.58574  1.0000
  C   C1192     1.0  0.68324  0.23999  0.91152  1.0000
  C   C1193     1.0  0.73591  0.22972  0.87057  1.0000
  C   C1194     1.0  0.78540  0.07868  0.77022  1.0000
  C   C1195     1.0  0.93768  0.11542  0.79163  1.0000
  C   C1196     1.0  0.89886  0.20884  0.93749  1.0000
  C   C1197     1.0  0.75259  0.24270  0.88198  1.0000
  C   C1198     1.0  0.74896  0.22088  0.84577  1.0000
  H   H973      1.0  0.79184  0.24763  0.94664  1.0000
  C   C1199     1.0  0.77845  0.22483  0.83298  1.0000
  H   H974      1.0  0.73262  0.06737  0.84213  1.0000
  C   C1200     1.0  0.65157  0.26330  0.91821  1.0000
  H   H975      1.0  0.58111  0.99632  0.58130  1.0000
  C   C1201     1.0  0.56225  0.99682  0.53378  1.0000
  C   C1202     1.0  0.61500  0.10886  0.74436  1.0000
  H   H976      1.0  0.62850  0.10605  0.82381  1.0000
  H   H977      1.0  0.51985  0.13071  0.61368  1.0000
  C   C1203     1.0  0.84578  0.07279  0.73842  1.0000
  C   C1204     1.0  0.79497  0.23770  0.84462  1.0000
  H   H978      1.0  0.78889  0.21771  0.81455  1.0000
  H   H979      1.0  0.75731  0.07086  0.61557  1.0000
  H   H980      1.0  0.74340  0.05466  0.66197  1.0000
  H   H981      1.0  0.79520  0.25638  0.87863  1.0000
  C   C1205     1.0  0.60595  0.10604  0.55776  1.0000
  C   C1206     1.0  0.61062  0.10443  0.77593  1.0000
  H   H982      1.0  0.66839  0.18529  0.79695  1.0000
  C   C1207     1.0  0.66259  0.25120  0.89897  1.0000
  C   C1208     1.0  0.62788  0.21517  0.80467  1.0000
  C   C1209     1.0  0.67383  0.22855  0.82599  1.0000
  C   C1210     1.0  0.73324  0.07447  0.79305  1.0000
  H   H983      1.0  0.81821  0.24049  0.83537  1.0000
  C   C1211     1.0  0.59982  0.07730  0.58758  1.0000
  C   C1212     1.0  0.53124  0.11212  0.67005  1.0000
  H   H984      1.0  0.60533  0.19892  0.83611  1.0000
  H   H985      1.0  0.71003  0.17082  0.96569  1.0000
  C   C1213     1.0  0.52687  0.09117  0.51795  1.0000
  C   C1214     1.0  0.76730  0.07354  0.63876  1.0000
  C   C1215     1.0  0.75927  0.06447  0.66495  1.0000
  P   P40       1.0  0.56572  0.08867  0.63894  1.0000
  H   H986      1.0  0.59769  0.10551  0.72654  1.0000
  C   C1216     1.0  0.95833  0.06739  0.90443  1.0000
  C   C1217     1.0  0.65263  0.22579  0.80097  1.0000
  H   H987      1.0  0.65505  0.25067  0.87442  1.0000
  C   C1218     1.0  0.77217  0.06780  0.69484  1.0000
  C   C1219     1.0  0.74724  0.07065  0.82214  1.0000
  C   C1220     1.0  0.84339  0.05676  0.74359  1.0000
  H   H988      1.0  0.83631  0.14819  0.76241  1.0000
  C   C1221     1.0  0.95885  0.00890  0.94237  1.0000
  C   C1222     1.0  0.58295  0.13238  0.67395  1.0000
  H   H989      1.0  0.69256  0.23701  0.82282  1.0000
  C   C1223     1.0  0.98274  0.20136  0.86405  1.0000
  H   H990      1.0  0.86332  0.12773  0.79367  1.0000
  H   H991      1.0  0.92399  0.12708  0.88761  1.0000
  C   C1224     1.0  0.93994  0.09951  0.79739  1.0000
  C   C1225     1.0  0.97092  0.08026  0.88874  1.0000
  H   H992      1.0  0.65273  0.27367  0.96496  1.0000
  C   C1226     1.0  0.90874  0.14347  0.92306  1.0000
  C   C1227     1.0  0.79258  0.08053  0.69902  1.0000
  C   C1228     1.0  0.80151  0.08923  0.67232  1.0000
  C   C1229     1.0  0.58584  0.09043  0.60130  1.0000
  H   H993      1.0  0.99613  0.15748  0.92324  1.0000
  C   C1230     1.0  0.93112  0.13636  0.90347  1.0000
  H   H994      1.0  0.66409  0.00572  0.50403  1.0000
  C   C1231     1.0  0.77768  0.00581  0.88336  1.0000
  H   H995      1.0  0.78172  0.01235  0.90501  1.0000
  C   C1232     1.0  0.78022  0.07106  0.82547  1.0000
  C   C1233     1.0  0.78102  0.23888  0.96141  1.0000
  C   C1234     1.0  0.52734  0.13764  0.59371  1.0000
  H   H996      1.0  0.65793  0.25545  0.52671  1.0000
  H   H997      1.0  0.59024  0.09746  0.78241  1.0000
  H   H998      1.0  0.78406  0.11346  0.71135  1.0000
  C   C1235     1.0  0.52779  0.12668  0.68432  1.0000
  H   H999      1.0  0.65533  0.23195  0.77873  1.0000
  H   H1000     1.0  0.52010  0.07588  0.68387  1.0000
  H   H1001     1.0  0.50473  0.20266  0.54730  1.0000
  P   P41       1.0  0.81024  0.08439  0.73747  1.0000
  C   C1236     1.0  0.79927  0.07500  0.79965  1.0000
  H   H1002     1.0  0.81872  0.09850  0.67449  1.0000
  C   C1237     1.0  0.75574  0.24065  0.50455  1.0000
  C   C1238     1.0  0.81886  0.10464  0.74474  1.0000
  H   H1003     1.0  0.92225  0.09161  0.78786  1.0000
  C   C1239     1.0  0.91788  0.15562  0.94314  1.0000
  C   C1240     1.0  0.78196  0.24668  0.86896  1.0000
  C   C1241     1.0  0.96436  0.09375  0.81655  1.0000
  C   C1242     1.0  0.66321  0.25032  0.50385  1.0000
  C   C1243     1.0  0.62053  0.09295  0.54477  1.0000
  H   H1004     1.0  0.74354  0.24955  0.90148  1.0000
  H   H1005     1.0  0.97969  0.13625  0.88807  1.0000
  H   H1006     1.0  0.96546  0.08137  0.82096  1.0000
  C   C1244     1.0  0.52772  0.07926  0.63351  1.0000
  H   H1007     1.0  0.51680  0.01636  0.66451  1.0000
  C   C1245     1.0  0.83168  0.13605  0.75729  1.0000
  H   H1008     1.0  0.98278  0.20646  0.94500  1.0000
  C   C1246     1.0  0.61715  0.07855  0.55950  1.0000
  C   C1247     1.0  0.51685  0.02112  0.64077  1.0000
  H   H1009     1.0  0.60290  0.14035  0.67460  1.0000
  H   H1010     1.0  0.95582  0.09023  0.88472  1.0000
  C   C1248     1.0  0.54589  0.02448  0.62581  1.0000
  H   H1011     1.0  0.73930  0.00839  0.81242  1.0000
  C   C1249     1.0  0.99212  0.01948  0.84720  1.0000
  C   C1250     1.0  0.94955  0.16071  0.94392  1.0000
  C   C1251     1.0  0.52057  0.14662  0.53960  1.0000
  H   H1012     1.0  0.66328  0.18810  0.97116  1.0000
  H   H1013     1.0  0.93472  0.19396  0.91807  1.0000
  C   C1252     1.0  0.51708  0.03350  0.57967  1.0000
  C   C1253     1.0  0.67838  0.20375  0.93434  1.0000
  C   C1254     1.0  0.99227  0.03338  0.83019  1.0000
  C   C1255     1.0  0.50423  0.07963  0.51239  1.0000
  H   H1014     1.0  0.96704  0.04417  0.92102  1.0000
  H   H1015     1.0  0.50488  0.13022  0.69341  1.0000
  H   H1016     1.0  0.91858  0.11990  0.77707  1.0000
  C   C1256     1.0  0.68184  0.25324  0.96251  1.0000
  C   C1257     1.0  0.93029  0.00386  0.95547  1.0000
  H   H1017     1.0  0.79117  0.06828  0.84808  1.0000
  H   H1018     1.0  0.86343  0.22180  0.96294  1.0000
  H   H1019     1.0  0.51705  0.03852  0.55620  1.0000
  H   H1020     1.0  0.50767  0.14669  0.51733  1.0000
  C   C1258     1.0  0.95974  0.12560  0.80521  1.0000
  C   C1259     1.0  0.75804  0.01179  0.85959  1.0000
  H   H1021     1.0  0.65796  0.21123  0.93719  1.0000
  H   H1022     1.0  0.55562  0.16304  0.52334  1.0000
  H   H1023     1.0  0.88416  0.13972  0.92236  1.0000
  C   C1260     1.0  0.75362  0.00354  0.83136  1.0000
  C   C1261     1.0  0.93047  0.19088  0.96882  1.0000
  C   C1262     1.0  0.67283  0.99461  0.49605  1.0000
  H   H1024     1.0  0.81686  0.20112  0.52148  1.0000
  C   C1263     1.0  0.98670  0.10388  0.83028  1.0000
  C   C1264     1.0  0.66434  0.23420  0.50072  1.0000
  H   H1025     1.0  0.51192  0.02338  0.50733  1.0000
  H   H1026     1.0  0.78387  0.17977  0.49979  1.0000
  C   C1265     1.0  0.99959  0.18400  0.96115  1.0000
  H   H1027     1.0  0.90017  0.16108  0.95800  1.0000
  C   C1266     1.0  0.84390  0.99374  0.96385  1.0000
  C   C1267     1.0  0.88233  0.21331  0.96467  1.0000
  H   H1028     1.0  0.85779  0.21338  0.48833  1.0000
  S   S176      1.0  0.70977  0.99439  0.55116  1.0000
  C   C1268     1.0  0.82055  0.19713  0.49736  1.0000
  C   C1269     1.0  0.77151  0.21200  0.97359  1.0000
  H   H1029     1.0  0.51117  0.06874  0.50157  1.0000
  H   H1030     1.0  0.60568  0.00700  0.48913  1.0000
  C   C1270     1.0  0.92989  0.99735  0.98583  1.0000
  C   C1271     1.0  0.50156  0.19589  0.56863  1.0000
  Fe  Fe89      1.0  0.89312  0.43233  0.34089  1.0000
  S   S177      1.0  0.88663  0.42856  0.39306  1.0000
  S   S178      1.0  0.94015  0.44092  0.32120  1.0000
  Fe  Fe90      1.0  0.82366  0.42418  0.32466  1.0000
  S   S179      1.0  0.81265  0.42010  0.37654  1.0000
  S   S180      1.0  0.78142  0.41895  0.29140  1.0000
  Fe  Fe91      1.0  0.84107  0.44177  0.38736  1.0000
  S   S181      1.0  0.82328  0.46233  0.41753  1.0000
  Fe  Fe92      1.0  0.85906  0.40725  0.37782  1.0000
  S   S182      1.0  0.86995  0.38409  0.40157  1.0000
  S   S183      1.0  0.84874  0.44673  0.33533  1.0000
  S   S184      1.0  0.86882  0.41019  0.32583  1.0000
  Fe  Fe93      1.0  0.62872  0.43661  0.11256  1.0000
  S   S185      1.0  0.62535  0.42177  0.06903  1.0000
  S   S186      1.0  0.58578  0.44971  0.13071  1.0000
  Fe  Fe94      1.0  0.70007  0.43059  0.12081  1.0000
  S   S187      1.0  0.70151  0.41547  0.07700  1.0000
  S   S188      1.0  0.74640  0.43582  0.14740  1.0000
  Fe  Fe95      1.0  0.67036  0.43368  0.05403  1.0000
  S   S189      1.0  0.67451  0.44115  0.00204  1.0000
  Fe  Fe96      1.0  0.65646  0.40506  0.09580  1.0000
  S   S190      1.0  0.64125  0.38002  0.10306  1.0000
  S   S191      1.0  0.67216  0.44954  0.09630  1.0000
  S   S192      1.0  0.65663  0.41923  0.14085  1.0000
  H   H1031     1.0  0.85184  0.62059  0.47818  1.0000
  H   H1032     1.0  0.94590  0.49822  0.43714  1.0000
  C   C1272     1.0  0.67220  0.47329  0.00821  1.0000
  C   C1273     1.0  0.93548  0.62801  0.43563  1.0000
  H   H1033     1.0  0.67006  0.47139  0.03346  1.0000
  C   C1274     1.0  0.83817  0.47156  0.45257  1.0000
  C   C1275     1.0  0.82572  0.48605  0.46172  1.0000
  C   C1276     1.0  0.52539  0.37375  0.09614  1.0000
  H   H1034     1.0  0.80753  0.49139  0.44725  1.0000
  C   C1277     1.0  0.53958  0.37803  0.02732  1.0000
  C   C1278     1.0  0.77291  0.42285  0.25067  1.0000
  C   C1279     1.0  0.74220  0.41981  0.23887  1.0000
  C   C1280     1.0  0.73397  0.42321  0.20711  1.0000
  C   C1281     1.0  0.75623  0.43000  0.18684  1.0000
  C   C1282     1.0  0.78708  0.43276  0.19846  1.0000
  C   C1283     1.0  0.79551  0.42897  0.22998  1.0000
  H   H1035     1.0  0.72451  0.41497  0.25451  1.0000
  H   H1036     1.0  0.71019  0.42093  0.19858  1.0000
  H   H1037     1.0  0.80461  0.43788  0.18301  1.0000
  H   H1038     1.0  0.81944  0.43088  0.23839  1.0000
  C   C1284     1.0  0.54741  0.42526  0.11352  1.0000
  C   C1285     1.0  0.54875  0.44032  0.12558  1.0000
  H   H1039     1.0  0.68453  0.53085  0.06008  1.0000
  H   H1040     1.0  0.56897  0.41925  0.10729  1.0000
  C   C1286     1.0  0.52033  0.44779  0.13415  1.0000
  H   H1041     1.0  0.68932  0.38677  0.18563  1.0000
  C   C1287     1.0  0.97628  0.43446  0.33832  1.0000
  C   C1288     1.0  0.51745  0.48501  0.08781  1.0000
  C   C1289     1.0  0.94642  0.47026  0.38619  1.0000
  H   H1042     1.0  0.95440  0.42071  0.37473  1.0000
  C   C1290     1.0  0.81965  0.33835  0.37538  1.0000
  C   C1291     1.0  0.80788  0.35256  0.36408  1.0000
  C   C1292     1.0  0.82350  0.36661  0.37125  1.0000
  C   C1293     1.0  0.85072  0.36660  0.39031  1.0000
  C   C1294     1.0  0.86254  0.35238  0.40154  1.0000
  C   C1295     1.0  0.84730  0.33829  0.39383  1.0000
  H   H1043     1.0  0.78640  0.35271  0.34997  1.0000
  H   H1044     1.0  0.81408  0.37750  0.36274  1.0000
  H   H1045     1.0  0.88341  0.35227  0.41649  1.0000
  H   H1046     1.0  0.50964  0.51473  0.01527  1.0000
  C   C1296     1.0  0.69233  0.33517  0.07385  1.0000
  C   C1297     1.0  0.66839  0.33505  0.09671  1.0000
  C   C1298     1.0  0.65321  0.34892  0.10540  1.0000
  C   C1299     1.0  0.66179  0.36307  0.09146  1.0000
  C   C1300     1.0  0.68592  0.36328  0.06878  1.0000
  C   C1301     1.0  0.70120  0.34937  0.06011  1.0000
  C   C1302     1.0  0.74603  0.38538  0.11614  1.0000
  H   H1047     1.0  0.63499  0.34874  0.12331  1.0000
  H   H1048     1.0  0.69261  0.37410  0.05772  1.0000
  H   H1049     1.0  0.71978  0.34958  0.04247  1.0000
  H   H1050     1.0  0.86780  0.48009  0.10687  1.0000
  C   C1303     1.0  0.55605  0.37828  0.10531  1.0000
  H   H1051     1.0  0.58754  0.48745  0.02871  1.0000
  H   H1052     1.0  0.97283  0.39892  0.32723  1.0000
  C   C1304     1.0  0.97358  0.45477  0.43826  1.0000
  H   H1053     1.0  0.63156  0.38989  0.18095  1.0000
  H   H1054     1.0  0.70886  0.38225  0.24365  1.0000
  C   C1305     1.0  0.67964  0.49428  0.08977  1.0000
  H   H1055     1.0  0.66364  0.48680  0.10279  1.0000
  H   H1056     1.0  0.56313  0.44136  0.04741  1.0000
  C   C1306     1.0  0.93740  0.50554  0.48520  1.0000
  C   C1307     1.0  0.99184  0.45811  0.41129  1.0000
  C   C1308     1.0  0.95749  0.61610  0.42991  1.0000
  C   C1309     1.0  0.56798  0.34518  0.05184  1.0000
  C   C1310     1.0  0.86139  0.46475  0.47180  1.0000
  C   C1311     1.0  0.67075  0.50948  0.08260  1.0000
  C   C1312     1.0  0.75344  0.44866  0.00567  1.0000
  C   C1313     1.0  0.94735  0.33419  0.40422  1.0000
  H   H1057     1.0  0.73597  0.38622  0.09253  1.0000
  H   H1058     1.0  0.93340  0.64368  0.36133  1.0000
  H   H1059     1.0  0.71490  0.36696  0.12995  1.0000
  C   C1314     1.0  0.82396  0.48462  0.08211  1.0000
  H   H1060     1.0  0.85644  0.32743  0.40274  1.0000
  H   H1061     1.0  0.85516  0.65313  0.21129  1.0000
  H   H1062     1.0  0.92261  0.36244  0.37434  1.0000
  H   H1063     1.0  0.59588  0.36713  0.18618  1.0000
  C   C1315     1.0  0.94124  0.40431  0.44145  1.0000
  C   C1316     1.0  0.67416  0.37671  0.18854  1.0000
  C   C1317     1.0  0.56792  0.48696  0.04518  1.0000
  H   H1064     1.0  0.90318  0.47022  0.41329  1.0000
  H   H1065     1.0  0.91011  0.64723  0.41419  1.0000
  H   H1066     1.0  0.75370  0.42585  0.02624  1.0000
  C   C1318     1.0  0.54868  0.48338  0.09861  1.0000
  H   H1067     1.0  0.74142  0.34312  0.13507  1.0000
  H   H1068     1.0  0.77832  0.40450  0.10968  1.0000
  C   C1319     1.0  0.94909  0.41954  0.44961  1.0000
  H   H1069     1.0  0.91105  0.34596  0.32481  1.0000
  C   C1320     1.0  0.64131  0.37855  0.18602  1.0000
  H   H1070     1.0  0.91788  0.40169  0.43205  1.0000
  C   C1321     1.0  0.68640  0.45458  0.19646  1.0000
  C   C1322     1.0  0.65827  0.45164  0.21275  1.0000
  C   C1323     1.0  0.65618  0.45517  0.24507  1.0000
  C   C1324     1.0  0.68214  0.46173  0.26099  1.0000
  C   C1325     1.0  0.71059  0.46472  0.24478  1.0000
  C   C1326     1.0  0.71248  0.46103  0.21234  1.0000
  P   P42       1.0  0.74286  0.47452  0.26517  1.0000
  C   C1327     1.0  0.78067  0.47140  0.24598  1.0000
  C   C1328     1.0  0.73580  0.49518  0.26538  1.0000
  C   C1329     1.0  0.76134  0.50550  0.26943  1.0000
  C   C1330     1.0  0.75613  0.52151  0.26983  1.0000
  C   C1331     1.0  0.72543  0.52735  0.26615  1.0000
  C   C1332     1.0  0.69991  0.51717  0.26206  1.0000
  C   C1333     1.0  0.70501  0.50115  0.26170  1.0000
  C   C1334     1.0  0.80519  0.46334  0.26150  1.0000
  C   C1335     1.0  0.83497  0.46187  0.24728  1.0000
  C   C1336     1.0  0.84034  0.46811  0.21721  1.0000
  C   C1337     1.0  0.81613  0.47615  0.20162  1.0000
  C   C1338     1.0  0.78661  0.47804  0.21616  1.0000
  C   C1339     1.0  0.74565  0.46742  0.30543  1.0000
  C   C1340     1.0  0.74000  0.45169  0.31170  1.0000
  C   C1341     1.0  0.74500  0.44572  0.34214  1.0000
  C   C1342     1.0  0.75571  0.45540  0.36654  1.0000
  C   C1343     1.0  0.76121  0.47109  0.36058  1.0000
  C   C1344     1.0  0.75623  0.47712  0.33015  1.0000
  H   H1071     1.0  0.68825  0.45161  0.17153  1.0000
  H   H1072     1.0  0.63818  0.44658  0.20028  1.0000
  H   H1073     1.0  0.63438  0.45284  0.25773  1.0000
  H   H1074     1.0  0.67995  0.46458  0.28595  1.0000
  H   H1075     1.0  0.73407  0.46277  0.19913  1.0000
  H   H1076     1.0  0.78526  0.50116  0.27261  1.0000
  H   H1077     1.0  0.77592  0.52938  0.27319  1.0000
  H   H1078     1.0  0.72140  0.53975  0.26659  1.0000
  H   H1079     1.0  0.67608  0.52170  0.25929  1.0000
  H   H1080     1.0  0.68487  0.49352  0.25859  1.0000
  H   H1081     1.0  0.80150  0.45798  0.28440  1.0000
  H   H1082     1.0  0.85364  0.45551  0.25936  1.0000
  H   H1083     1.0  0.86321  0.46657  0.20599  1.0000
  H   H1084     1.0  0.82015  0.48085  0.17819  1.0000
  H   H1085     1.0  0.76833  0.48459  0.20405  1.0000
  H   H1086     1.0  0.73300  0.44385  0.29280  1.0000
  H   H1087     1.0  0.74179  0.43343  0.34644  1.0000
  H   H1088     1.0  0.76063  0.45067  0.38989  1.0000
  H   H1089     1.0  0.77035  0.47844  0.37946  1.0000
  H   H1090     1.0  0.76154  0.48919  0.32599  1.0000
  C   C1345     1.0  0.96356  0.39251  0.44487  1.0000
  H   H1091     1.0  0.80103  0.40257  0.16386  1.0000
  H   H1092     1.0  0.92612  0.38971  0.35758  1.0000
  C   C1346     1.0  0.77004  0.39556  0.12569  1.0000
  H   H1093     1.0  0.59797  0.48256  0.08570  1.0000
  C   C1347     1.0  0.62125  0.36572  0.18882  1.0000
  C   C1348     1.0  0.78008  0.50034  0.01336  1.0000
  C   C1349     1.0  0.54738  0.37148  0.99781  1.0000
  H   H1094     1.0  0.80785  0.35816  0.28406  1.0000
  H   H1095     1.0  0.54049  0.39186  0.17950  1.0000
  C   C1350     1.0  0.79322  0.50634  0.10167  1.0000
  C   C1351     1.0  0.53524  0.34722  0.05664  1.0000
  P   P43       1.0  0.76763  0.49063  0.04931  1.0000
  C   C1352     1.0  0.63404  0.35104  0.19442  1.0000
  C   C1353     1.0  0.92690  0.63793  0.41063  1.0000
  H   H1096     1.0  0.98876  0.63370  0.47479  1.0000
  C   C1354     1.0  0.92816  0.46717  0.41302  1.0000
  H   H1097     1.0  0.92689  0.45687  0.45911  1.0000
  H   H1098     1.0  0.73665  0.52110  0.04298  1.0000
  H   H1099     1.0  0.91177  0.50525  0.48276  1.0000
  C   C1355     1.0  0.68727  0.36198  0.19407  1.0000
  H   H1100     1.0  0.78202  0.37939  0.31406  1.0000
  C   C1356     1.0  0.99471  0.36132  0.33783  1.0000
  H   H1101     1.0  0.78530  0.34938  0.23287  1.0000
  C   C1357     1.0  0.97653  0.42450  0.36446  1.0000
  C   C1358     1.0  0.95478  0.34523  0.42764  1.0000
  C   C1359     1.0  0.75707  0.43814  0.03054  1.0000
  C   C1360     1.0  0.57388  0.48431  0.07732  1.0000
  H   H1102     1.0  0.54180  0.39895  0.05579  1.0000
  C   C1361     1.0  0.94532  0.38179  0.35213  1.0000
  C   C1362     1.0  0.66690  0.34916  0.19710  1.0000
  C   C1363     1.0  0.54797  0.39350  0.03360  1.0000
  H   H1103     1.0  0.76615  0.43535  0.08055  1.0000
  H   H1104     1.0  0.87055  0.45345  0.46558  1.0000
  C   C1364     1.0  0.90209  0.59921  0.47342  1.0000
  H   H1105     1.0  0.73271  0.39125  0.29388  1.0000
  C   C1365     1.0  0.56497  0.40207  0.01123  1.0000
  H   H1106     1.0  0.67622  0.33764  0.20104  1.0000
  C   C1366     1.0  0.53307  0.44970  0.00959  1.0000
  H   H1107     1.0  0.58507  0.38871  0.14158  1.0000
  C   C1367     1.0  0.88170  0.65702  0.46801  1.0000
  H   H1108     1.0  0.78160  0.38290  0.20098  1.0000
  C   C1368     1.0  0.73438  0.37432  0.13729  1.0000
  H   H1109     1.0  0.97106  0.35460  0.42246  1.0000
  C   C1369     1.0  0.94171  0.45955  0.43898  1.0000
  H   H1110     1.0  0.77272  0.51386  0.10048  1.0000
  C   C1370     1.0  0.97832  0.46592  0.38551  1.0000
  H   H1111     1.0  0.53251  0.48968  0.00896  1.0000
  H   H1112     1.0  0.93561  0.47555  0.36549  1.0000
  P   P44       1.0  0.96458  0.33567  0.36519  1.0000
  C   C1371     1.0  0.74330  0.38169  0.28102  1.0000
  C   C1372     1.0  0.77129  0.37504  0.29238  1.0000
  C   C1373     1.0  0.78592  0.36316  0.27528  1.0000
  C   C1374     1.0  0.77279  0.35808  0.24652  1.0000
  C   C1375     1.0  0.74432  0.36454  0.23513  1.0000
  C   C1376     1.0  0.72986  0.37651  0.25250  1.0000
  P   P45       1.0  0.72989  0.35961  0.19589  1.0000
  C   C1377     1.0  0.74718  0.37306  0.16796  1.0000
  C   C1378     1.0  0.73852  0.33958  0.18607  1.0000
  H   H1113     1.0  0.97218  0.62259  0.35164  1.0000
  C   C1379     1.0  0.99362  0.39587  0.45723  1.0000
  H   H1114     1.0  0.54073  0.35965  0.99225  1.0000
  C   C1380     1.0  0.56152  0.38461  0.13540  1.0000
  C   C1381     1.0  0.56208  0.44759  0.02506  1.0000
  C   C1382     1.0  0.77161  0.38324  0.17729  1.0000
  C   C1383     1.0  0.78285  0.39447  0.15623  1.0000
  C   C1384     1.0  0.76394  0.44350  0.06112  1.0000
  H   H1115     1.0  0.57204  0.41388  0.01653  1.0000
  H   H1116     1.0  0.67137  0.49824  0.01211  1.0000
  H   H1117     1.0  0.82746  0.47517  0.06548  1.0000
  H   H1118     1.0  0.93137  0.42846  0.44667  1.0000
  H   H1119     1.0  0.55341  0.48094  0.12342  1.0000
  C   C1385     1.0  0.70908  0.48862  0.07986  1.0000
  C   C1386     1.0  0.76386  0.47006  0.04185  1.0000
  C   C1387     1.0  0.85264  0.63299  0.47452  1.0000
  C   C1388     1.0  0.84697  0.48742  0.10544  1.0000
  H   H1120     1.0  0.89597  0.60100  0.44871  1.0000
  H   H1121     1.0  0.57562  0.37733  0.08885  1.0000
  C   C1389     1.0  0.67470  0.46057  0.98775  1.0000
  C   C1390     1.0  0.53372  0.33726  0.14423  1.0000
  C   C1391     1.0  0.95666  0.50152  0.45957  1.0000
  C   C1392     1.0  0.69146  0.51909  0.06581  1.0000
  C   C1393     1.0  0.97950  0.42316  0.46108  1.0000
  P   P46       1.0  0.51865  0.36655  0.05638  1.0000
  H   H1122     1.0  0.57782  0.34769  0.12962  1.0000
  C   C1394     1.0  0.97062  0.61415  0.39973  1.0000
  C   C1395     1.0  0.56574  0.33700  0.13567  1.0000
  C   C1396     1.0  0.84322  0.49970  0.12678  1.0000
  C   C1397     1.0  0.94009  0.63595  0.38047  1.0000
  C   C1398     1.0  0.50603  0.38137  0.14818  1.0000
  H   H1123     1.0  0.80167  0.63506  0.47466  1.0000
  H   H1124     1.0  0.52111  0.45936  0.14396  1.0000
  C   C1399     1.0  0.81633  0.50913  0.12494  1.0000
  H   H1125     1.0  0.96462  0.60837  0.44885  1.0000
  H   H1126     1.0  0.73285  0.50149  0.99325  1.0000
  C   C1400     1.0  0.98972  0.50193  0.46271  1.0000
  H   H1127     1.0  0.64780  0.51380  0.08999  1.0000
  H   H1128     1.0  0.61244  0.45156  0.02328  1.0000
  C   C1401     1.0  0.81230  0.50347  0.00775  1.0000
  H   H1129     1.0  0.86117  0.50191  0.14475  1.0000
  C   C1402     1.0  0.94348  0.36630  0.36170  1.0000
  C   C1403     1.0  0.72096  0.51347  0.05595  1.0000
  H   H1130     1.0  0.71540  0.47680  0.08556  1.0000
  P   P47       1.0  0.98942  0.44308  0.47032  1.0000
  C   C1404     1.0  0.96800  0.35588  0.35430  1.0000
  H   H1131     1.0  0.75271  0.47245  0.99172  1.0000
  C   C1405     1.0  0.94112  0.34426  0.45778  1.0000
  C   C1406     1.0  0.75664  0.46456  0.01125  1.0000
  C   C1407     1.0  0.67285  0.48850  0.99601  1.0000
  H   H1132     1.0  0.58345  0.35504  0.04798  1.0000
  C   C1408     1.0  0.99654  0.37685  0.32849  1.0000
  C   C1409     1.0  0.82403  0.64116  0.47246  1.0000
  C   C1410     1.0  0.72980  0.49809  0.06249  1.0000
  P   P48       1.0  0.91895  0.63050  0.47488  1.0000
  C   C1411     1.0  0.58981  0.45345  0.01161  1.0000
  H   H1133     1.0  0.52133  0.34819  0.14455  1.0000
  H   H1134     1.0  0.51732  0.40598  0.10163  1.0000
  C   C1412     1.0  0.51815  0.41767  0.11048  1.0000
  C   C1413     1.0  0.97167  0.38701  0.33523  1.0000
  C   C1414     1.0  0.53648  0.38630  0.15675  1.0000
  H   H1135     1.0  0.77163  0.46328  0.09092  1.0000
  C   C1415     1.0  0.79682  0.49402  0.08011  1.0000
  H   H1136     1.0  0.94648  0.35298  0.47555  1.0000
  H   H1137     1.0  0.88922  0.57498  0.47233  1.0000
  H   H1138     1.0  0.81345  0.51867  0.14146  1.0000
  C   C1416     1.0  0.53668  0.48836  0.03417  1.0000
  C   C1417     1.0  0.88173  0.64089  0.47264  1.0000
  C   C1418     1.0  0.58125  0.33033  0.05228  1.0000
  C   C1419     1.0  0.96194  0.62407  0.37501  1.0000
  C   C1420     1.0  0.51634  0.33423  0.06343  1.0000
  H   H1139     1.0  0.95741  0.38083  0.43774  1.0000
  C   C1421     1.0  0.76714  0.45939  0.06685  1.0000
  C   C1422     1.0  0.74215  0.33487  0.15431  1.0000
  H   H1140     1.0  0.61857  0.34105  0.19616  1.0000
  C   C1423     1.0  0.73876  0.32826  0.21007  1.0000
  H   H1141     1.0  0.73505  0.33144  0.23465  1.0000
  H   H1142     1.0  0.98761  0.60496  0.39550  1.0000
  C   C1424     1.0  0.89850  0.58444  0.48657  1.0000
  H   H1143     1.0  0.60655  0.32883  0.04862  1.0000
  H   H1144     1.0  0.51175  0.44482  0.01974  1.0000
  H   H1145     1.0  0.99213  0.46786  0.36423  1.0000
  H   H1146     1.0  0.50997  0.34656  0.20152  1.0000
  C   C1425     1.0  0.92022  0.33216  0.46483  1.0000
  C   C1426     1.0  0.91500  0.33373  0.32086  1.0000
  C   C1427     1.0  0.51119  0.48775  0.05553  1.0000
  H   H1147     1.0  0.87603  0.33201  0.28779  1.0000
  H   H1148     1.0  0.83025  0.50047  0.02505  1.0000
  C   C1428     1.0  0.82423  0.65723  0.46813  1.0000
  C   C1429     1.0  0.75768  0.50408  0.98985  1.0000
  C   C1430     1.0  0.89499  0.32584  0.29973  1.0000
  S   S193      1.0  0.85742  0.64156  0.59819  1.0000
  S   S194      1.0  0.71608  0.63845  0.88963  1.0000
  Fe  Fe97      1.0  0.67646  0.52013  0.89881  1.0000
  S   S195      1.0  0.67862  0.50671  0.85302  1.0000
  S   S196      1.0  0.67963  0.51073  0.94972  1.0000
  Fe  Fe98      1.0  0.66101  0.55088  0.86385  1.0000
  S   S197      1.0  0.66146  0.53939  0.81596  1.0000
  S   S198      1.0  0.64195  0.57549  0.86346  1.0000
  Fe  Fe99      1.0  0.63462  0.52018  0.83980  1.0000
  S   S199      1.0  0.58976  0.50906  0.82051  1.0000
  Fe  Fe100     1.0  0.70537  0.52727  0.83302  1.0000
  S   S200      1.0  0.75207  0.52634  0.80527  1.0000
  S   S201      1.0  0.63113  0.53239  0.88639  1.0000
  S   S202      1.0  0.70656  0.53992  0.88022  1.0000
  Fe  Fe101     1.0  0.84482  0.55363  0.57047  1.0000
  S   S203      1.0  0.85116  0.55565  0.62308  1.0000
  S   S204      1.0  0.82949  0.57452  0.54132  1.0000
  Fe  Fe102     1.0  0.86175  0.51877  0.56958  1.0000
  S   S205      1.0  0.86915  0.51874  0.62297  1.0000
  S   S206      1.0  0.87540  0.49624  0.54331  1.0000
  Fe  Fe103     1.0  0.82457  0.53318  0.62612  1.0000
  S   S207      1.0  0.77954  0.53045  0.65621  1.0000
  Fe  Fe104     1.0  0.89507  0.54128  0.61516  1.0000
  S   S208      1.0  0.94098  0.55024  0.63692  1.0000
  S   S209      1.0  0.81555  0.53179  0.57318  1.0000
  S   S210      1.0  0.89029  0.54060  0.56219  1.0000
  C   C1431     1.0  0.75852  0.52892  0.76383  1.0000
  C   C1432     1.0  0.73424  0.52705  0.74142  1.0000
  C   C1433     1.0  0.74109  0.52777  0.70866  1.0000
  C   C1434     1.0  0.77222  0.53039  0.69785  1.0000
  C   C1435     1.0  0.79629  0.53278  0.72027  1.0000
  C   C1436     1.0  0.78944  0.53205  0.75304  1.0000
  H   H1149     1.0  0.71040  0.52458  0.74934  1.0000
  H   H1150     1.0  0.72224  0.52596  0.69154  1.0000
  H   H1151     1.0  0.82025  0.53498  0.71238  1.0000
  H   H1152     1.0  0.80835  0.53365  0.77017  1.0000
  C   C1437     1.0  0.67254  0.59716  0.73618  1.0000
  C   C1438     1.0  0.55634  0.52384  0.92986  1.0000
  H   H1153     1.0  0.53168  0.50549  0.90628  1.0000
  H   H1154     1.0  0.67869  0.45353  0.93877  1.0000
  H   H1155     1.0  0.95791  0.52152  0.60508  1.0000
  C   C1439     1.0  0.55548  0.53367  0.84367  1.0000
  C   C1440     1.0  0.55467  0.51828  0.83324  1.0000
  H   H1156     1.0  0.51494  0.64168  0.82816  1.0000
  H   H1157     1.0  0.57760  0.54003  0.84363  1.0000
  H   H1158     1.0  0.58683  0.40199  0.96513  1.0000
  C   C1441     1.0  0.67756  0.47852  0.94264  1.0000
  C   C1442     1.0  0.67597  0.49125  0.96322  1.0000
  H   H1159     1.0  0.62752  0.58691  0.74850  1.0000
  H   H1160     1.0  0.67980  0.48040  0.91736  1.0000
  C   C1443     1.0  0.00046  0.64833  0.51416  1.0000
  H   H1161     1.0  0.72428  0.61800  0.81720  1.0000
  C   C1444     1.0  0.66814  0.63567  0.68661  1.0000
  H   H1162     1.0  0.61028  0.46602  0.97297  1.0000
  C   C1445     1.0  0.97948  0.52701  0.61330  1.0000
  H   H1163     1.0  0.98394  0.65816  0.64975  1.0000
  C   C1446     1.0  0.69623  0.62094  0.88041  1.0000
  C   C1447     1.0  0.70934  0.60680  0.89044  1.0000
  C   C1448     1.0  0.69377  0.59265  0.88415  1.0000
  C   C1449     1.0  0.66448  0.59263  0.86846  1.0000
  C   C1450     1.0  0.65160  0.60676  0.85803  1.0000
  C   C1451     1.0  0.66754  0.62084  0.86366  1.0000
  H   H1164     1.0  0.73140  0.60684  0.90360  1.0000
  H   H1165     1.0  0.70386  0.58185  0.89240  1.0000
  H   H1166     1.0  0.62902  0.60687  0.84580  1.0000
  H   H1167     1.0  0.65724  0.63164  0.85576  1.0000
  C   C1452     1.0  0.84970  0.62328  0.58090  1.0000
  C   C1453     1.0  0.83322  0.62150  0.55226  1.0000
  C   C1454     1.0  0.82708  0.60651  0.54020  1.0000
  C   C1455     1.0  0.83764  0.59327  0.55658  1.0000
  C   C1456     1.0  0.85455  0.59517  0.58492  1.0000
  C   C1457     1.0  0.86038  0.61007  0.59707  1.0000
  H   H1168     1.0  0.82491  0.63165  0.53976  1.0000
  H   H1169     1.0  0.81402  0.60513  0.51822  1.0000
  H   H1170     1.0  0.86337  0.58519  0.59748  1.0000
  H   H1171     1.0  0.87313  0.61136  0.61927  1.0000
  C   C1458     1.0  0.59963  0.45437  0.90705  1.0000
  C   C1459     1.0  0.58842  0.46183  0.98325  1.0000
  C   C1460     1.0  0.74963  0.63630  0.61371  1.0000
  C   C1461     1.0  0.73839  0.65161  0.61601  1.0000
  P   P49       1.0  0.75503  0.62493  0.64947  1.0000
  C   C1462     1.0  0.75280  0.60430  0.64133  1.0000
  C   C1463     1.0  0.79348  0.62934  0.66638  1.0000
  C   C1464     1.0  0.81079  0.61790  0.68264  1.0000
  C   C1465     1.0  0.84057  0.62137  0.69560  1.0000
  C   C1466     1.0  0.72786  0.59515  0.65312  1.0000
  C   C1467     1.0  0.72701  0.57918  0.64700  1.0000
  C   C1468     1.0  0.75093  0.57224  0.62902  1.0000
  C   C1469     1.0  0.77602  0.58121  0.61768  1.0000
  C   C1470     1.0  0.77718  0.59709  0.62416  1.0000
  H   H1172     1.0  0.56855  0.53674  0.77524  1.0000
  H   H1173     1.0  0.80151  0.60626  0.68517  1.0000
  H   H1174     1.0  0.85413  0.61241  0.70745  1.0000
  H   H1175     1.0  0.70922  0.60016  0.66729  1.0000
  H   H1176     1.0  0.70794  0.57212  0.65629  1.0000
  H   H1177     1.0  0.75042  0.55986  0.62434  1.0000
  H   H1178     1.0  0.79467  0.57582  0.60386  1.0000
  H   H1179     1.0  0.79720  0.60378  0.61579  1.0000
  C   C1471     1.0  0.79333  0.57094  0.70465  1.0000
  C   C1472     1.0  0.94654  0.44130  0.55737  1.0000
  C   C1473     1.0  0.94024  0.45690  0.56377  1.0000
  C   C1474     1.0  0.94921  0.46830  0.54207  1.0000
  H   H1180     1.0  0.91010  0.65019  0.53101  1.0000
  H   H1181     1.0  0.79346  0.65342  0.65165  1.0000
  C   C1475     1.0  0.96147  0.43706  0.52906  1.0000
  H   H1182     1.0  0.88993  0.46692  0.51416  1.0000
  C   C1476     1.0  0.96419  0.46411  0.51378  1.0000
  C   C1477     1.0  0.56562  0.49648  0.94069  1.0000
  C   C1478     1.0  0.74772  0.63949  0.80697  1.0000
  C   C1479     1.0  0.55337  0.60288  0.81503  1.0000
  H   H1183     1.0  0.75559  0.63671  0.71532  1.0000
  C   C1480     1.0  0.55918  0.46461  0.96817  1.0000
  C   C1481     1.0  0.52560  0.51028  0.83276  1.0000
  H   H1184     1.0  0.66335  0.60321  0.71564  1.0000
  C   C1482     1.0  0.56455  0.57669  0.79733  1.0000
  H   H1185     1.0  0.62987  0.48206  0.84133  1.0000
  C   C1483     1.0  0.74331  0.62349  0.80409  1.0000
  H   H1186     1.0  0.71991  0.60590  0.73030  1.0000
  C   C1484     1.0  0.82601  0.57152  0.71004  1.0000
  C   C1485     1.0  0.90592  0.58192  0.51848  1.0000
  C   C1486     1.0  0.76373  0.61462  0.78508  1.0000
  H   H1187     1.0  0.84928  0.40637  0.66003  1.0000
  C   C1487     1.0  0.53124  0.60455  0.79052  1.0000
  H   H1188     1.0  0.92810  0.46012  0.58539  1.0000
  C   C1488     1.0  0.93522  0.64976  0.52567  1.0000
  C   C1489     1.0  0.53157  0.45814  0.98125  1.0000
  H   H1189     1.0  0.55652  0.59086  0.70740  1.0000
  C   C1490     1.0  0.65239  0.58801  0.75461  1.0000
  H   H1190     1.0  0.77534  0.54836  0.85075  1.0000
  H   H1191     1.0  0.92928  0.65274  0.63019  1.0000
  H   H1192     1.0  0.59115  0.44637  0.92485  1.0000
  C   C1491     1.0  0.57330  0.39536  0.98224  1.0000
  H   H1193     1.0  0.61690  0.51945  0.98252  1.0000
  H   H1194     1.0  0.55800  0.61241  0.83122  1.0000
  H   H1195     1.0  0.78425  0.56473  0.68416  1.0000
  H   H1196     1.0  0.64855  0.57347  0.79587  1.0000
  H   H1197     1.0  0.70444  0.57632  0.81134  1.0000
  C   C1492     1.0  0.57226  0.64247  0.89097  1.0000
  H   H1198     1.0  0.61398  0.62904  0.90167  1.0000
  H   H1199     1.0  0.94365  0.48036  0.54670  1.0000
  C   C1493     1.0  0.57573  0.55355  0.73764  1.0000
  C   C1494     1.0  0.67562  0.64080  0.71724  1.0000
  C   C1495     1.0  0.61316  0.53332  0.75221  1.0000
  C   C1496     1.0  0.63443  0.53864  0.72936  1.0000
  C   C1497     1.0  0.62653  0.55140  0.71062  1.0000
  C   C1498     1.0  0.59725  0.55878  0.71458  1.0000
  H   H1200     1.0  0.84658  0.51294  0.97519  1.0000
  H   H1201     1.0  0.97913  0.49495  0.64694  1.0000
  C   C1499     1.0  0.52249  0.62820  0.88829  1.0000
  C   C1500     1.0  0.78735  0.49610  0.60485  1.0000
  C   C1501     1.0  0.53777  0.58505  0.69429  1.0000
  H   H1202     1.0  0.77531  0.49272  0.55555  1.0000
  H   H1203     1.0  0.65245  0.45562  0.84614  1.0000
  C   C1502     1.0  0.58023  0.52790  0.95136  1.0000
  C   C1503     1.0  0.54318  0.57847  0.77194  1.0000
  C   C1504     1.0  0.98899  0.65716  0.53944  1.0000
  H   H1204     1.0  0.65707  0.53288  0.72631  1.0000
  H   H1205     1.0  0.64313  0.55551  0.69296  1.0000
  H   H1206     1.0  0.90233  0.57058  0.52886  1.0000
  H   H1207     1.0  0.58596  0.58743  0.83834  1.0000
  H   H1208     1.0  0.52482  0.49838  0.82463  1.0000
  H   H1209     1.0  0.99021  0.55982  0.57037  1.0000
  P   P50       1.0  0.53790  0.56312  0.74310  1.0000
  C   C1505     1.0  0.70715  0.64094  0.72746  1.0000
  C   C1506     1.0  0.99884  0.62531  0.60693  1.0000
  C   C1507     1.0  0.91954  0.60903  0.52452  1.0000
  C   C1508     1.0  0.76684  0.58461  0.81968  1.0000
  C   C1509     1.0  0.77992  0.58577  0.87591  1.0000
  C   C1510     1.0  0.77307  0.59328  0.84730  1.0000
  C   C1511     1.0  0.62316  0.44943  0.88602  1.0000
  H   H1210     1.0  0.82649  0.59087  0.78041  1.0000
  H   H1211     1.0  0.78426  0.59254  0.89720  1.0000
  H   H1212     1.0  0.77251  0.60580  0.84720  1.0000
  C   C1512     1.0  0.79908  0.47794  0.73940  1.0000
  C   C1513     1.0  0.81003  0.49207  0.75153  1.0000
  C   C1514     1.0  0.83406  0.50010  0.73580  1.0000
  C   C1515     1.0  0.84668  0.49423  0.70762  1.0000
  C   C1516     1.0  0.83650  0.47982  0.69575  1.0000
  C   C1517     1.0  0.81227  0.47180  0.71164  1.0000
  P   P51       1.0  0.85238  0.47247  0.65888  1.0000
  C   C1518     1.0  0.82794  0.47902  0.62620  1.0000
  C   C1519     1.0  0.89296  0.47906  0.65467  1.0000
  C   C1520     1.0  0.91319  0.47964  0.68128  1.0000
  C   C1521     1.0  0.94420  0.48525  0.67841  1.0000
  C   C1522     1.0  0.95531  0.49029  0.64898  1.0000
  C   C1523     1.0  0.93549  0.48958  0.62236  1.0000
  C   C1524     1.0  0.90451  0.48394  0.62514  1.0000
  C   C1525     1.0  0.82983  0.47159  0.59654  1.0000
  H   H1213     1.0  0.58648  0.53998  0.95480  1.0000
  C   C1526     1.0  0.96775  0.62219  0.59671  1.0000
  H   H1214     1.0  0.97910  0.56626  0.51409  1.0000
  C   C1527     1.0  0.80646  0.49130  0.63019  1.0000
  C   C1528     1.0  0.85165  0.45151  0.65946  1.0000
  C   C1529     1.0  0.82398  0.44353  0.65029  1.0000
  C   C1530     1.0  0.82319  0.42732  0.65046  1.0000
  C   C1531     1.0  0.84994  0.41894  0.65991  1.0000
  C   C1532     1.0  0.87750  0.42676  0.66923  1.0000
  C   C1533     1.0  0.87840  0.44298  0.66903  1.0000
  H   H1215     1.0  0.78008  0.47187  0.75138  1.0000
  H   H1216     1.0  0.84234  0.51111  0.74503  1.0000
  H   H1217     1.0  0.86412  0.50107  0.69500  1.0000
  H   H1218     1.0  0.80317  0.46096  0.70248  1.0000
  H   H1219     1.0  0.90486  0.47594  0.70436  1.0000
  H   H1220     1.0  0.95950  0.48597  0.69909  1.0000
  C   C1534     1.0  0.97943  0.64807  0.63502  1.0000
  H   H1221     1.0  0.94384  0.49376  0.59964  1.0000
  H   H1222     1.0  0.88949  0.48380  0.60431  1.0000
  H   H1223     1.0  0.84653  0.46225  0.59270  1.0000
  C   C1535     1.0  0.74395  0.65491  0.55922  1.0000
  H   H1224     1.0  0.52648  0.60372  0.89981  1.0000
  C   C1536     1.0  0.94290  0.63204  0.60517  1.0000
  H   H1225     1.0  0.80453  0.49738  0.65262  1.0000
  H   H1226     1.0  0.80295  0.44984  0.64302  1.0000
  H   H1227     1.0  0.59172  0.56854  0.69959  1.0000
  H   H1228     1.0  0.80180  0.42127  0.64322  1.0000
  H   H1229     1.0  0.89821  0.42026  0.67664  1.0000
  H   H1230     1.0  0.90000  0.44875  0.67636  1.0000
  C   C1537     1.0  0.81061  0.47641  0.57130  1.0000
  C   C1538     1.0  0.73130  0.63601  0.70718  1.0000
  H   H1231     1.0  0.63291  0.43786  0.88809  1.0000
  C   C1539     1.0  0.51470  0.46709  0.88465  1.0000
  C   C1540     1.0  0.83787  0.57878  0.73729  1.0000
  C   C1541     1.0  0.63423  0.45942  0.86246  1.0000
  P   P52       1.0  0.55754  0.47623  0.93230  1.0000
  H   H1232     1.0  0.52857  0.55285  0.86206  1.0000
  C   C1542     1.0  0.66424  0.58042  0.78137  1.0000
  H   H1233     1.0  0.84207  0.56602  0.69343  1.0000
  C   C1543     1.0  0.77484  0.56091  0.84978  1.0000
  C   C1544     1.0  0.69224  0.63066  0.66627  1.0000
  C   C1545     1.0  0.86012  0.48702  0.50840  1.0000
  C   C1546     1.0  0.51880  0.47486  0.91372  1.0000
  C   C1547     1.0  0.81703  0.58553  0.75905  1.0000
  C   C1548     1.0  0.85299  0.63635  0.69301  1.0000
  P   P53       1.0  0.75777  0.59388  0.78231  1.0000
  C   C1549     1.0  0.52760  0.54095  0.85392  1.0000
  H   H1234     1.0  0.80638  0.51975  0.93428  1.0000
  H   H1235     1.0  0.57077  0.37491  0.95294  1.0000
  H   H1236     1.0  0.54391  0.53278  0.91676  1.0000
  C   C1550     1.0  0.52431  0.57126  0.70586  1.0000
  C   C1551     1.0  0.69618  0.58202  0.78998  1.0000
  C   C1552     1.0  0.83561  0.64787  0.67751  1.0000
  C   C1553     1.0  0.67705  0.46328  0.95488  1.0000
  H   H1237     1.0  0.73230  0.64619  0.82224  1.0000
  H   H1238     1.0  0.86320  0.57892  0.74176  1.0000
  H   H1239     1.0  0.68626  0.62696  0.64237  1.0000
  H   H1240     1.0  0.91906  0.62960  0.59699  1.0000
  C   C1554     1.0  0.54926  0.50823  0.92425  1.0000
  C   C1555     1.0  0.95115  0.51017  0.51392  1.0000
  C   C1556     1.0  0.70453  0.59871  0.74459  1.0000
  H   H1241     1.0  0.76322  0.56139  0.80016  1.0000
  H   H1242     1.0  0.51837  0.61533  0.78794  1.0000
  C   C1557     1.0  0.98951  0.57492  0.52964  1.0000
  C   C1558     1.0  0.57181  0.61485  0.90082  1.0000
  H   H1243     1.0  0.50155  0.53187  0.96933  1.0000
  C   C1559     1.0  0.96991  0.44843  0.50682  1.0000
  H   H1244     1.0  0.96613  0.42492  0.52448  1.0000
  H   H1245     1.0  0.93612  0.51354  0.53361  1.0000
  C   C1560     1.0  0.53886  0.61456  0.89645  1.0000
  C   C1561     1.0  0.91640  0.59420  0.53744  1.0000
  C   C1562     1.0  0.82173  0.51052  0.97939  1.0000
  C   C1563     1.0  0.78062  0.56960  0.87721  1.0000
  H   H1246     1.0  0.64375  0.63585  0.67847  1.0000
  H   H1247     1.0  0.76250  0.63527  0.53379  1.0000
  H   H1248     1.0  0.74953  0.51394  0.94362  1.0000
  H   H1249     1.0  0.50888  0.45949  0.96969  1.0000
  H   H1250     1.0  0.52710  0.65301  0.88172  1.0000
  C   C1564     1.0  0.95640  0.65790  0.54514  1.0000
  H   H1251     1.0  0.92661  0.61846  0.53985  1.0000
  C   C1565     1.0  0.77186  0.64688  0.79017  1.0000
  C   C1566     1.0  0.78416  0.58534  0.75341  1.0000
  C   C1567     1.0  0.58755  0.46953  0.90508  1.0000
  C   C1568     1.0  0.97784  0.54131  0.62889  1.0000
  C   C1569     1.0  0.50802  0.53422  0.74613  1.0000
  C   C1570     1.0  0.58849  0.62878  0.89800  1.0000
  C   C1571     1.0  0.78955  0.48873  0.57538  1.0000
  H   H1252     1.0  0.96242  0.61206  0.58256  1.0000
  H   H1253     1.0  0.57752  0.56597  0.80071  1.0000
  H   H1254     1.0  0.78544  0.56378  0.89947  1.0000
  C   C1572     1.0  0.94870  0.64505  0.62407  1.0000
  C   C1573     1.0  0.77239  0.57778  0.72622  1.0000
  C   C1574     1.0  0.56432  0.38010  0.97544  1.0000
  C   C1575     1.0  0.71663  0.59112  0.77147  1.0000
  H   H1255     1.0  0.81274  0.47090  0.54824  1.0000
  C   C1576     1.0  0.79914  0.51436  0.95632  1.0000
  C   C1577     1.0  0.72401  0.63069  0.67652  1.0000
  C   C1578     1.0  0.78797  0.62214  0.76819  1.0000
  H   H1256     1.0  0.81039  0.64402  0.75738  1.0000
  H   H1257     1.0  0.93956  0.43247  0.57420  1.0000
  C   C1579     1.0  0.53938  0.64222  0.88653  1.0000
  C   C1580     1.0  0.98416  0.51050  0.51723  1.0000
  C   C1581     1.0  0.52587  0.59234  0.76927  1.0000
  H   H1258     1.0  0.77118  0.50575  0.60798  1.0000
  H   H1259     1.0  0.58454  0.60428  0.90659  1.0000
  H   H1260     1.0  0.58946  0.49112  0.87895  1.0000
  C   C1582     1.0  0.76795  0.56835  0.82113  1.0000
  H   H1261     1.0  0.76754  0.61893  0.58096  1.0000
  C   C1583     1.0  0.87225  0.47243  0.49945  1.0000
  C   C1584     1.0  0.59865  0.47944  0.88123  1.0000
  C   C1585     1.0  0.58421  0.54087  0.75676  1.0000
  H   H1262     1.0  0.92110  0.59226  0.56244  1.0000
  H   H1263     1.0  0.80364  0.61577  0.75278  1.0000
  H   H1264     1.0  0.53449  0.46148  0.87305  1.0000
  H   H1265     1.0  0.99442  0.51434  0.53955  1.0000
  C   C1586     1.0  0.59006  0.50072  0.96175  1.0000
  C   C1587     1.0  0.75820  0.63048  0.58375  1.0000
  C   C1588     1.0  0.62173  0.47435  0.85989  1.0000
  H   H1266     1.0  0.74719  0.57675  0.72189  1.0000
  H   H1267     1.0  0.61929  0.52340  0.76673  1.0000
  H   H1268     1.0  0.79947  0.49697  0.77277  1.0000
  C   C1589     1.0  0.79196  0.63821  0.77073  1.0000
  C   C1590     1.0  0.59720  0.51634  0.96714  1.0000
  H   H1269     1.0  0.87621  0.63903  0.70268  1.0000
  H   H1270     1.0  0.53753  0.60213  0.65698  1.0000
  C   C1591     1.0  0.94647  0.64110  0.49979  1.0000
  C   C1592     1.0  0.80605  0.64438  0.66414  1.0000
  H   H1271     1.0  0.99745  0.60209  0.65344  1.0000
  C   C1593     1.0  0.56947  0.58886  0.81879  1.0000
  C   C1594     1.0  0.76714  0.51110  0.96156  1.0000
  H   H1272     1.0  0.97083  0.47306  0.49711  1.0000
  H   H1273     1.0  0.60460  0.49210  0.97317  1.0000
  H   H1274     1.0  0.82689  0.50491  0.49588  1.0000
  C   C1595     1.0  0.99579  0.57128  0.56133  1.0000
  C   C1596     1.0  0.52705  0.59150  0.66577  1.0000
  C   C1597     1.0  0.75532  0.63976  0.55669  1.0000
  H   H1275     1.0  0.65719  0.64497  0.73298  1.0000
  H   H1276     1.0  0.71293  0.64532  0.75091  1.0000
  C   C1598     1.0  0.50279  0.58426  0.64855  1.0000
  H   H1277     1.0  0.74688  0.44452  0.98223  1.0000
  C   C1599     1.0  0.99645  0.58974  0.51817  1.0000
  C   C1600     1.0  0.83663  0.49376  0.48937  1.0000
  C   C1601     1.0  0.97931  0.64035  0.49432  1.0000
  H   H1278     1.0  0.52608  0.53012  0.72997  1.0000
  H   H1279     1.0  0.99124  0.59259  0.49371  1.0000
  C   C1602     1.0  0.91300  0.61159  0.49226  1.0000
  H   H1280     1.0  0.58518  0.65331  0.88906  1.0000
  H   H1281     1.0  0.90932  0.33149  0.48802  1.0000
  C   C1603     1.0  0.50857  0.54956  0.75750  1.0000
  H   H1282     1.0  0.50833  0.59380  0.75068  1.0000
  H   H1283     1.0  0.73260  0.65664  0.63886  1.0000
  Fe  Fe105     1.0  0.82585  0.75733  0.05513  1.0000
  S   S211      1.0  0.85894  0.75199  0.09636  1.0000
  S   S212      1.0  0.80758  0.73651  0.02514  1.0000
  Fe  Fe106     1.0  0.83229  0.79228  0.06753  1.0000
  S   S213      1.0  0.86570  0.78935  0.10850  1.0000
  S   S214      1.0  0.81280  0.81564  0.05208  1.0000
  Fe  Fe107     1.0  0.89041  0.77137  0.07874  1.0000
  S   S215      1.0  0.94418  0.77076  0.06732  1.0000
  Fe  Fe108     1.0  0.83199  0.77041  0.12384  1.0000
  S   S216      1.0  0.82138  0.77122  0.17753  1.0000
  S   S217      1.0  0.85881  0.77566  0.03607  1.0000
  S   S218      1.0  0.79713  0.77432  0.08408  1.0000
  Fe  Fe109     1.0  0.69910  0.76722  0.38901  1.0000
  S   S219      1.0  0.66528  0.75411  0.35673  1.0000
  S   S220      1.0  0.72573  0.75844  0.43418  1.0000
  Fe  Fe110     1.0  0.68560  0.79813  0.35328  1.0000
  S   S221      1.0  0.65161  0.78671  0.31952  1.0000
  S   S222      1.0  0.69560  0.82310  0.33893  1.0000
  Fe  Fe111     1.0  0.63129  0.77443  0.36195  1.0000
  S   S223      1.0  0.57886  0.77554  0.37900  1.0000
  Fe  Fe112     1.0  0.68830  0.76784  0.31662  1.0000
  S   S224      1.0  0.70054  0.75925  0.26636  1.0000
  S   S225      1.0  0.66407  0.78694  0.39613  1.0000
  S   S226      1.0  0.72341  0.77980  0.34853  1.0000
  Fe  Fe113     1.0  0.66239  0.90927  0.37895  1.0000
  S   S227      1.0  0.65784  0.91080  0.32590  1.0000
  S   S228      1.0  0.65928  0.88666  0.40635  1.0000
  Fe  Fe114     1.0  0.66534  0.94477  0.38844  1.0000
  S   S229      1.0  0.66171  0.94858  0.33554  1.0000
  S   S230      1.0  0.65959  0.96676  0.41875  1.0000
  Fe  Fe115     1.0  0.62366  0.93024  0.33629  1.0000
  S   S231      1.0  0.57719  0.93337  0.30935  1.0000
  Fe  Fe116     1.0  0.69628  0.92884  0.32948  1.0000
  S   S232      1.0  0.74227  0.92871  0.30017  1.0000
  S   S233      1.0  0.62548  0.92742  0.38902  1.0000
  S   S234      1.0  0.70281  0.92634  0.38270  1.0000
  Fe  Fe117     1.0  0.85405  0.93390  0.05747  1.0000
  S   S235      1.0  0.85398  0.94653  0.10424  1.0000
  S   S236      1.0  0.85365  0.94452  0.00709  1.0000
  Fe  Fe118     1.0  0.86953  0.90242  0.09081  1.0000
  S   S237      1.0  0.87175  0.91344  0.13927  1.0000
  S   S238      1.0  0.88725  0.87754  0.08744  1.0000
  Fe  Fe119     1.0  0.82729  0.92593  0.12433  1.0000
  S   S239      1.0  0.78082  0.92614  0.15312  1.0000
  Fe  Fe120     1.0  0.89832  0.93277  0.11503  1.0000
  S   S240      1.0  0.94399  0.94459  0.13119  1.0000
  S   S241      1.0  0.82404  0.91405  0.07624  1.0000
  S   S242      1.0  0.89909  0.92091  0.06800  1.0000
  H   H1284     1.0  0.98377  0.97677  0.10305  1.0000
  H   H1285     1.0  0.78331  0.91996  0.38521  1.0000
  H   H1286     1.0  0.54933  0.85339  0.31984  1.0000
  H   H1287     1.0  0.55684  0.86426  0.48275  1.0000
  H   H1288     1.0  0.95835  0.91470  0.10251  1.0000
  C   C1604     1.0  0.54067  0.92973  0.32860  1.0000
  C   C1605     1.0  0.53980  0.92418  0.35971  1.0000
  H   H1289     1.0  0.86603  0.85599  0.21660  1.0000
  H   H1290     1.0  0.56160  0.92220  0.37247  1.0000
  C   C1606     1.0  0.81188  0.82906  0.35638  1.0000
  C   C1607     1.0  0.75258  0.92715  0.25924  1.0000
  C   C1608     1.0  0.78436  0.92960  0.25032  1.0000
  C   C1609     1.0  0.79370  0.92886  0.21817  1.0000
  C   C1610     1.0  0.77125  0.92581  0.19438  1.0000
  C   C1611     1.0  0.73956  0.92310  0.20339  1.0000
  C   C1612     1.0  0.73031  0.92362  0.23557  1.0000
  H   H1291     1.0  0.80186  0.93227  0.26837  1.0000
  H   H1292     1.0  0.81812  0.93104  0.21173  1.0000
  H   H1293     1.0  0.72197  0.92074  0.18525  1.0000
  H   H1294     1.0  0.70589  0.92151  0.24200  1.0000
  C   C1613     1.0  0.87826  0.67526  0.20563  1.0000
  C   C1614     1.0  0.67367  0.97388  0.45598  1.0000
  H   H1295     1.0  0.92190  0.80313  0.05026  1.0000
  H   H1296     1.0  0.82171  0.92061  0.34073  1.0000
  C   C1615     1.0  0.52085  0.85382  0.25863  1.0000
  H   H1297     1.0  0.78727  0.98251  0.27308  1.0000
  C   C1616     1.0  0.76560  0.71512  0.44795  1.0000
  C   C1617     1.0  0.53949  0.77473  0.36264  1.0000
  C   C1618     1.0  0.51353  0.77850  0.38224  1.0000
  C   C1619     1.0  0.53319  0.77009  0.33136  1.0000
  H   H1298     1.0  0.51800  0.78224  0.40636  1.0000
  H   H1299     1.0  0.55270  0.76716  0.31586  1.0000
  C   C1620     1.0  0.66845  0.86893  0.38734  1.0000
  C   C1621     1.0  0.67634  0.86844  0.35518  1.0000
  C   C1622     1.0  0.68388  0.85423  0.34073  1.0000
  C   C1623     1.0  0.68376  0.84038  0.35816  1.0000
  C   C1624     1.0  0.67540  0.84079  0.39023  1.0000
  C   C1625     1.0  0.66782  0.85505  0.40478  1.0000
  H   H1300     1.0  0.67702  0.87899  0.34148  1.0000
  H   H1301     1.0  0.68997  0.85398  0.31589  1.0000
  H   H1302     1.0  0.67556  0.83020  0.40394  1.0000
  H   H1303     1.0  0.66203  0.85537  0.42975  1.0000
  C   C1626     1.0  0.93435  0.75232  0.99626  1.0000
  H   H1304     1.0  0.59563  0.96118  0.40012  1.0000
  H   H1305     1.0  0.81845  0.81934  0.37127  1.0000
  C   C1627     1.0  0.54598  0.75321  0.45741  1.0000
  H   H1306     1.0  0.85951  0.83793  0.35289  1.0000
  C   C1628     1.0  0.73298  0.76449  0.24130  1.0000
  C   C1629     1.0  0.76053  0.77159  0.25305  1.0000
  C   C1630     1.0  0.78697  0.77389  0.23300  1.0000
  C   C1631     1.0  0.78616  0.76938  0.20083  1.0000
  C   C1632     1.0  0.75811  0.76291  0.18879  1.0000
  C   C1633     1.0  0.73189  0.76036  0.20894  1.0000
  H   H1307     1.0  0.76191  0.77479  0.27785  1.0000
  H   H1308     1.0  0.80843  0.77893  0.24269  1.0000
  H   H1309     1.0  0.75680  0.75952  0.16414  1.0000
  H   H1310     1.0  0.71077  0.75486  0.19952  1.0000
  C   C1634     1.0  0.83287  0.83282  0.06331  1.0000
  C   C1635     1.0  0.86407  0.83236  0.07448  1.0000
  C   C1636     1.0  0.88050  0.84620  0.08091  1.0000
  C   C1637     1.0  0.86544  0.86064  0.07774  1.0000
  C   C1638     1.0  0.83386  0.86114  0.06745  1.0000
  C   C1639     1.0  0.81777  0.84726  0.05985  1.0000
  H   H1311     1.0  0.87579  0.82132  0.07752  1.0000
  H   H1312     1.0  0.90491  0.84572  0.08891  1.0000
  H   H1313     1.0  0.82205  0.87220  0.06492  1.0000
  H   H1314     1.0  0.79360  0.84771  0.05123  1.0000
  H   H1315     1.0  0.54466  0.84925  0.26086  1.0000
  C   C1640     1.0  0.68032  0.97291  0.26241  1.0000
  C   C1641     1.0  0.62265  0.97324  0.26260  1.0000
  H   H1316     1.0  0.62636  0.82447  0.35026  1.0000
  C   C1642     1.0  0.78031  0.97731  0.25069  1.0000
  C   C1643     1.0  0.74991  0.72791  0.43372  1.0000
  C   C1644     1.0  0.74510  0.74167  0.45085  1.0000
  C   C1645     1.0  0.70623  0.86268  0.15324  1.0000
  H   H1317     1.0  0.74154  0.72713  0.40947  1.0000
  C   C1646     1.0  0.78012  0.83132  0.34809  1.0000
  H   H1318     1.0  0.82866  0.97351  0.23593  1.0000
  H   H1319     1.0  0.92345  0.93577  0.00988  1.0000
  C   C1647     1.0  0.55340  0.85033  0.41658  1.0000
  H   H1320     1.0  0.52276  0.78784  0.22414  1.0000
  C   C1648     1.0  0.55926  0.84193  0.32280  1.0000
  H   H1321     1.0  0.84960  0.71480  0.44119  1.0000
  H   H1322     1.0  0.99147  0.82548  0.11210  1.0000
  C   C1649     1.0  0.93834  0.95843  0.02530  1.0000
  H   H1323     1.0  0.75771  0.75391  0.99046  1.0000
  C   C1650     1.0  0.51372  0.75238  0.44989  1.0000
  H   H1324     1.0  0.80248  0.66280  0.19380  1.0000
  C   C1651     1.0  0.72637  0.97876  0.31097  1.0000
  C   C1652     1.0  0.62211  0.95734  0.25614  1.0000
  C   C1653     1.0  0.51065  0.92080  0.37415  1.0000
  C   C1654     1.0  0.97730  0.83753  0.02882  1.0000
  H   H1325     1.0  0.88123  0.72589  0.02377  1.0000
  H   H1326     1.0  0.70798  0.88684  0.16668  1.0000
  C   C1655     1.0  0.56455  0.87581  0.47631  1.0000
  C   C1656     1.0  0.78082  0.81515  0.27002  1.0000
  C   C1657     1.0  0.75035  0.81054  0.27887  1.0000
  C   C1658     1.0  0.72539  0.81140  0.25707  1.0000
  C   C1659     1.0  0.73093  0.81672  0.22624  1.0000
  C   C1660     1.0  0.76167  0.82098  0.21684  1.0000
  C   C1661     1.0  0.78647  0.82050  0.23924  1.0000
  P   P54       1.0  0.76840  0.82792  0.17695  1.0000
  C   C1662     1.0  0.75343  0.81454  0.14744  1.0000
  C   C1663     1.0  0.74878  0.84650  0.17387  1.0000
  C   C1664     1.0  0.76085  0.85939  0.19039  1.0000
  C   C1665     1.0  0.72093  0.84819  0.15576  1.0000
  C   C1666     1.0  0.75463  0.81867  0.11525  1.0000
  C   C1667     1.0  0.74229  0.80873  0.09203  1.0000
  C   C1668     1.0  0.72906  0.79451  0.10070  1.0000
  C   C1669     1.0  0.72870  0.79009  0.13258  1.0000
  C   C1670     1.0  0.74120  0.79996  0.15587  1.0000
  C   C1671     1.0  0.81040  0.82936  0.16916  1.0000
  C   C1672     1.0  0.82972  0.81632  0.17387  1.0000
  C   C1673     1.0  0.86241  0.81724  0.16882  1.0000
  C   C1674     1.0  0.87600  0.83112  0.15856  1.0000
  C   C1675     1.0  0.85683  0.84405  0.15316  1.0000
  C   C1676     1.0  0.82407  0.84313  0.15779  1.0000
  H   H1327     1.0  0.80006  0.81454  0.28708  1.0000
  H   H1328     1.0  0.74594  0.80633  0.30267  1.0000
  H   H1329     1.0  0.70179  0.80783  0.26421  1.0000
  H   H1330     1.0  0.71132  0.81732  0.20961  1.0000
  H   H1331     1.0  0.81018  0.82420  0.23317  1.0000
  H   H1332     1.0  0.78184  0.85825  0.20501  1.0000
  H   H1333     1.0  0.71054  0.83840  0.14345  1.0000
  H   H1334     1.0  0.76546  0.82951  0.10801  1.0000
  H   H1335     1.0  0.74385  0.81191  0.06720  1.0000
  H   H1336     1.0  0.72005  0.78672  0.08259  1.0000
  H   H1337     1.0  0.71925  0.77889  0.13924  1.0000
  H   H1338     1.0  0.74168  0.79599  0.18019  1.0000
  H   H1339     1.0  0.81945  0.80539  0.18139  1.0000
  H   H1340     1.0  0.87705  0.80705  0.17230  1.0000
  H   H1341     1.0  0.90124  0.83176  0.15394  1.0000
  H   H1342     1.0  0.86727  0.85474  0.14450  1.0000
  H   H1343     1.0  0.80974  0.85311  0.15191  1.0000
  C   C1677     1.0  0.55396  0.97065  0.37794  1.0000
  H   H1344     1.0  0.60039  0.85693  0.43299  1.0000
  H   H1345     1.0  0.85302  0.67762  0.46273  1.0000
  H   H1346     1.0  0.75985  0.96022  0.30225  1.0000
  C   C1678     1.0  0.65165  0.98100  0.26600  1.0000
  C   C1679     1.0  0.76336  0.96432  0.19217  1.0000
  H   H1347     1.0  0.70476  0.95480  0.46655  1.0000
  C   C1680     1.0  0.67952  0.95688  0.25696  1.0000
  C   C1681     1.0  0.87463  0.69077  0.19674  1.0000
  C   C1682     1.0  0.84516  0.69618  0.18577  1.0000
  C   C1683     1.0  0.81903  0.68607  0.18542  1.0000
  P   P55       1.0  0.83981  0.71633  0.17594  1.0000
  C   C1684     1.0  0.82420  0.72522  0.21145  1.0000
  C   C1685     1.0  0.87647  0.72480  0.16232  1.0000
  C   C1686     1.0  0.88455  0.74016  0.17005  1.0000
  C   C1687     1.0  0.91207  0.74687  0.15763  1.0000
  C   C1688     1.0  0.93136  0.73840  0.13700  1.0000
  C   C1689     1.0  0.92320  0.72321  0.12879  1.0000
  C   C1690     1.0  0.89576  0.71646  0.14122  1.0000
  C   C1691     1.0  0.79129  0.72565  0.21656  1.0000
  C   C1692     1.0  0.77916  0.73182  0.24472  1.0000
  C   C1693     1.0  0.79971  0.73756  0.26801  1.0000
  C   C1694     1.0  0.83250  0.73688  0.26343  1.0000
  C   C1695     1.0  0.84475  0.73053  0.23544  1.0000
  C   C1696     1.0  0.81302  0.71841  0.14274  1.0000
  C   C1697     1.0  0.81086  0.70686  0.11926  1.0000
  C   C1698     1.0  0.79065  0.70885  0.09315  1.0000
  C   C1699     1.0  0.77276  0.72240  0.09021  1.0000
  C   C1700     1.0  0.77550  0.73410  0.11302  1.0000
  C   C1701     1.0  0.79581  0.73217  0.13901  1.0000
  H   H1348     1.0  0.89475  0.69855  0.19863  1.0000
  H   H1349     1.0  0.79577  0.69021  0.17838  1.0000
  H   H1350     1.0  0.86911  0.74718  0.18466  1.0000
  H   H1351     1.0  0.91781  0.75884  0.16306  1.0000
  H   H1352     1.0  0.95218  0.74371  0.12666  1.0000
  H   H1353     1.0  0.93782  0.71683  0.11221  1.0000
  H   H1354     1.0  0.88924  0.70486  0.13381  1.0000
  H   H1355     1.0  0.77487  0.72128  0.19886  1.0000
  H   H1356     1.0  0.75371  0.73243  0.24832  1.0000
  H   H1357     1.0  0.79008  0.74267  0.28946  1.0000
  H   H1358     1.0  0.84838  0.74133  0.28155  1.0000
  H   H1359     1.0  0.87020  0.72983  0.23254  1.0000
  H   H1360     1.0  0.82514  0.69647  0.12072  1.0000
  H   H1361     1.0  0.78938  0.70011  0.07468  1.0000
  C   C1702     1.0  0.58465  0.81254  0.33390  1.0000
  H   H1362     1.0  0.76250  0.74483  0.11011  1.0000
  H   H1363     1.0  0.79862  0.74151  0.15592  1.0000
  H   H1364     1.0  0.68511  0.86398  0.13876  1.0000
  C   C1703     1.0  0.98043  0.92075  0.10672  1.0000
  C   C1704     1.0  0.69497  0.88263  0.26251  1.0000
  C   C1705     1.0  0.68408  0.86881  0.24896  1.0000
  C   C1706     1.0  0.70327  0.85561  0.24948  1.0000
  C   C1707     1.0  0.73329  0.85620  0.26370  1.0000
  C   C1708     1.0  0.74405  0.86991  0.27812  1.0000
  C   C1709     1.0  0.72491  0.88324  0.27685  1.0000
  P   P56       1.0  0.78360  0.87098  0.29454  1.0000
  C   C1710     1.0  0.79453  0.85415  0.31760  1.0000
  C   C1711     1.0  0.80954  0.87413  0.26110  1.0000
  C   C1712     1.0  0.83073  0.86256  0.25100  1.0000
  C   C1713     1.0  0.84954  0.86489  0.22413  1.0000
  C   C1714     1.0  0.84670  0.87855  0.20657  1.0000
  C   C1715     1.0  0.82510  0.88991  0.21594  1.0000
  C   C1716     1.0  0.80658  0.88773  0.24309  1.0000
  C   C1717     1.0  0.77143  0.84385  0.32891  1.0000
  C   C1718     1.0  0.78438  0.88657  0.32308  1.0000
  C   C1719     1.0  0.76299  0.88621  0.34854  1.0000
  C   C1720     1.0  0.76285  0.89813  0.37102  1.0000
  C   C1721     1.0  0.78400  0.91053  0.36820  1.0000
  C   C1722     1.0  0.80565  0.91088  0.34314  1.0000
  C   C1723     1.0  0.80603  0.89889  0.32071  1.0000
  H   H1365     1.0  0.68033  0.89295  0.26190  1.0000
  H   H1366     1.0  0.66084  0.86834  0.23795  1.0000
  H   H1367     1.0  0.69488  0.84491  0.23891  1.0000
  H   H1368     1.0  0.74802  0.84596  0.26361  1.0000
  H   H1369     1.0  0.73304  0.89416  0.28676  1.0000
  H   H1370     1.0  0.86097  0.88029  0.18546  1.0000
  H   H1371     1.0  0.82251  0.90036  0.20185  1.0000
  H   H1372     1.0  0.78955  0.89655  0.24973  1.0000
  H   H1373     1.0  0.76206  0.82344  0.35675  1.0000
  H   H1374     1.0  0.74662  0.84552  0.32347  1.0000
  H   H1375     1.0  0.74615  0.87677  0.35088  1.0000
  H   H1376     1.0  0.74593  0.89784  0.39035  1.0000
  H   H1377     1.0  0.82299  0.89941  0.30156  1.0000
  C   C1724     1.0  0.56846  0.89669  0.43809  1.0000
  P   P57       1.0  0.50147  0.83031  0.30004  1.0000
  H   H1378     1.0  0.95646  0.75786  0.00306  1.0000
  H   H1379     1.0  0.76908  0.70464  0.43427  1.0000
  H   H1380     1.0  0.90064  0.82563  0.02035  1.0000
  C   C1725     1.0  0.55412  0.81396  0.32138  1.0000
  C   C1726     1.0  0.58118  0.88578  0.33724  1.0000
  C   C1727     1.0  0.57530  0.87955  0.36722  1.0000
  H   H1381     1.0  0.56383  0.90155  0.41488  1.0000
  H   H1382     1.0  0.97814  0.80252  0.06641  1.0000
  H   H1383     1.0  0.99234  0.84720  0.02246  1.0000
  H   H1384     1.0  0.83331  0.97445  0.03438  1.0000
  C   C1728     1.0  0.74809  0.97541  0.24297  1.0000
  H   H1385     1.0  0.60539  0.88789  0.32985  1.0000
  H   H1386     1.0  0.59523  0.87687  0.38262  1.0000
  C   C1729     1.0  0.58511  0.90563  0.46034  1.0000
  C   C1730     1.0  0.55594  0.88967  0.31722  1.0000
  H   H1387     1.0  0.59965  0.95126  0.25426  1.0000
  H   H1388     1.0  0.65010  0.93672  0.24967  1.0000
  C   C1731     1.0  0.82627  0.85212  0.32701  1.0000
  C   C1732     1.0  0.78041  0.73165  0.99361  1.0000
  C   C1733     1.0  0.94283  0.94264  0.01947  1.0000
  C   C1734     1.0  0.74619  0.87387  0.18768  1.0000
  C   C1735     1.0  0.92016  0.99169  0.06266  1.0000
  H   H1389     1.0  0.83239  0.85160  0.26326  1.0000
  H   H1390     1.0  0.62158  0.83028  0.43174  1.0000
  H   H1391     1.0  0.84426  0.86038  0.31988  1.0000
  C   C1736     1.0  0.71900  0.87554  0.16900  1.0000
  C   C1737     1.0  0.65054  0.94915  0.25342  1.0000
  C   C1738     1.0  0.54403  0.87720  0.37757  1.0000
  H   H1392     1.0  0.75590  0.88389  0.19989  1.0000
  P   P58       1.0  0.71782  0.98239  0.26966  1.0000
  H   H1393     1.0  0.60054  0.97943  0.26576  1.0000
  C   C1739     1.0  0.73467  0.97126  0.37530  1.0000
  C   C1740     1.0  0.83495  0.83950  0.34594  1.0000
  C   C1741     1.0  0.54717  0.82290  0.40428  1.0000
  C   C1742     1.0  0.85235  0.66514  0.20429  1.0000
  H   H1394     1.0  0.90382  0.66341  0.46672  1.0000
  C   C1743     1.0  0.79534  0.96586  0.20037  1.0000
  H   H1395     1.0  0.87375  0.97718  0.12161  1.0000
  H   H1396     1.0  0.93332  0.73774  0.03765  1.0000
  H   H1397     1.0  0.97179  0.77035  0.13214  1.0000
  C   C1744     1.0  0.77681  0.71575  0.47956  1.0000
  C   C1745     1.0  0.60276  0.82572  0.34038  1.0000
  H   H1398     1.0  0.58958  0.97619  0.44953  1.0000
  P   P59       1.0  0.53749  0.86982  0.41716  1.0000
  C   C1746     1.0  0.94526  0.83786  0.02002  1.0000
  H   H1399     1.0  0.81345  0.96171  0.18423  1.0000
  C   C1747     1.0  0.53489  0.83795  0.40520  1.0000
  H   H1400     1.0  0.56295  0.75663  0.43935  1.0000
  C   C1748     1.0  0.84150  0.73724  0.46206  1.0000
  C   C1749     1.0  0.90940  0.98158  0.08635  1.0000
  C   C1750     1.0  0.85142  0.96386  0.99191  1.0000
  H   H1401     1.0  0.60391  0.85062  0.34113  1.0000
  C   C1751     1.0  0.58999  0.84044  0.33516  1.0000
  C   C1752     1.0  0.88153  0.98488  0.10292  1.0000
  H   H1402     1.0  0.50519  0.89020  0.31155  1.0000
  H   H1403     1.0  0.53683  0.81137  0.25453  1.0000
  H   H1404     1.0  0.55715  0.96411  0.35612  1.0000
  H   H1405     1.0  0.97461  0.92321  0.02403  1.0000
  H   H1406     1.0  0.53550  0.87225  0.22746  1.0000
  H   H1407     1.0  0.91548  0.96358  0.02003  1.0000
  H   H1408     1.0  0.58796  0.80846  0.41296  1.0000
  H   H1409     1.0  0.51238  0.93652  0.28822  1.0000
  C   C1753     1.0  0.66236  0.98828  0.46689  1.0000
  C   C1754     1.0  0.98022  0.93547  0.12065  1.0000
  C   C1755     1.0  0.74743  0.96696  0.31995  1.0000
  H   H1410     1.0  0.71522  0.96789  0.20623  1.0000
  C   C1756     1.0  0.55860  0.88159  0.44574  1.0000
  H   H1411     1.0  0.76692  0.95369  0.35859  1.0000
  C   C1757     1.0  0.57827  0.82011  0.41425  1.0000
  C   C1758     1.0  0.83997  0.97631  0.00991  1.0000
  H   H1412     1.0  0.50620  0.75510  0.42594  1.0000
  C   C1759     1.0  0.85304  0.66511  0.46554  1.0000
  H   H1413     1.0  0.50982  0.95053  0.41120  1.0000
  H   H1414     1.0  0.75774  0.72410  0.06954  1.0000
  H   H1415     1.0  0.78353  0.78412  0.99028  1.0000
  C   C1760     1.0  0.59720  0.83242  0.42477  1.0000
  C   C1761     1.0  0.54161  0.82865  0.31459  1.0000
  H   H1416     1.0  0.59402  0.80117  0.33918  1.0000
  C   C1762     1.0  0.58498  0.84750  0.42566  1.0000
  H   H1417     1.0  0.70134  0.95030  0.25631  1.0000
  C   C1763     1.0  0.97171  0.93560  0.02709  1.0000
  H   H1418     1.0  0.59359  0.91707  0.45391  1.0000
  C   C1764     1.0  0.51570  0.86677  0.23936  1.0000
  C   C1765     1.0  0.75149  0.96321  0.35199  1.0000
  C   C1766     1.0  0.51195  0.93218  0.31229  1.0000
  C   C1767     1.0  0.93735  0.81277  0.04431  1.0000
  H   H1419     1.0  0.51220  0.98253  0.36145  1.0000
  C   C1768     1.0  0.69574  0.96586  0.47460  1.0000
  C   C1769     1.0  0.52451  0.98928  0.40931  1.0000
  C   C1770     1.0  0.85688  0.72296  0.45941  1.0000
  H   H1420     1.0  0.54028  0.80354  0.31745  1.0000
  H   H1421     1.0  0.56055  0.89511  0.29452  1.0000
  C   C1771     1.0  0.52864  0.98098  0.38103  1.0000
  C   C1772     1.0  0.51307  0.80667  0.25639  1.0000
  H   H1422     1.0  0.89228  0.70780  0.47944  1.0000
  C   C1773     1.0  0.80383  0.97239  0.22958  1.0000
  C   C1774     1.0  0.82271  0.67057  0.19434  1.0000
  C   C1775     1.0  0.50151  0.76892  0.32024  1.0000
  C   C1776     1.0  0.98395  0.77004  0.08261  1.0000
  C   C1777     1.0  0.98952  0.82482  0.04570  1.0000
  H   H1423     1.0  0.75690  0.95902  0.16966  1.0000
  C   C1778     1.0  0.89208  0.73426  0.00801  1.0000
  H   H1424     1.0  0.53290  0.81339  0.39519  1.0000
  C   C1779     1.0  0.96314  0.96745  0.03774  1.0000
  C   C1780     1.0  0.96921  0.81250  0.05358  1.0000
  C   C1781     1.0  0.71375  0.98306  0.36655  1.0000
  H   H1425     1.0  0.92268  0.97122  0.09233  1.0000
  H   H1426     1.0  0.79722  0.70810  0.99052  1.0000
  H   H1427     1.0  0.88728  0.79994  0.46640  1.0000
  C   C1782     1.0  0.99256  0.96042  0.04423  1.0000
  C   C1783     1.0  0.92542  0.82540  0.02737  1.0000
  H   H1428     1.0  0.93571  0.84783  0.00761  1.0000
  H   H1429     1.0  0.51043  0.91654  0.39822  1.0000
  C   C1784     1.0  0.73980  0.96914  0.21325  1.0000
  H   H1430     1.0  0.82239  0.74012  0.44580  1.0000
  C   C1785     1.0  0.51877  0.88064  0.35688  1.0000
  C   C1786     1.0  0.92129  0.74094  0.01583  1.0000
  H   H1431     1.0  0.90113  0.67112  0.21382  1.0000
  C   C1787     1.0  0.54545  0.98713  0.43501  1.0000
  C   C1788     1.0  0.57554  0.96889  0.40289  1.0000
  C   C1789     1.0  0.52475  0.88696  0.32691  1.0000
  C   C1790     1.0  0.57171  0.97728  0.43109  1.0000
  H   H1432     1.0  0.51105  0.83993  0.39689  1.0000
  H   H1433     1.0  0.99874  0.81593  0.16669  1.0000
  P   P60       1.0  0.95742  0.98800  0.04314  1.0000
  C   C1791     1.0  0.88073  0.71900  0.48101  1.0000
  H   H1434     1.0  0.73707  0.96810  0.40011  1.0000
  C   C1792     1.0  0.83601  0.99108  0.99588  1.0000
  C   C1793     1.0  0.50515  0.79338  0.23899  1.0000
  C   C1794     1.0  0.70928  0.98668  0.33451  1.0000
  H   H1435     1.0  0.80214  0.66367  0.46721  1.0000
  C   C1795     1.0  0.99088  0.76971  0.11514  1.0000
  H   H1436     1.0  0.89630  0.77289  0.48321  1.0000
  C   C1796     1.0  0.99658  0.94451  0.03942  1.0000
  C   C1797     1.0  0.99488  0.98782  0.09768  1.0000
  C   C1798     1.0  0.75630  0.74227  0.48249  1.0000
  H   H1437     1.0  0.70010  0.98898  0.38466  1.0000
  C   C1799     1.0  0.84949  0.74742  0.48670  1.0000
  Fe  Fe121     1.0  0.84997  0.66637  0.58202  1.0000
  S   S243      1.0  0.87865  0.68182  0.61433  1.0000
  Fe  Fe122     1.0  0.82490  0.69410  0.54253  1.0000
  S   S244      1.0  0.85230  0.71108  0.57274  1.0000
  H   H1438     1.0  0.96895  0.72765  0.59510  1.0000
  Fe  Fe123     1.0  0.89352  0.69431  0.57028  1.0000
  S   S245      1.0  0.94358  0.70118  0.55393  1.0000
  Fe  Fe124     1.0  0.83518  0.69690  0.61470  1.0000
  S   S246      1.0  0.81897  0.70768  0.66170  1.0000
  S   S247      1.0  0.86722  0.67805  0.53785  1.0000
  S   S248      1.0  0.80555  0.68081  0.58479  1.0000
  Fe  Fe125     1.0  0.70437  0.68238  0.81252  1.0000
  S   S249      1.0  0.73344  0.67983  0.85725  1.0000
  S   S250      1.0  0.72101  0.67847  0.76116  1.0000
  Fe  Fe126     1.0  0.64009  0.68066  0.84984  1.0000
  S   S251      1.0  0.66521  0.67793  0.89700  1.0000
  S   S252      1.0  0.58768  0.67648  0.83592  1.0000
  Fe  Fe127     1.0  0.69912  0.69659  0.88001  1.0000
  S   S253      1.0  0.71298  0.71818  0.90998  1.0000
  H   H1439     1.0  0.72728  0.67269  0.59094  1.0000
  S   S254      1.0  0.67173  0.70033  0.83378  1.0000
  H   H1440     1.0  0.58144  0.75025  0.49377  1.0000
  C   C1800     1.0  0.80064  0.74466  0.58910  1.0000
  H   H1441     1.0  0.85485  0.78340  0.57433  1.0000
  C   C1801     1.0  0.98868  0.68848  0.59544  1.0000
  C   C1802     1.0  0.86612  0.80687  0.51068  1.0000
  C   C1803     1.0  0.54896  0.68125  0.84991  1.0000
  C   C1804     1.0  0.52260  0.67766  0.83060  1.0000
  C   C1805     1.0  0.54363  0.68824  0.87941  1.0000
  C   C1806     1.0  0.94635  0.76425  0.54668  1.0000
  H   H1442     1.0  0.56351  0.69091  0.89479  1.0000
  C   C1807     1.0  0.73869  0.72274  0.94290  1.0000
  C   C1808     1.0  0.76005  0.71205  0.95594  1.0000
  C   C1809     1.0  0.88029  0.79629  0.48996  1.0000
  H   H1443     1.0  0.76093  0.70039  0.94647  1.0000
  H   H1444     1.0  0.72194  0.74631  0.94593  1.0000
  C   C1810     1.0  0.98278  0.69660  0.56728  1.0000
  C   C1811     1.0  0.82213  0.74900  0.56552  1.0000
  H   H1445     1.0  0.57451  0.69743  0.78412  1.0000
  C   C1812     1.0  0.82595  0.71715  0.89755  1.0000
  H   H1446     1.0  0.96899  0.68479  0.60999  1.0000
  C   C1813     1.0  0.57607  0.77660  0.78282  1.0000
  C   C1814     1.0  0.52798  0.71967  0.77717  1.0000
  C   C1815     1.0  0.78791  0.98299  0.85104  1.0000
  H   H1447     1.0  0.50860  0.91648  0.58206  1.0000
  C   C1816     1.0  0.69507  0.98666  0.51462  1.0000
  C   C1817     1.0  0.74909  0.68668  0.73446  1.0000
  C   C1818     1.0  0.76682  0.69994  0.74185  1.0000
  C   C1819     1.0  0.78818  0.70616  0.71941  1.0000
  C   C1820     1.0  0.79232  0.69916  0.68946  1.0000
  C   C1821     1.0  0.77471  0.68585  0.68217  1.0000
  C   C1822     1.0  0.75320  0.67970  0.70449  1.0000
  H   H1448     1.0  0.76392  0.70548  0.76471  1.0000
  H   H1449     1.0  0.80159  0.71648  0.72530  1.0000
  H   H1450     1.0  0.77729  0.68047  0.65913  1.0000
  H   H1451     1.0  0.85121  0.92105  0.90683  1.0000
  H   H1452     1.0  0.56958  0.78680  0.79639  1.0000
  C   C1823     1.0  0.79612  0.72187  0.88676  1.0000
  C   C1824     1.0  0.78755  0.73749  0.88840  1.0000
  C   C1825     1.0  0.59164  0.89966  0.49046  1.0000
  C   C1826     1.0  0.73825  0.73788  0.95568  1.0000
  C   C1827     1.0  0.93110  0.74040  0.57275  1.0000
  H   H1453     1.0  0.52332  0.89642  0.54242  1.0000
  H   H1454     1.0  0.85007  0.74532  0.65298  1.0000
  H   H1455     1.0  0.74180  0.95619  0.84107  1.0000
  C   C1828     1.0  0.84763  0.97810  0.79925  1.0000
  H   H1456     1.0  0.53941  0.71855  0.75430  1.0000
  C   C1829     1.0  0.95789  0.97124  0.91362  1.0000
  H   H1457     1.0  0.94315  0.77159  0.82071  1.0000
  C   C1830     1.0  0.75372  0.95101  0.82092  1.0000
  H   H1458     1.0  0.88794  0.75368  0.61196  1.0000
  H   H1459     1.0  0.84607  0.81035  0.55711  1.0000
  H   H1460     1.0  0.83240  0.70501  0.89644  1.0000
  H   H1461     1.0  0.50870  0.69757  0.91161  1.0000
  C   C1831     1.0  0.88121  0.77350  0.87221  1.0000
  H   H1462     1.0  0.60520  0.90649  0.50736  1.0000
  C   C1832     1.0  0.81080  0.74328  0.62055  1.0000
  C   C1833     1.0  0.73621  0.94212  0.79925  1.0000
  C   C1834     1.0  0.75126  0.93533  0.77318  1.0000
  C   C1835     1.0  0.78389  0.93732  0.76892  1.0000
  C   C1836     1.0  0.80147  0.94620  0.79058  1.0000
  H   H1463     1.0  0.65057  0.73132  0.91879  1.0000
  H   H1464     1.0  0.58205  0.78915  0.73906  1.0000
  H   H1465     1.0  0.80155  0.76044  0.90206  1.0000
  C   C1837     1.0  0.98602  0.74866  0.57349  1.0000
  C   C1838     1.0  0.87653  0.98337  0.78717  1.0000
  C   C1839     1.0  0.86016  0.96664  0.96014  1.0000
  H   H1466     1.0  0.60646  0.67775  0.75689  1.0000
  C   C1840     1.0  0.89992  0.77680  0.84571  1.0000
  H   H1467     1.0  0.87690  0.98986  0.76517  1.0000
  C   C1841     1.0  0.90372  0.97320  0.83329  1.0000
  H   H1468     1.0  0.54180  0.73124  0.85351  1.0000
  C   C1842     1.0  0.86376  0.75110  0.60509  1.0000
  C   C1843     1.0  0.84720  0.72804  0.91011  1.0000
  C   C1844     1.0  0.80866  0.74840  0.90108  1.0000
  C   C1845     1.0  0.87338  0.74351  0.50866  1.0000
  C   C1846     1.0  0.75873  0.74228  0.98089  1.0000
  H   H1469     1.0  0.71095  0.94052  0.80263  1.0000
  H   H1470     1.0  0.73766  0.92851  0.75630  1.0000
  H   H1471     1.0  0.79557  0.93202  0.74877  1.0000
  H   H1472     1.0  0.82675  0.94748  0.78700  1.0000
  C   C1847     1.0  0.58119  0.88479  0.49852  1.0000
  H   H1473     1.0  0.79448  0.73932  0.63867  1.0000
  C   C1848     1.0  0.57770  0.97334  0.56107  1.0000
  H   H1474     1.0  0.80916  0.98752  0.89708  1.0000
  H   H1475     1.0  0.50568  0.98393  0.56919  1.0000
  H   H1476     1.0  0.77976  0.73008  0.52110  1.0000
  C   C1849     1.0  0.92006  0.75468  0.88985  1.0000
  C   C1850     1.0  0.83846  0.74370  0.91253  1.0000
  H   H1477     1.0  0.99614  0.76998  0.54912  1.0000
  H   H1478     1.0  0.61386  0.70980  0.90542  1.0000
  H   H1479     1.0  0.81383  0.74984  0.54129  1.0000
  C   C1851     1.0  0.97789  0.76179  0.55590  1.0000
  C   C1852     1.0  0.85659  0.98144  0.94623  1.0000
  P   P61       1.0  0.80844  0.96487  0.84459  1.0000
  C   C1853     1.0  0.99591  0.96505  0.95492  1.0000
  C   C1854     1.0  0.76857  0.98923  0.82701  1.0000
  H   H1480     1.0  0.77628  0.74197  0.58283  1.0000
  H   H1481     1.0  0.72371  0.96603  0.51777  1.0000
  H   H1482     1.0  0.81977  0.92703  0.95492  1.0000
  C   C1855     1.0  0.65655  0.70843  0.74954  1.0000
  C   C1856     1.0  0.64470  0.69340  0.74595  1.0000
  C   C1857     1.0  0.61497  0.68958  0.75819  1.0000
  C   C1858     1.0  0.59682  0.70085  0.77361  1.0000
  C   C1859     1.0  0.60820  0.71607  0.77674  1.0000
  C   C1860     1.0  0.63852  0.71971  0.76515  1.0000
  P   P62       1.0  0.58650  0.73023  0.79957  1.0000
  C   C1861     1.0  0.54520  0.72494  0.80370  1.0000
  C   C1862     1.0  0.60629  0.73103  0.83759  1.0000
  C   C1863     1.0  0.62801  0.74289  0.84481  1.0000
  C   C1864     1.0  0.64367  0.74306  0.87417  1.0000
  C   C1865     1.0  0.63800  0.73133  0.89627  1.0000
  C   C1866     1.0  0.61723  0.71923  0.88879  1.0000
  C   C1867     1.0  0.60166  0.71902  0.85946  1.0000
  H   H1483     1.0  0.94506  0.96405  0.96062  1.0000
  C   C1868     1.0  0.91805  0.75719  0.96910  1.0000
  C   C1869     1.0  0.90459  0.98091  0.80417  1.0000
  H   H1484     1.0  0.59597  0.76572  0.70782  1.0000
  C   C1870     1.0  0.87598  0.73892  0.98057  1.0000
  C   C1871     1.0  0.58592  0.74887  0.78029  1.0000
  C   C1872     1.0  0.57729  0.76211  0.79763  1.0000
  C   C1873     1.0  0.56878  0.96459  0.53449  1.0000
  C   C1874     1.0  0.58302  0.77792  0.75052  1.0000
  C   C1875     1.0  0.59092  0.76472  0.73294  1.0000
  C   C1876     1.0  0.59213  0.75021  0.74768  1.0000
  H   H1485     1.0  0.68025  0.71112  0.74122  1.0000
  H   H1486     1.0  0.65909  0.68458  0.73463  1.0000
  H   H1487     1.0  0.57159  0.95211  0.53474  1.0000
  C   C1877     1.0  0.77180  0.72944  0.49675  1.0000
  H   H1488     1.0  0.64856  0.73113  0.76888  1.0000
  H   H1489     1.0  0.63341  0.75183  0.82768  1.0000
  H   H1490     1.0  0.66083  0.75204  0.87963  1.0000
  Fe  Fe128     1.0  0.69787  0.66153  0.87117  1.0000
  C   C1878     1.0  0.80465  0.78564  0.97602  1.0000
  H   H1491     1.0  0.58639  0.70937  0.85352  1.0000
  H   H1492     1.0  0.86209  0.81872  0.50319  1.0000
  C   C1879     1.0  0.70643  0.97226  0.50368  1.0000
  H   H1493     1.0  0.92687  0.98547  0.79537  1.0000
  H   H1494     1.0  0.80921  0.76137  0.96563  1.0000
  H   H1495     1.0  0.59766  0.74010  0.73350  1.0000
  C   C1880     1.0  0.88909  0.72924  0.50540  1.0000
  C   C1881     1.0  0.79288  0.95581  0.90665  1.0000
  H   H1496     1.0  0.93352  0.97279  0.90599  1.0000
  C   C1882     1.0  0.96446  0.96640  0.94455  1.0000
  H   H1497     1.0  0.85732  0.81354  0.95462  1.0000
  H   H1498     1.0  0.52644  0.67235  0.80768  1.0000
  C   C1883     1.0  0.83496  0.93077  0.90669  1.0000
  C   C1884     1.0  0.85707  0.80215  0.54106  1.0000
  C   C1885     1.0  0.89156  0.76272  0.89490  1.0000
  H   H1499     1.0  0.92539  0.97180  0.84678  1.0000
  H   H1500     1.0  0.94078  0.77442  0.53283  1.0000
  S   S255      1.0  0.79686  0.69917  0.49612  1.0000
  H   H1501     1.0  0.78221  0.94900  0.95474  1.0000
  C   C1886     1.0  0.81194  0.95308  0.87991  1.0000
  C   C1887     1.0  0.87478  0.96810  0.84569  1.0000
  H   H1502     1.0  0.86928  0.95718  0.94599  1.0000
  H   H1503     1.0  0.77929  0.71340  0.87771  1.0000
  H   H1504     1.0  0.76412  0.74101  0.88054  1.0000
  C   C1888     1.0  0.92875  0.76910  0.84135  1.0000
  H   H1505     1.0  0.88323  0.79093  0.92971  1.0000
  H   H1506     1.0  0.73946  0.66954  0.69836  1.0000
  H   H1507     1.0  0.75274  0.75274  0.49617  1.0000
  C   C1889     1.0  0.93874  0.75800  0.86334  1.0000
  C   C1890     1.0  0.55685  0.97196  0.50739  1.0000
  C   C1891     1.0  0.84689  0.77461  0.94405  1.0000
  H   H1508     1.0  0.85856  0.77928  0.87491  1.0000
  H   H1509     1.0  0.92774  0.74575  0.90621  1.0000
  C   C1892     1.0  0.87592  0.77609  0.52988  1.0000
  H   H1510     1.0  0.57144  0.76121  0.82260  1.0000
  C   C1893     1.0  0.55636  0.74964  0.48805  1.0000
  H   H1511     1.0  0.58757  0.96770  0.58184  1.0000
  H   H1512     1.0  0.92774  0.76658  0.95515  1.0000
  H   H1513     1.0  0.91352  0.73175  0.57889  1.0000
  C   C1894     1.0  0.55438  0.98819  0.50653  1.0000
  H   H1514     1.0  0.82602  0.98058  0.78619  1.0000
  C   C1895     1.0  0.78637  0.95329  0.81647  1.0000
  C   C1896     1.0  0.83216  0.94014  0.87976  1.0000
  H   H1515     1.0  0.96080  0.75183  0.85966  1.0000
  H   H1516     1.0  0.86311  0.98325  0.92171  1.0000
  C   C1897     1.0  0.81819  0.80035  0.97294  1.0000
  C   C1898     1.0  0.86201  0.78682  0.55070  1.0000
  H   H1517     1.0  0.87457  0.96302  0.86913  1.0000
  C   C1899     1.0  0.86085  0.78936  0.94178  1.0000
  H   H1518     1.0  0.84601  0.93738  0.85890  1.0000
  P   P63       1.0  0.88199  0.75622  0.54191  1.0000
  P   P64       1.0  0.86634  0.75778  0.92781  1.0000
  C   C1900     1.0  0.50203  0.74446  0.50372  1.0000
  C   C1901     1.0  0.81911  0.77280  0.96188  1.0000
  C   C1902     1.0  0.84225  0.74663  0.62859  1.0000
  H   H1519     1.0  0.77577  0.96513  0.90703  1.0000
  C   C1903     1.0  0.85408  0.75182  0.57316  1.0000
  H   H1520     1.0  0.90727  0.72572  0.52199  1.0000
  C   C1904     1.0  0.96261  0.73802  0.58200  1.0000
  C   C1905     1.0  0.92260  0.75358  0.55513  1.0000
  C   C1906     1.0  0.84650  0.97036  0.82853  1.0000
  C   C1907     1.0  0.51243  0.69190  0.88901  1.0000
  C   C1908     1.0  0.81703  0.93403  0.93370  1.0000
  C   C1909     1.0  0.79586  0.94647  0.93360  1.0000
  C   C1910     1.0  0.57417  0.98944  0.56079  1.0000
  C   C1911     1.0  0.52949  0.72680  0.83282  1.0000
  C   C1912     1.0  0.88526  0.78096  0.49952  1.0000
  S   S256      1.0  0.67106  0.66305  0.82562  1.0000
  C   C1913     1.0  0.98279  0.97453  0.89291  1.0000
  H   H1521     1.0  0.77468  0.65936  0.79199  1.0000
  C   C1914     1.0  0.78073  0.71649  0.98097  1.0000
  H   H1522     1.0  0.97782  0.97859  0.86909  1.0000
  H   H1523     1.0  0.89188  0.78520  0.82836  1.0000
  H   H1524     1.0  0.87032  0.72421  0.91815  1.0000
  H   H1525     1.0  0.74245  0.66222  0.53835  1.0000
  H   H1526     1.0  0.76568  0.98334  0.80447  1.0000
  H   H1527     1.0  0.85287  0.73400  0.97554  1.0000
  H   H1528     1.0  0.80733  0.81024  0.98450  1.0000
  C   C1915     1.0  0.50772  0.90585  0.53572  1.0000
  C   C1916     1.0  0.84638  0.80220  0.95602  1.0000
  H   H1529     1.0  0.83628  0.75812  0.48900  1.0000
  H   H1530     1.0  0.58655  0.88012  0.52178  1.0000
  H   H1531     1.0  0.94746  0.66487  0.56459  1.0000
  C   C1917     1.0  0.88893  0.75035  0.96083  1.0000
  C   C1918     1.0  0.73535  0.66080  0.58887  1.0000
  C   C1919     1.0  0.79299  0.99160  0.87892  1.0000
  C   C1920     1.0  0.53441  0.74525  0.51118  1.0000
  H   H1532     1.0  0.54254  0.74245  0.53491  1.0000
  H   H1533     1.0  0.54987  0.96500  0.48714  1.0000
  H   H1534     1.0  0.50147  0.89768  0.48770  1.0000
  H   H1535     1.0  0.84533  0.65945  0.67502  1.0000
  H   H1536     1.0  0.00063  0.96173  0.97918  1.0000
