data_image0
_chemical_formula_structural       FeS2FeS2FeSFeS3FeS2FeS2FeSFeS3FeSCFeS2FeSFeS3FeS2FeS2FeSFeS3CHCH2C3H2C3H2C6H4C2H5C6H6CH2CHC2HC6H4C6H4CHC5H4CHC3H2C4H3CH2CH3C2H3C3HSCHCHC7H2C5H3CHC5H4CH5CHC2HC3HC3H2C2H2PCH4C2HCH2C2H2CHCHC2HC4H3CPCHC3HPC13H2C3H3PH10C2H2C6PC18H12CH4C2HCH2CH4C4H2CHC3H2C3HCHC2HC2H2CH2C4H5CPC2H2C4PHC2HC2H2C16HCH3CHCH2C6HCH3C2HC3PC2HCFeS2FeS2FeCFeS3FeS2FeS2FeCFeS3HCH3C6H4CHCH2C3H2C2H2C3H2CHC3H2C2HC2H2CHC2H2CH2CHCH2CH3C3H2C2H2C2HC2HCH4C2H2CH2C2H2C3HCH4CH3C4HPCHCH4C2HCHC3PC10HC7H8CH2C2HC3HCHSHC4HCHC2H3C3FeS2FeS2FeSFeS3FeS2FeS2FeSFeS3C6H4C4H6C6H4C6H4C4H2C2HC8HCHC2H2C2HC3H2CH3C2S2H3C2H2CHCHC3HC2HCHC5HC4HCH2C2PCH2C4H2C3HCHCHC3H3C3HCHC2HC6PC6HC3H2C2HC3H5CH5C2H2CH2CHPHCH3C3HC3H2C3H3C4HCHCH6C3H2PC2H2CH2CHC3HC10HCPHC3H9C2H2CHC2FeS2FeS2FeSFeS3FeS2FeS2FeSFeS3CHC2HC2H3C7H5CHCHC2HC6H4C6H6C3H2C2H2C2H3SC7PC15H2CHC2H5CH7CHCH2CHCH5C6HC2HC4HCH4CHCHC3H5CH2C2HC3PC14H2C2HCH14CH3C5PC4H2C7H3PC4H3CHCHC3HCHC2H2CHCH2CHCHC2H5CPC4HC2HCH2CPHC2H3CFeS2FeS2FeCFeS3FeS2FeS2FeHFeS3CHCH2C6H4C4HC3H2C2H5CHCHC3HC4H2CH2CH3C6H2CH2CH3PC4HC9H2C2H3C2H2CHCH8C3HC2H3C2H2C2HC2HPH2PCHC4H2C4H3C2HCHC2HC2HCH2C3HCHCHC4HCH2C3H2CH5CPCH2C5HCFeS2FeS2FeSFeS3FeS2FeS2FeSFeS3FeS2FeSHFeSFeS3FeS2FeS2FeSFeS3CH2C2H2C3H2C2H2CH3C7H4C2H3C6H4C4HC7H4C6H4C3HCPC15HCHCH8C2HC3PHC6H2CHC7HCHCHCH4C2H4C3H3C2HCH3CHCPHC2PC8HC7H2CH9CHCHC2H2CHCH2CH3C2HCHC2HC2PC4HC13H4C2H11C6PHC7H2C5HC3HC4H2CH3C2H3C2H3CHC4H7C2H3C2H2C2H4CSC4HCHCH4CH2CHC2H2C2PH2C2HC3HCH2CHCHCHCFeSHFeS2FeSFeS3FeS2FeS2FeSFeS3FeS2FeS2FeCFeS3FeS2FeS2FeSFeS3C2HCH2CH2C7H4C3H2CHC2HCHC6H4C3H2C6H4C6H4C2H2PHC3H2C7PC8H9CHCH2CHC3HCSCH6CHPCHCH3CHSC3HPC2H2C2HCHCHC4HC4HCH4CH2CH4C6H5CH3CHCH3C9H3C2H2CH7C10PC15HCH18C3H2CH2C2H2CH2CHC2HCHC3HPH3C3HC5HCHC8H2C4H2CHCHCHC2H2C3HCHPC4HC2HCHC3HC4H5C2H3CH3CH2C3H2CH3C2H2C4FeS2FeS2FeCFeS3FeSCFeS2FeSFeS3C3H2C6H4C3H3CH3C2HC2HC6HC2H3CHCHPC3H2CH2CH2CHCH5CHC5PC5HC4HC3H3CH4CHC2H4C3H2C2HCHC5SCHC2HC2PC2HCH2C2HC2HCH2CH3CHCHCH2CHCH2CH2C3HCHCHCHCH2C5H3FeS2FeS2FeSFeS3FeS2FeS2FeSFeS3CHCHC7H4C6H4C6H4C3H2SC2H2C3HC2HC4HC2HPCHC6HCH3C2HC2HCH3PH3C3HC2HC3H2C2HCH4CHPH2C3H2CSCHCHC2H3C4H4CHC2H2CHCH2C3H3C2HC4H2C4HC6HCH10PC6PC18H13CH6CHC4H2C2H2C3PC9HC4H3C2HCH5CH3C3HCH4C2HCH4C2HFeS2FeS2FeSFeS3FeS2FeS2FeSFeS3C2H3C6H4C3H2CH2CHC6H4C6HPH2C3HC2H2C2HCHC3H2C7PC16H6CH14CHC5SHC2HC4HC3H4CH2CH3CHC2H3CHCHCH3CHCH2CHCHCHC4HC4H5C2HCHC2HC2HC4P2HC2PHC6HC3HC6H8C2H4CH3C4HC4HC2H2C4H3C2H3C3HC2HC8HC2H4CH2C2HCHC3HC4H11CHFeSHFeS2FeSFeS3FeS2FeS2FeSPHS2C3H2C6H4PC2HCFeH3C2H8CH3C4HC12HCHCHCHCHCH5C4H2CHC5HCHC2HCHC2H2C6H2C2H2C2H2C7HCH2C6HP2H2C2H5C4H3CH2CHC2HC3H3C4HC3H3CH2CH2C3H4C3H2CH3CHCH2CH2CFeS2FeS2FeSFeS3FeS2FeS2FeSFeS3FeS2FeS2FeSFeS3FeS2FeS2FeSFeS3CH2CHCHC2H3C3HC7H5C2H2C2HC6H4C3HCHCH3CHC7H4C6H4CHC4PC3PC7H6C2HC5H3CH2CH3CH3C5HC2HCHCHC5HC2PC18H17CH2C3H2C2H4CHCH4C3H2C6HC2H2C3H6C2H5CH2C4H3CHCPC4PC3HC4HC4HC6PC14HCHCH12CH5C7H2C4H4C2HC2H3CHCH2C2H2CH3CHPCHC2H5C2HC4HCH3C2H3CH2C6HCHC3H3C2H3C
_chemical_formula_sum              "Fe128 S256 C1920 H1536 P64"
_cell_length_a       37.5992
_cell_length_b       80.2924
_cell_length_c       48.1787
_cell_angle_alpha    89.6108
_cell_angle_beta     89.6451
_cell_angle_gamma    88.675

_space_group_name_H-M_alt    "P 1"
_space_group_IT_number       1

loop_
  _space_group_symop_operation_xyz
  'x, y, z'

loop_
  _atom_site_type_symbol
  _atom_site_label
  _atom_site_symmetry_multiplicity
  _atom_site_fract_x
  _atom_site_fract_y
  _atom_site_fract_z
  _atom_site_occupancy
  Fe  Fe1       1.0  0.31026  0.02302  0.39184  1.0000
  S   S1        1.0  0.35382  0.04163  0.38529  1.0000
  S   S2        1.0  0.31486  0.01142  0.43587  1.0000
  Fe  Fe2       1.0  0.28697  0.02690  0.32974  1.0000
  S   S3        1.0  0.33041  0.04469  0.31974  1.0000
  S   S4        1.0  0.24316  0.02039  0.29863  1.0000
  Fe  Fe3       1.0  0.36600  0.02804  0.34597  1.0000
  S   S5        1.0  0.42149  0.01787  0.33549  1.0000
  Fe  Fe4       1.0  0.31442  0.05686  0.36011  1.0000
  S   S6        1.0  0.31157  0.08527  0.36034  1.0000
  S   S7        1.0  0.32380  0.00892  0.35279  1.0000
  S   S8        1.0  0.26982  0.03968  0.36962  1.0000
  Fe  Fe5       1.0  0.17087  0.15890  0.37823  1.0000
  S   S9        1.0  0.21715  0.17529  0.36950  1.0000
  S   S10       1.0  0.17589  0.13117  0.38913  1.0000
  Fe  Fe6       1.0  0.11538  0.18594  0.36198  1.0000
  S   S11       1.0  0.15913  0.20396  0.35102  1.0000
  S   S12       1.0  0.05717  0.19411  0.35237  1.0000
  Fe  Fe7       1.0  0.18809  0.18242  0.33013  1.0000
  S   S13       1.0  0.21722  0.17690  0.28866  1.0000
  Fe  Fe8       1.0  0.18530  0.19568  0.39148  1.0000
  S   S14       1.0  0.21063  0.21631  0.41868  1.0000
  S   S15       1.0  0.14276  0.16519  0.33850  1.0000
  S   S16       1.0  0.14032  0.17857  0.40303  1.0000
  Fe  Fe9       1.0  0.17454  0.01512  0.07033  1.0000
  S   S17       1.0  0.14365  0.03889  0.06092  1.0000
  C   C1        1.0  0.01099  0.23390  0.99388  1.0000
  Fe  Fe10      1.0  0.19908  0.02856  0.12882  1.0000
  S   S18       1.0  0.16929  0.05283  0.12191  1.0000
  S   S19       1.0  0.23898  0.02695  0.16536  1.0000
  Fe  Fe11      1.0  0.12470  0.03735  0.10536  1.0000
  S   S20       1.0  0.06871  0.04122  0.12347  1.0000
  Fe  Fe12      1.0  0.19101  0.05211  0.07854  1.0000
  S   S21       1.0  0.22252  0.07275  0.05773  1.0000
  S   S22       1.0  0.15339  0.01297  0.11453  1.0000
  S   S23       1.0  0.22291  0.02844  0.08554  1.0000
  Fe  Fe13      1.0  0.26831  0.16872  0.09362  1.0000
  S   S24       1.0  0.24108  0.19380  0.09793  1.0000
  S   S25       1.0  0.22843  0.14788  0.09886  1.0000
  Fe  Fe14      1.0  0.34316  0.18374  0.09643  1.0000
  S   S26       1.0  0.31923  0.20972  0.10146  1.0000
  S   S27       1.0  0.40271  0.17760  0.10640  1.0000
  Fe  Fe15      1.0  0.28035  0.19836  0.13177  1.0000
  S   S28       1.0  0.26156  0.21069  0.17254  1.0000
  Fe  Fe16      1.0  0.28114  0.20327  0.06696  1.0000
  S   S29       1.0  0.26028  0.22365  0.03595  1.0000
  S   S30       1.0  0.30600  0.17305  0.12877  1.0000
  S   S31       1.0  0.30654  0.17763  0.06044  1.0000
  C   C2        1.0  0.25243  0.22949  0.00026  1.0000
  H   H1        1.0  0.38431  0.14563  0.07400  1.0000
  C   C3        1.0  0.47708  0.12111  0.07608  1.0000
  H   H2        1.0  0.22904  0.25335  0.01114  1.0000
  H   H3        1.0  0.33537  0.15042  0.99416  1.0000
  C   C4        1.0  0.44873  0.17679  0.09571  1.0000
  C   C5        1.0  0.24950  0.09141  0.44460  1.0000
  C   C6        1.0  0.45936  0.17541  0.06788  1.0000
  H   H4        1.0  0.46790  0.17835  0.13768  1.0000
  H   H5        1.0  0.43940  0.17486  0.05188  1.0000
  C   C7        1.0  0.02662  0.04149  0.07609  1.0000
  C   C8        1.0  0.02797  0.04010  0.10502  1.0000
  C   C9        1.0  0.43817  0.28508  0.07146  1.0000
  H   H6        1.0  0.05098  0.04300  0.06438  1.0000
  H   H7        1.0  0.03630  0.16370  0.23791  1.0000
  C   C10       1.0  0.22483  0.09341  0.07018  1.0000
  C   C11       1.0  0.20280  0.09922  0.09165  1.0000
  C   C12       1.0  0.20443  0.11592  0.10017  1.0000
  C   C13       1.0  0.22879  0.12685  0.08793  1.0000
  C   C14       1.0  0.25132  0.12097  0.06682  1.0000
  C   C15       1.0  0.24895  0.10437  0.05774  1.0000
  H   H8        1.0  0.18377  0.09098  0.10109  1.0000
  H   H9        1.0  0.18629  0.12046  0.11603  1.0000
  H   H10       1.0  0.26962  0.12936  0.05690  1.0000
  H   H11       1.0  0.26557  0.10001  0.04078  1.0000
  C   C16       1.0  0.22487  0.22188  0.45310  1.0000
  C   C17       1.0  0.27030  0.21310  0.35313  1.0000
  H   H12       1.0  0.21563  0.05418  0.29880  1.0000
  H   H13       1.0  0.33746  0.01176  0.26628  1.0000
  H   H14       1.0  0.44268  0.29143  0.05186  1.0000
  H   H15       1.0  0.06160  0.24223  0.00781  1.0000
  H   H16       1.0  0.24492  0.24554  0.43954  1.0000
  C   C18       1.0  0.22969  0.18683  0.25683  1.0000
  C   C19       1.0  0.24657  0.17717  0.23606  1.0000
  C   C20       1.0  0.25600  0.18416  0.21012  1.0000
  C   C21       1.0  0.24946  0.20110  0.20474  1.0000
  C   C22       1.0  0.23341  0.21089  0.22577  1.0000
  C   C23       1.0  0.22339  0.20381  0.25157  1.0000
  H   H17       1.0  0.25260  0.16417  0.24010  1.0000
  H   H18       1.0  0.26877  0.17650  0.19441  1.0000
  H   H19       1.0  0.22844  0.22403  0.22198  1.0000
  H   H20       1.0  0.21072  0.21149  0.26730  1.0000
  H   H21       1.0  0.05279  0.00661  0.06598  1.0000
  H   H22       1.0  0.33839  0.21351  0.18775  1.0000
  C   C24       1.0  0.16764  0.20894  0.00698  1.0000
  H   H23       1.0  0.28817  0.09460  0.29583  1.0000
  H   H24       1.0  0.02921  0.16561  0.38438  1.0000
  C   C25       1.0  0.46198  0.02730  0.34447  1.0000
  H   H25       1.0  0.42276  0.08231  0.07882  1.0000
  C   C26       1.0  0.46282  0.04303  0.35670  1.0000
  C   C27       1.0  0.35050  0.10498  0.14305  1.0000
  H   H26       1.0  0.43818  0.04960  0.36165  1.0000
  C   C28       1.0  0.24152  0.02358  0.26173  1.0000
  C   C29       1.0  0.21006  0.02014  0.24726  1.0000
  C   C30       1.0  0.20829  0.02156  0.21798  1.0000
  C   C31       1.0  0.23823  0.02624  0.20259  1.0000
  C   C32       1.0  0.26936  0.03008  0.21715  1.0000
  C   C33       1.0  0.27083  0.02906  0.24645  1.0000
  H   H27       1.0  0.18690  0.01619  0.25870  1.0000
  H   H28       1.0  0.18408  0.01859  0.20725  1.0000
  H   H29       1.0  0.29266  0.03376  0.20561  1.0000
  H   H30       1.0  0.29479  0.03234  0.25714  1.0000
  C   C34       1.0  0.27214  0.09750  0.36560  1.0000
  C   C35       1.0  0.27295  0.11476  0.36066  1.0000
  C   C36       1.0  0.24310  0.12512  0.36653  1.0000
  C   C37       1.0  0.21236  0.11837  0.37808  1.0000
  C   C38       1.0  0.21115  0.10103  0.38221  1.0000
  C   C39       1.0  0.24072  0.09060  0.37570  1.0000
  H   H31       1.0  0.29702  0.12023  0.35270  1.0000
  H   H32       1.0  0.24438  0.13843  0.36313  1.0000
  H   H33       1.0  0.18747  0.09568  0.39107  1.0000
  H   H34       1.0  0.23971  0.07735  0.37966  1.0000
  C   C40       1.0  0.04952  0.12407  0.21935  1.0000
  H   H35       1.0  0.01605  0.14171  0.15978  1.0000
  C   C41       1.0  0.26111  0.21902  0.97793  1.0000
  C   C42       1.0  0.01577  0.16678  0.17528  1.0000
  C   C43       1.0  0.23607  0.24509  0.99424  1.0000
  C   C44       1.0  0.29259  0.06981  0.43243  1.0000
  C   C45       1.0  0.36947  0.24119  0.05736  1.0000
  H   H36       1.0  0.27757  0.13985  0.14337  1.0000
  H   H37       1.0  0.27430  0.04468  0.43423  1.0000
  H   H38       1.0  0.25193  0.99007  0.43594  1.0000
  H   H39       1.0  0.39129  0.19712  0.17156  1.0000
  C   C46       1.0  0.41831  0.07672  0.29295  1.0000
  H   H40       1.0  0.04071  0.16985  0.16525  1.0000
  C   C47       1.0  0.04819  0.23429  0.99337  1.0000
  C   C48       1.0  0.17547  0.98758  0.00543  1.0000
  C   C49       1.0  0.31796  0.98918  0.28452  1.0000
  H   H41       1.0  0.46196  0.15695  0.40302  1.0000
  H   H42       1.0  0.19825  0.29398  0.45063  1.0000
  C   C50       1.0  0.15214  0.27549  0.00603  1.0000
  C   C51       1.0  0.11329  0.19374  0.00160  1.0000
  C   C52       1.0  0.44499  0.08716  0.34380  1.0000
  C   C53       1.0  0.05422  0.01068  0.02171  1.0000
  H   H43       1.0  0.40752  0.07258  0.27344  1.0000
  H   H44       1.0  0.36682  0.07801  0.31304  1.0000
  H   H45       1.0  0.16132  0.28735  0.01342  1.0000
  C   C54       1.0  0.00219  0.15985  0.30304  1.0000
  H   H46       1.0  0.25155  0.18768  0.43747  1.0000
  H   H47       1.0  0.15231  0.26398  0.04654  1.0000
  C   C55       1.0  0.19334  0.03752  0.41764  1.0000
  H   H48       1.0  0.18309  0.01276  0.99189  1.0000
  H   H49       1.0  0.43616  0.08133  0.17086  1.0000
  H   H50       1.0  0.30320  0.09602  0.43116  1.0000
  C   C56       1.0  0.06473  0.00431  0.99573  1.0000
  C   C57       1.0  0.18147  0.19617  0.02389  1.0000
  H   H51       1.0  0.21828  0.13703  0.44106  1.0000
  H   H52       1.0  0.04258  0.02308  0.02343  1.0000
  H   H53       1.0  0.27342  0.20695  0.98192  1.0000
  C   C58       1.0  0.17977  0.00006  0.98533  1.0000
  C   C59       1.0  0.41385  0.15836  0.42753  1.0000
  C   C60       1.0  0.34808  0.23560  0.03585  1.0000
  H   H54       1.0  0.27588  0.12770  0.42042  1.0000
  S   S32       1.0  0.17438  0.99179  0.04211  1.0000
  C   C61       1.0  0.16129  0.18218  0.02971  1.0000
  H   H55       1.0  0.11176  0.17000  0.02287  1.0000
  C   C62       1.0  0.34649  0.23361  0.15874  1.0000
  H   H56       1.0  0.17144  0.04917  0.35151  1.0000
  C   C63       1.0  0.02825  0.14929  0.31460  1.0000
  C   C64       1.0  0.12697  0.05501  0.44997  1.0000
  C   C65       1.0  0.32602  0.20091  0.43798  1.0000
  C   C66       1.0  0.37971  0.99705  0.28455  1.0000
  C   C67       1.0  0.00692  0.17274  0.37605  1.0000
  C   C68       1.0  0.33205  0.08271  0.08074  1.0000
  C   C69       1.0  0.39033  0.06125  0.07140  1.0000
  H   H57       1.0  0.26049  0.07143  0.32154  1.0000
  H   H58       1.0  0.35913  0.25100  0.12634  1.0000
  C   C70       1.0  0.02114  0.03065  0.97048  1.0000
  C   C71       1.0  0.99742  0.17872  0.19115  1.0000
  C   C72       1.0  0.18531  0.02413  0.36437  1.0000
  C   C73       1.0  0.19601  0.01383  0.38645  1.0000
  C   C74       1.0  0.20009  0.02049  0.41299  1.0000
  H   H59       1.0  0.44384  0.01403  0.40196  1.0000
  H   H60       1.0  0.25439  0.22453  0.35252  1.0000
  H   H61       1.0  0.00821  0.19104  0.19346  1.0000
  C   C75       1.0  0.38787  0.17996  0.38619  1.0000
  H   H62       1.0  0.35142  0.04234  0.06461  1.0000
  C   C76       1.0  0.36945  0.14004  0.05739  1.0000
  C   C77       1.0  0.14707  0.26233  0.02465  1.0000
  C   C78       1.0  0.27388  0.20329  0.32939  1.0000
  C   C79       1.0  0.13336  0.20791  0.99585  1.0000
  C   C80       1.0  0.34031  0.21632  0.43052  1.0000
  H   H63       1.0  0.42318  0.98650  0.36932  1.0000
  H   H64       1.0  0.20929  0.01239  0.42959  1.0000
  H   H65       1.0  0.39048  0.08704  0.35807  1.0000
  H   H66       1.0  0.37587  0.98498  0.45034  1.0000
  C   C81       1.0  0.47028  0.04149  0.27484  1.0000
  H   H67       1.0  0.20629  0.16707  0.44951  1.0000
  H   H68       1.0  0.01258  0.10932  0.19646  1.0000
  H   H69       1.0  0.32726  0.24366  0.02734  1.0000
  H   H70       1.0  0.46596  0.14109  0.13757  1.0000
  H   H71       1.0  0.42433  0.26234  0.14188  1.0000
  C   C82       1.0  0.34198  0.14287  0.01222  1.0000
  H   H72       1.0  0.32117  0.17059  0.35656  1.0000
  C   C83       1.0  0.39583  0.07804  0.07745  1.0000
  C   C84       1.0  0.00504  0.16493  0.27534  1.0000
  H   H73       1.0  0.37637  0.99587  0.40257  1.0000
  C   C85       1.0  0.46005  0.13308  0.12026  1.0000
  C   C86       1.0  0.41771  0.11666  0.09476  1.0000
  C   C87       1.0  0.24128  0.23732  0.45716  1.0000
  H   H74       1.0  0.17891  0.06111  0.39822  1.0000
  C   C88       1.0  0.33050  0.12648  0.01414  1.0000
  C   C89       1.0  0.13053  0.24445  0.98649  1.0000
  C   C90       1.0  0.36594  0.17579  0.40877  1.0000
  H   H75       1.0  0.99663  0.03737  0.14233  1.0000
  H   H76       1.0  0.21334  0.08008  0.15037  1.0000
  C   C91       1.0  0.29678  0.15243  0.41788  1.0000
  C   C92       1.0  0.43312  0.26788  0.07195  1.0000
  H   H77       1.0  0.32243  0.24030  0.16504  1.0000
  H   H78       1.0  0.37033  0.09498  0.14304  1.0000
  P   P1        1.0  0.19987  0.04655  0.45141  1.0000
  C   C93       1.0  0.06002  0.00139  0.04595  1.0000
  H   H79       1.0  0.18243  0.99223  0.29292  1.0000
  H   H80       1.0  0.32096  0.14818  0.40761  1.0000
  H   H81       1.0  0.38062  0.19586  0.03079  1.0000
  H   H82       1.0  0.19797  0.05987  0.25061  1.0000
  C   C94       1.0  0.43751  0.11211  0.21897  1.0000
  C   C95       1.0  0.26720  0.05769  0.43752  1.0000
  H   H83       1.0  0.17662  0.26618  0.46308  1.0000
  C   C96       1.0  0.35860  0.12343  0.05929  1.0000
  H   H84       1.0  0.25549  0.06809  0.11651  1.0000
  H   H85       1.0  0.33412  0.10013  0.18525  1.0000
  C   C97       1.0  0.36738  0.23962  0.13688  1.0000
  C   C98       1.0  0.06488  0.10830  0.17806  1.0000
  H   H86       1.0  0.27086  0.10069  0.24716  1.0000
  H   H87       1.0  0.08698  0.19247  0.99305  1.0000
  C   C99       1.0  0.14843  0.04396  0.98180  1.0000
  H   H88       1.0  0.31486  0.05766  0.13171  1.0000
  C   C100      1.0  0.01326  0.18707  0.36018  1.0000
  H   H89       1.0  0.41833  0.20561  0.06878  1.0000
  C   C101      1.0  0.03393  0.15939  0.25916  1.0000
  C   C102      1.0  0.31876  0.12749  0.11944  1.0000
  H   H90       1.0  0.99686  0.07170  0.97612  1.0000
  C   C103      1.0  0.26664  0.98762  0.45477  1.0000
  C   C104      1.0  0.42629  0.12626  0.11798  1.0000
  C   C105      1.0  0.39518  0.07972  0.31529  1.0000
  C   C106      1.0  0.12724  0.18094  0.01849  1.0000
  H   H91       1.0  0.13203  0.23691  0.02979  1.0000
  H   H92       1.0  0.17217  0.17229  0.04285  1.0000
  H   H93       1.0  0.18310  0.01905  0.34366  1.0000
  C   C107      1.0  0.18312  0.04784  0.39526  1.0000
  P   P2        1.0  0.37217  0.11086  0.08882  1.0000
  C   C108      1.0  0.48542  0.13053  0.09932  1.0000
  H   H94       1.0  0.29415  0.18025  0.31244  1.0000
  C   C109      1.0  0.10004  0.11338  0.18012  1.0000
  C   C110      1.0  0.11005  0.12363  0.20195  1.0000
  C   C111      1.0  0.08473  0.12943  0.22135  1.0000
  H   H95       1.0  0.33231  0.05984  0.18103  1.0000
  P   P3        1.0  0.09829  0.14255  0.24969  1.0000
  C   C112      1.0  0.12951  0.13066  0.27090  1.0000
  C   C113      1.0  0.11702  0.16193  0.23762  1.0000
  C   C114      1.0  0.12160  0.17491  0.25660  1.0000
  C   C115      1.0  0.13648  0.18989  0.24801  1.0000
  C   C116      1.0  0.14654  0.19217  0.22032  1.0000
  C   C117      1.0  0.14131  0.17953  0.20112  1.0000
  C   C118      1.0  0.12631  0.16453  0.20961  1.0000
  C   C119      1.0  0.12488  0.11351  0.27505  1.0000
  C   C120      1.0  0.14837  0.10427  0.29195  1.0000
  C   C121      1.0  0.17619  0.11216  0.30531  1.0000
  C   C122      1.0  0.18071  0.12924  0.30156  1.0000
  C   C123      1.0  0.15758  0.13844  0.28440  1.0000
  C   C124      1.0  0.06018  0.14871  0.27059  1.0000
  H   H96       1.0  0.36474  0.25360  0.06537  1.0000
  H   H97       1.0  0.11055  0.03014  0.00531  1.0000
  C   C125      1.0  0.29049  0.16941  0.42327  1.0000
  C   C126      1.0  0.37794  0.20861  0.03781  1.0000
  C   C127      1.0  0.05722  0.14375  0.29853  1.0000
  H   H98       1.0  0.43419  0.26103  0.05264  1.0000
  H   H99       1.0  0.11976  0.10904  0.16510  1.0000
  H   H100      1.0  0.13763  0.12700  0.20370  1.0000
  P   P4        1.0  0.42215  0.23731  0.09771  1.0000
  H   H101      1.0  0.11425  0.17341  0.27826  1.0000
  H   H102      1.0  0.14099  0.19960  0.26304  1.0000
  H   H103      1.0  0.15878  0.20366  0.21381  1.0000
  H   H104      1.0  0.14936  0.18135  0.17967  1.0000
  H   H105      1.0  0.12230  0.15517  0.19410  1.0000
  H   H106      1.0  0.10295  0.10727  0.26545  1.0000
  H   H107      1.0  0.14477  0.09104  0.29506  1.0000
  H   H108      1.0  0.19406  0.10512  0.31883  1.0000
  H   H109      1.0  0.20191  0.13547  0.31227  1.0000
  H   H110      1.0  0.16189  0.15162  0.28195  1.0000
  C   C128      1.0  0.42751  0.26860  0.12206  1.0000
  C   C129      1.0  0.07635  0.98563  0.04448  1.0000
  H   H111      1.0  0.33050  0.10398  0.03799  1.0000
  H   H112      1.0  0.07757  0.13601  0.30831  1.0000
  C   C130      1.0  0.13905  0.05381  0.19015  1.0000
  C   C131      1.0  0.10845  0.06182  0.20047  1.0000
  C   C132      1.0  0.11109  0.07702  0.21418  1.0000
  C   C133      1.0  0.14422  0.08445  0.21678  1.0000
  C   C134      1.0  0.17486  0.07680  0.20551  1.0000
  C   C135      1.0  0.17218  0.06117  0.19293  1.0000
  P   P5        1.0  0.21767  0.08605  0.21050  1.0000
  C   C136      1.0  0.24924  0.07769  0.18535  1.0000
  C   C137      1.0  0.21272  0.10843  0.20544  1.0000
  C   C138      1.0  0.21264  0.11544  0.17860  1.0000
  C   C139      1.0  0.20991  0.13272  0.17487  1.0000
  C   C140      1.0  0.20749  0.14320  0.19778  1.0000
  C   C141      1.0  0.20666  0.13640  0.22449  1.0000
  C   C142      1.0  0.20865  0.11911  0.22833  1.0000
  C   C143      1.0  0.28304  0.07183  0.19371  1.0000
  C   C144      1.0  0.30679  0.06484  0.17432  1.0000
  C   C145      1.0  0.29700  0.06361  0.14650  1.0000
  C   C146      1.0  0.26353  0.06944  0.13796  1.0000
  C   C147      1.0  0.23968  0.07633  0.15729  1.0000
  C   C148      1.0  0.23214  0.08114  0.24546  1.0000
  C   C149      1.0  0.21716  0.06783  0.26019  1.0000
  C   C150      1.0  0.22721  0.06449  0.28758  1.0000
  C   C151      1.0  0.25265  0.07416  0.30037  1.0000
  C   C152      1.0  0.26832  0.08718  0.28573  1.0000
  C   C153      1.0  0.25836  0.09060  0.25828  1.0000
  H   H113      1.0  0.13711  0.04192  0.17973  1.0000
  H   H114      1.0  0.08279  0.05614  0.19781  1.0000
  H   H115      1.0  0.08741  0.08309  0.22257  1.0000
  H   H116      1.0  0.14607  0.09613  0.22756  1.0000
  H   H117      1.0  0.19555  0.05458  0.18516  1.0000
  H   H118      1.0  0.21511  0.10777  0.16038  1.0000
  H   H119      1.0  0.21028  0.13804  0.15414  1.0000
  H   H120      1.0  0.20624  0.15661  0.19482  1.0000
  H   H121      1.0  0.20471  0.14462  0.24220  1.0000
  H   H122      1.0  0.20723  0.11419  0.24923  1.0000
  H   H123      1.0  0.29084  0.07215  0.21524  1.0000
  H   H124      1.0  0.31890  0.06618  0.42509  1.0000
  C   C154      1.0  0.36664  0.08898  0.08166  1.0000
  H   H125      1.0  0.41820  0.03703  0.42992  1.0000
  H   H126      1.0  0.45533  0.09101  0.36363  1.0000
  H   H127      1.0  0.42958  0.12507  0.22168  1.0000
  H   H128      1.0  0.45805  0.10951  0.26033  1.0000
  C   C155      1.0  0.22399  0.07934  0.44962  1.0000
  C   C156      1.0  0.28578  0.20781  0.37809  1.0000
  H   H129      1.0  0.36324  0.16226  0.44770  1.0000
  C   C157      1.0  0.37940  0.16520  0.42969  1.0000
  H   H130      1.0  0.47536  0.23154  0.14100  1.0000
  H   H131      1.0  0.18379  0.21961  0.00255  1.0000
  C   C158      1.0  0.34525  0.11491  0.11924  1.0000
  H   H132      1.0  0.24228  0.10450  0.44645  1.0000
  H   H133      1.0  0.41877  0.11112  0.17691  1.0000
  H   H134      1.0  0.05738  0.10005  0.16142  1.0000
  H   H135      1.0  0.40642  0.12942  0.13352  1.0000
  C   C159      1.0  0.39941  0.21419  0.05926  1.0000
  C   C160      1.0  0.13590  0.24693  0.01500  1.0000
  C   C161      1.0  0.17881  0.04113  0.36879  1.0000
  C   C162      1.0  0.34440  0.00039  0.27732  1.0000
  H   H136      1.0  0.43905  0.17626  0.36651  1.0000
  H   H137      1.0  0.45219  0.04522  0.29135  1.0000
  C   C163      1.0  0.30508  0.19266  0.37948  1.0000
  H   H138      1.0  0.37860  0.18860  0.37032  1.0000
  C   C164      1.0  0.99592  0.03844  0.11995  1.0000
  C   C165      1.0  0.40851  0.08488  0.34073  1.0000
  C   C166      1.0  0.30389  0.12045  0.16710  1.0000
  H   H139      1.0  0.20795  0.19715  0.03247  1.0000
  H   H140      1.0  0.37091  0.16225  0.03224  1.0000
  C   C167      1.0  0.99453  0.05828  0.97651  1.0000
  C   C168      1.0  0.28378  0.08665  0.43599  1.0000
  C   C169      1.0  0.33001  0.10781  0.16694  1.0000
  H   H141      1.0  0.02656  0.14584  0.33637  1.0000
  C   C170      1.0  0.35576  0.05528  0.06963  1.0000
  H   H142      1.0  0.02967  0.12780  0.23450  1.0000
  C   C171      1.0  0.32664  0.06603  0.07430  1.0000
  C   C172      1.0  0.29814  0.13018  0.14334  1.0000
  H   H143      1.0  0.39992  0.00596  0.27941  1.0000
  C   C173      1.0  0.23192  0.16291  0.44139  1.0000
  C   C174      1.0  0.27118  0.14075  0.42500  1.0000
  H   H144      1.0  0.29973  0.06145  0.07280  1.0000
  H   H145      1.0  0.31496  0.12130  0.99756  1.0000
  C   C175      1.0  0.45745  0.07859  0.21215  1.0000
  H   H146      1.0  0.30908  0.09081  0.08452  1.0000
  H   H147      1.0  0.20196  0.00076  0.38285  1.0000
  C   C176      1.0  0.39643  0.98672  0.40897  1.0000
  C   C177      1.0  0.03970  0.11352  0.19782  1.0000
  C   C178      1.0  0.44327  0.11435  0.07364  1.0000
  C   C179      1.0  0.29804  0.99614  0.45957  1.0000
  H   H148      1.0  0.28794  0.12271  0.18556  1.0000
  H   H149      1.0  0.43649  0.10802  0.05466  1.0000
  H   H150      1.0  0.31367  0.13517  0.10125  1.0000
  H   H151      1.0  0.26099  0.20713  0.31023  1.0000
  H   H152      1.0  0.28134  0.21527  0.39646  1.0000
  C   C180      1.0  0.23871  0.14599  0.43665  1.0000
  P   P6        1.0  0.32180  0.18484  0.41222  1.0000
  C   C181      1.0  0.25763  0.17458  0.43459  1.0000
  C   C182      1.0  0.33911  0.11671  0.03741  1.0000
  H   H153      1.0  0.46423  0.06557  0.20916  1.0000
  H   H154      1.0  0.34801  0.21882  0.40923  1.0000
  C   C183      1.0  0.30804  0.18272  0.35564  1.0000
  C   C184      1.0  0.29276  0.18812  0.33064  1.0000
  C   C185      1.0  0.36183  0.14956  0.03369  1.0000
  C   C186      1.0  0.42231  0.17309  0.38407  1.0000
  P   P7        1.0  0.48418  0.07530  0.26634  1.0000
  H   H155      1.0  0.41284  0.05285  0.06786  1.0000
  C   C187      1.0  0.48613  0.00826  0.43079  1.0000
  C   C188      1.0  0.39583  0.23060  0.06884  1.0000
  H   H156      1.0  0.29081  0.99219  0.27868  1.0000
  C   C189      1.0  0.35235  0.21933  0.02604  1.0000
  C   C190      1.0  0.43525  0.16224  0.40466  1.0000
  H   H157      1.0  0.42825  0.20756  0.13326  1.0000
  H   H158      1.0  0.42401  0.15011  0.44367  1.0000
  C   C191      1.0  0.45506  0.07899  0.29582  1.0000
  C   C192      1.0  0.39766  0.23053  0.12791  1.0000
  C   C193      1.0  0.00187  0.15092  0.17225  1.0000
  C   C194      1.0  0.14583  0.27329  0.97777  1.0000
  C   C195      1.0  0.44171  0.03028  0.43717  1.0000
  C   C196      1.0  0.44125  0.08748  0.19035  1.0000
  C   C197      1.0  0.35540  0.21842  0.17152  1.0000
  C   C198      1.0  0.42682  0.25960  0.09720  1.0000
  C   C199      1.0  0.45590  0.01711  0.42158  1.0000
  C   C200      1.0  0.40623  0.21523  0.14074  1.0000
  C   C201      1.0  0.34439  0.22870  0.45050  1.0000
  C   C202      1.0  0.38521  0.20923  0.16248  1.0000
  C   C203      1.0  0.31732  0.19781  0.46592  1.0000
  C   C204      1.0  0.43137  0.10423  0.19374  1.0000
  C   C205      1.0  0.47520  0.02449  0.26952  1.0000
  C   C206      1.0  0.46824  0.08425  0.32147  1.0000
  H   H159      1.0  0.07112  0.06171  0.44935  1.0000
  C   C207      1.0  0.46687  0.22862  0.09690  1.0000
  H   H160      1.0  0.12582  0.04889  0.43010  1.0000
  H   H161      1.0  0.46855  0.22506  0.05231  1.0000
  H   H162      1.0  0.44168  0.30739  0.09580  1.0000
  C   C208      1.0  0.48286  0.22385  0.07165  1.0000
  H   H163      1.0  0.16354  0.04730  0.99997  1.0000
  C   C209      1.0  0.45369  0.10327  0.24080  1.0000
  H   H164      1.0  0.46105  0.01544  0.28188  1.0000
  H   H165      1.0  0.33500  0.21496  0.00988  1.0000
  C   C210      1.0  0.99357  0.04141  0.06236  1.0000
  C   C211      1.0  0.11829  0.03419  0.98473  1.0000
  C   C212      1.0  0.23283  0.06234  0.44655  1.0000
  C   C213      1.0  0.46412  0.08648  0.23748  1.0000
  C   C214      1.0  0.09569  0.06217  0.46094  1.0000
  C   C215      1.0  0.43256  0.28581  0.12152  1.0000
  H   H166      1.0  0.19732  0.08344  0.45521  1.0000
  C   C216      1.0  0.47552  0.17728  0.11607  1.0000
  H   H167      1.0  0.35460  0.24071  0.44455  1.0000
  H   H168      1.0  0.99343  0.27335  0.05525  1.0000
  H   H169      1.0  0.43272  0.29273  0.14074  1.0000
  C   C217      1.0  0.45843  0.03502  0.46160  1.0000
  C   C218      1.0  0.08088  0.98839  0.99444  1.0000
  H   H170      1.0  0.99283  0.04282  0.04005  1.0000
  C   C219      1.0  0.43770  0.29406  0.09622  1.0000
  C   C220      1.0  0.15897  0.05571  0.46479  1.0000
  C   C221      1.0  0.48681  0.22751  0.12142  1.0000
  P   P8        1.0  0.11578  0.22458  0.97402  1.0000
  C   C222      1.0  0.48921  0.05329  0.25943  1.0000
  C   C223      1.0  0.99303  0.22374  0.97543  1.0000
  H   H171      1.0  0.99606  0.24147  0.00860  1.0000
  C   C224      1.0  0.06771  0.22441  0.97445  1.0000
  Fe  Fe17      1.0  0.28668  0.25882  0.56730  1.0000
  S   S33       1.0  0.30288  0.28422  0.55247  1.0000
  S   S34       1.0  0.26428  0.23709  0.54119  1.0000
  Fe  Fe18      1.0  0.30040  0.26869  0.62932  1.0000
  S   S35       1.0  0.31805  0.29435  0.61759  1.0000
  S   S36       1.0  0.29969  0.26060  0.67518  1.0000
  Fe  Fe19      1.0  0.27139  0.29463  0.58871  1.0000
  C   C225      1.0  0.41218  0.00425  0.52031  1.0000
  Fe  Fe20      1.0  0.34898  0.28177  0.58280  1.0000
  S   S37       1.0  0.40438  0.29093  0.56890  1.0000
  S   S38       1.0  0.25250  0.26941  0.60192  1.0000
  S   S39       1.0  0.33417  0.25584  0.59613  1.0000
  Fe  Fe21      1.0  0.19836  0.26590  0.88324  1.0000
  S   S40       1.0  0.15257  0.28146  0.90008  1.0000
  S   S41       1.0  0.22959  0.24562  0.90853  1.0000
  Fe  Fe22      1.0  0.18717  0.27960  0.82268  1.0000
  S   S42       1.0  0.14042  0.29567  0.83673  1.0000
  S   S43       1.0  0.19609  0.28332  0.77544  1.0000
  Fe  Fe23      1.0  0.17451  0.30211  0.87316  1.0000
  C   C226      1.0  0.08555  0.99629  0.92300  1.0000
  Fe  Fe24      1.0  0.12206  0.27396  0.86216  1.0000
  S   S44       1.0  0.06657  0.26228  0.86395  1.0000
  S   S45       1.0  0.22229  0.28719  0.85825  1.0000
  S   S46       1.0  0.16678  0.25729  0.84613  1.0000
  H   H172      1.0  0.37643  0.31017  0.78733  1.0000
  C   C227      1.0  0.02181  0.27036  0.86320  1.0000
  H   H173      1.0  0.18323  0.06365  0.50297  1.0000
  H   H174      1.0  0.03475  0.29626  0.86544  1.0000
  H   H175      1.0  0.12785  0.07628  0.52208  1.0000
  C   C228      1.0  0.27106  0.26749  0.70283  1.0000
  C   C229      1.0  0.27720  0.26136  0.72989  1.0000
  C   C230      1.0  0.25474  0.26602  0.75233  1.0000
  C   C231      1.0  0.22568  0.27692  0.74804  1.0000
  C   C232      1.0  0.21998  0.28333  0.72107  1.0000
  C   C233      1.0  0.24234  0.27862  0.69860  1.0000
  H   H176      1.0  0.29935  0.25281  0.73351  1.0000
  H   H177      1.0  0.25977  0.26105  0.77288  1.0000
  H   H178      1.0  0.19804  0.29199  0.71754  1.0000
  H   H179      1.0  0.23719  0.28353  0.67800  1.0000
  C   C234      1.0  0.44885  0.28486  0.57884  1.0000
  H   H180      1.0  0.34077  0.99926  0.48861  1.0000
  C   C235      1.0  0.45605  0.27169  0.59731  1.0000
  H   H181      1.0  0.45709  0.29486  0.48441  1.0000
  H   H182      1.0  0.43424  0.26489  0.60628  1.0000
  C   C236      1.0  0.15893  0.06324  0.49101  1.0000
  C   C237      1.0  0.23751  0.23978  0.94422  1.0000
  C   C238      1.0  0.25394  0.22418  0.95025  1.0000
  H   H183      1.0  0.18036  0.20808  0.95090  1.0000
  H   H184      1.0  0.26116  0.21599  0.93330  1.0000
  C   C239      1.0  0.23248  0.21643  0.50288  1.0000
  C   C240      1.0  0.24885  0.23187  0.50695  1.0000
  H   H185      1.0  0.22896  0.20818  0.52047  1.0000
  H   H186      1.0  0.45884  0.25018  0.53380  1.0000
  C   C241      1.0  0.23075  0.00784  0.51886  1.0000
  C   C242      1.0  0.04318  0.27964  0.92994  1.0000
  C   C243      1.0  0.45396  0.27275  0.50966  1.0000
  H   H187      1.0  0.18421  0.00591  0.94157  1.0000
  H   H188      1.0  0.42651  0.27511  0.51578  1.0000
  C   C244      1.0  0.17721  0.21101  0.90687  1.0000
  H   H189      1.0  0.23320  0.22764  0.69951  1.0000
  C   C245      1.0  0.22227  0.22951  0.74293  1.0000
  C   C246      1.0  0.14039  0.04464  0.93203  1.0000
  C   C247      1.0  0.05705  0.21190  0.66151  1.0000
  H   H190      1.0  0.99508  0.99291  0.88562  1.0000
  H   H191      1.0  0.39266  0.00896  0.56181  1.0000
  C   C248      1.0  0.02269  0.00331  0.92038  1.0000
  C   C249      1.0  0.02029  0.99387  0.89615  1.0000
  H   H192      1.0  0.14920  0.04852  0.91160  1.0000
  C   C250      1.0  0.21310  0.03114  0.47713  1.0000
  C   C251      1.0  0.19835  0.00686  0.50503  1.0000
  H   H193      1.0  0.11122  0.99719  0.93290  1.0000
  H   H194      1.0  0.27062  0.29141  0.79277  1.0000
  C   C252      1.0  0.24561  0.03206  0.49122  1.0000
  H   H195      1.0  0.15268  0.30451  0.63523  1.0000
  C   C253      1.0  0.13217  0.22164  0.93897  1.0000
  C   C254      1.0  0.25438  0.02039  0.51191  1.0000
  H   H196      1.0  0.06968  0.27848  0.92102  1.0000
  H   H197      1.0  0.26565  0.25417  0.48619  1.0000
  C   C255      1.0  0.30156  0.30473  0.48709  1.0000
  H   H198      1.0  0.20496  0.23356  0.78514  1.0000
  H   H199      1.0  0.99909  0.00972  0.92798  1.0000
  C   C256      1.0  0.18943  0.01851  0.48436  1.0000
  H   H200      1.0  0.07628  0.19429  0.69218  1.0000
  C   C257      1.0  0.41881  0.99221  0.49996  1.0000
  H   H201      1.0  0.04537  0.23108  0.63122  1.0000
  H   H202      1.0  0.99961  0.24589  0.86120  1.0000
  C   C258      1.0  0.22053  0.21150  0.47635  1.0000
  H   H203      1.0  0.18336  0.05639  0.95328  1.0000
  H   H204      1.0  0.23173  0.30081  0.53528  1.0000
  H   H205      1.0  0.31387  0.20795  0.50725  1.0000
  C   C259      1.0  0.12762  0.07038  0.50192  1.0000
  C   C260      1.0  0.01227  0.21386  0.95658  1.0000
  C   C261      1.0  0.15479  0.29167  0.64219  1.0000
  H   H206      1.0  0.26432  0.04169  0.48652  1.0000
  H   H207      1.0  0.20379  0.31592  0.80283  1.0000
  C   C262      1.0  0.10999  0.03503  0.93491  1.0000
  C   C263      1.0  0.31668  0.99267  0.48434  1.0000
  H   H208      1.0  0.23786  0.99864  0.53461  1.0000
  H   H209      1.0  0.18037  0.99695  0.51027  1.0000
  C   C264      1.0  0.15807  0.21773  0.88455  1.0000
  C   C265      1.0  0.18060  0.99608  0.95671  1.0000
  H   H210      1.0  0.32647  0.31071  0.69586  1.0000
  C   C266      1.0  0.09603  0.06990  0.48684  1.0000
  C   C267      1.0  0.47793  0.29346  0.56745  1.0000
  H   H211      1.0  0.17044  0.28261  0.60191  1.0000
  C   C268      1.0  0.11322  0.22848  0.91638  1.0000
  H   H212      1.0  0.14367  0.24212  0.77200  1.0000
  H   H213      1.0  0.03503  0.25323  0.93057  1.0000
  H   H214      1.0  0.21012  0.27283  0.54718  1.0000
  H   H215      1.0  0.43058  0.99597  0.48041  1.0000
  C   C269      1.0  0.47224  0.25868  0.51986  1.0000
  C   C270      1.0  0.19112  0.26796  0.50605  1.0000
  H   H216      1.0  0.18239  0.25554  0.51126  1.0000
  H   H217      1.0  0.08890  0.23570  0.91955  1.0000
  C   C271      1.0  0.21921  0.29349  0.51944  1.0000
  H   H218      1.0  0.25094  0.31082  0.75622  1.0000
  H   H219      1.0  0.35281  0.29232  0.49094  1.0000
  C   C272      1.0  0.32475  0.29956  0.79240  1.0000
  C   C273      1.0  0.33491  0.22564  0.47813  1.0000
  H   H220      1.0  0.15014  0.28345  0.96330  1.0000
  H   H221      1.0  0.24924  0.22601  0.74869  1.0000
  C   C274      1.0  0.05538  0.00452  0.93412  1.0000
  C   C275      1.0  0.15962  0.04908  0.95547  1.0000
  C   C276      1.0  0.08219  0.20533  0.68008  1.0000
  H   H222      1.0  0.16408  0.01767  0.47397  1.0000
  C   C277      1.0  0.12603  0.22641  0.88930  1.0000
  H   H223      1.0  0.04843  0.05381  0.96328  1.0000
  H   H224      1.0  0.21650  0.26227  0.96252  1.0000
  H   H225      1.0  0.33319  0.29083  0.80844  1.0000
  H   H226      1.0  0.13106  0.25636  0.94595  1.0000
  C   C278      1.0  0.34902  0.31046  0.78052  1.0000
  H   H227      1.0  0.14725  0.26815  0.70052  1.0000
  H   H228      1.0  0.09536  0.03179  0.91651  1.0000
  H   H229      1.0  0.37202  0.31072  0.65881  1.0000
  C   C279      1.0  0.39776  0.99966  0.54599  1.0000
  C   C280      1.0  0.06478  0.22606  0.64576  1.0000
  C   C281      1.0  0.20685  0.27769  0.52629  1.0000
  C   C282      1.0  0.27834  0.31105  0.76278  1.0000
  H   H230      1.0  0.41823  0.01716  0.51617  1.0000
  P   P9        1.0  0.05965  0.01713  0.96491  1.0000
  C   C283      1.0  0.28949  0.29985  0.78351  1.0000
  H   H231      1.0  0.16862  0.21664  0.86365  1.0000
  C   C284      1.0  0.16279  0.23858  0.75603  1.0000
  H   H232      1.0  0.17542  0.25328  0.61699  1.0000
  H   H233      1.0  0.27978  0.02090  0.52233  1.0000
  H   H234      1.0  0.07179  0.07547  0.49527  1.0000
  H   H235      1.0  0.14045  0.29695  0.68472  1.0000
  C   C285      1.0  0.19733  0.23372  0.76348  1.0000
  C   C286      1.0  0.47130  0.28392  0.49214  1.0000
  H   H236      1.0  0.11153  0.23194  0.87203  1.0000
  C   C287      1.0  0.02363  0.26539  0.93534  1.0000
  H   H237      1.0  0.20276  0.20486  0.90326  1.0000
  C   C288      1.0  0.09755  0.23374  0.64870  1.0000
  C   C289      1.0  0.12271  0.22737  0.66765  1.0000
  C   C290      1.0  0.11500  0.21296  0.68303  1.0000
  P   P10       1.0  0.16557  0.23680  0.67102  1.0000
  C   C291      1.0  0.17837  0.23553  0.70717  1.0000
  C   C292      1.0  0.19779  0.22654  0.64858  1.0000
  C   C293      1.0  0.18910  0.21232  0.63344  1.0000
  C   C294      1.0  0.21344  0.20547  0.61434  1.0000
  C   C295      1.0  0.24658  0.21269  0.61036  1.0000
  C   C296      1.0  0.25556  0.22665  0.62570  1.0000
  C   C297      1.0  0.23117  0.23364  0.64452  1.0000
  C   C298      1.0  0.15318  0.23926  0.72805  1.0000
  C   C299      1.0  0.18795  0.27399  0.47888  1.0000
  C   C300      1.0  0.20034  0.28980  0.47193  1.0000
  H   H238      1.0  0.12621  0.24301  0.72272  1.0000
  C   C301      1.0  0.21301  0.23055  0.71489  1.0000
  C   C302      1.0  0.16180  0.25837  0.66003  1.0000
  C   C303      1.0  0.15180  0.27092  0.67885  1.0000
  C   C304      1.0  0.01350  0.28743  0.86448  1.0000
  C   C305      1.0  0.14808  0.28745  0.66990  1.0000
  C   C306      1.0  0.16469  0.27928  0.62331  1.0000
  C   C307      1.0  0.16788  0.26268  0.63208  1.0000
  H   H239      1.0  0.03162  0.20598  0.65923  1.0000
  H   H240      1.0  0.10311  0.24462  0.63614  1.0000
  H   H241      1.0  0.13437  0.20763  0.69732  1.0000
  H   H242      1.0  0.16342  0.20668  0.63583  1.0000
  H   H243      1.0  0.20647  0.19470  0.60227  1.0000
  H   H244      1.0  0.26518  0.20765  0.59513  1.0000
  H   H245      1.0  0.28122  0.23229  0.62269  1.0000
  H   H246      1.0  0.23807  0.24479  0.65561  1.0000
  C   C308      1.0  0.16442  0.21297  0.93399  1.0000
  H   H247      1.0  0.47291  0.30361  0.55305  1.0000
  H   H248      1.0  0.29075  0.29489  0.47461  1.0000
  C   C309      1.0  0.21589  0.29972  0.49227  1.0000
  C   C310      1.0  0.25310  0.24229  0.48373  1.0000
  H   H249      1.0  0.44796  0.04554  0.47328  1.0000
  C   C311      1.0  0.08305  0.98691  0.89881  1.0000
  C   C312      1.0  0.22861  0.25017  0.96658  1.0000
  C   C313      1.0  0.32162  0.21018  0.48584  1.0000
  H   H250      1.0  0.33727  0.23530  0.49360  1.0000
  C   C314      1.0  0.99362  0.25911  0.86220  1.0000
  H   H251      1.0  0.20784  0.19965  0.47395  1.0000
  S   S47       1.0  0.22547  0.31360  0.59078  1.0000
  H   H252      1.0  0.30704  0.18593  0.47246  1.0000
  C   C315      1.0  0.09895  0.02955  0.96127  1.0000
  C   C316      1.0  0.05043  0.98562  0.88543  1.0000
  C   C317      1.0  0.99342  0.29692  0.94565  1.0000
  C   C318      1.0  0.02809  0.29539  0.93506  1.0000
  H   H253      1.0  0.99837  0.20598  0.94225  1.0000
  C   C319      1.0  0.13507  0.25784  0.96799  1.0000
  H   H254      1.0  0.04315  0.30642  0.93038  1.0000
  C   C320      1.0  0.04945  0.21408  0.95621  1.0000
  C   C321      1.0  0.33676  0.30324  0.49621  1.0000
  H   H255      1.0  0.06396  0.20616  0.94170  1.0000
  H   H256      1.0  0.48797  0.22768  0.81414  1.0000
  H   H257      1.0  0.37750  0.31387  0.52140  1.0000
  C   C322      1.0  0.35070  0.31540  0.51338  1.0000
  C   C323      1.0  0.48931  0.02655  0.47043  1.0000
  C   C324      1.0  0.02374  0.04806  0.96919  1.0000
  Fe  Fe25      1.0  0.14899  0.51528  0.39674  1.0000
  S   S48       1.0  0.13312  0.54105  0.41085  1.0000
  S   S49       1.0  0.14504  0.49090  0.42243  1.0000
  Fe  Fe26      1.0  0.16614  0.52707  0.33181  1.0000
  S   S50       1.0  0.14871  0.55391  0.34647  1.0000
  S   S51       1.0  0.18952  0.51542  0.26392  1.0000
  Fe  Fe27      1.0  0.17966  0.54970  0.38530  1.0000
  S   S52       1.0  0.22083  0.56802  0.39996  1.0000
  Fe  Fe28      1.0  0.10341  0.54299  0.37049  1.0000
  S   S53       1.0  0.04828  0.55525  0.36950  1.0000
  S   S54       1.0  0.19735  0.52376  0.37334  1.0000
  S   S55       1.0  0.11687  0.51701  0.35744  1.0000
  Fe  Fe29      1.0  0.35671  0.54195  0.07634  1.0000
  S   S56       1.0  0.35052  0.51614  0.09336  1.0000
  S   S57       1.0  0.40943  0.55311  0.06305  1.0000
  Fe  Fe30      1.0  0.27569  0.54853  0.07546  1.0000
  S   S58       1.0  0.26462  0.52263  0.09133  1.0000
  S   S59       1.0  0.22647  0.56552  0.07115  1.0000
  Fe  Fe31      1.0  0.30822  0.52743  0.12181  1.0000
  S   S60       1.0  0.30732  0.52589  0.16948  1.0000
  Fe  Fe32      1.0  0.30750  0.51380  0.06096  1.0000
  S   S61       1.0  0.31037  0.49013  0.03367  1.0000
  S   S62       1.0  0.31787  0.55354  0.10670  1.0000
  S   S63       1.0  0.31518  0.53939  0.04327  1.0000
  C   C325      1.0  0.22840  0.58750  0.06816  1.0000
  C   C326      1.0  0.25946  0.59529  0.05954  1.0000
  C   C327      1.0  0.25916  0.61261  0.05467  1.0000
  C   C328      1.0  0.22809  0.62237  0.05890  1.0000
  C   C329      1.0  0.19744  0.61471  0.06883  1.0000
  C   C330      1.0  0.19758  0.59731  0.07324  1.0000
  H   H258      1.0  0.28343  0.58791  0.05584  1.0000
  H   H259      1.0  0.28304  0.61845  0.04716  1.0000
  H   H260      1.0  0.17340  0.62209  0.07221  1.0000
  H   H261      1.0  0.17348  0.59139  0.08002  1.0000
  C   C331      1.0  0.43669  0.48332  0.07278  1.0000
  C   C332      1.0  0.45056  0.54350  0.07260  1.0000
  C   C333      1.0  0.45206  0.53001  0.09109  1.0000
  C   C334      1.0  0.19826  0.50821  0.31701  1.0000
  H   H262      1.0  0.42774  0.52516  0.09967  1.0000
  H   H263      1.0  0.02032  0.62631  0.18473  1.0000
  H   H264      1.0  0.15565  0.55429  0.02436  1.0000
  H   H265      1.0  0.41665  0.48744  0.11418  1.0000
  H   H266      1.0  0.03885  0.52317  0.34252  1.0000
  H   H267      1.0  0.12414  0.61065  0.21218  1.0000
  C   C335      1.0  0.22000  0.52000  0.23648  1.0000
  C   C336      1.0  0.24455  0.53277  0.23812  1.0000
  C   C337      1.0  0.27043  0.53477  0.21705  1.0000
  C   C338      1.0  0.27109  0.52456  0.19338  1.0000
  C   C339      1.0  0.24555  0.51224  0.19119  1.0000
  C   C340      1.0  0.22042  0.50990  0.21271  1.0000
  H   H268      1.0  0.24422  0.54077  0.25595  1.0000
  H   H269      1.0  0.29046  0.54412  0.21925  1.0000
  H   H270      1.0  0.24615  0.50403  0.17348  1.0000
  H   H271      1.0  0.20165  0.49995  0.21117  1.0000
  C   C341      1.0  0.22204  0.58843  0.38578  1.0000
  C   C342      1.0  0.25149  0.59847  0.39083  1.0000
  C   C343      1.0  0.25398  0.61438  0.37842  1.0000
  C   C344      1.0  0.22668  0.62048  0.36128  1.0000
  C   C345      1.0  0.19676  0.61066  0.35711  1.0000
  C   C346      1.0  0.19452  0.59470  0.36907  1.0000
  H   H272      1.0  0.27289  0.59373  0.40378  1.0000
  H   H273      1.0  0.27731  0.62173  0.38158  1.0000
  H   H274      1.0  0.17521  0.61541  0.34438  1.0000
  H   H275      1.0  0.17142  0.58728  0.36543  1.0000
  C   C347      1.0  0.30274  0.48471  0.99809  1.0000
  C   C348      1.0  0.29479  0.64377  0.42950  1.0000
  C   C349      1.0  0.03334  0.46972  0.40246  1.0000
  C   C350      1.0  0.01026  0.54473  0.35799  1.0000
  H   H276      1.0  0.13162  0.58796  0.16812  1.0000
  H   H277      1.0  0.27072  0.49484  0.34352  1.0000
  C   C351      1.0  0.13997  0.60036  0.43172  1.0000
  C   C352      1.0  0.26285  0.64360  0.21654  1.0000
  H   H278      1.0  0.16568  0.57616  0.12872  1.0000
  C   C353      1.0  0.14710  0.46866  0.46673  1.0000
  C   C354      1.0  0.06253  0.46349  0.41740  1.0000
  C   C355      1.0  0.07336  0.62025  0.19877  1.0000
  C   C356      1.0  0.25817  0.64716  0.42811  1.0000
  C   C357      1.0  0.26962  0.56505  0.99679  1.0000
  C   C358      1.0  0.21722  0.50797  0.03263  1.0000
  C   C359      1.0  0.05556  0.41379  0.45994  1.0000
  C   C360      1.0  0.40527  0.50019  0.01390  1.0000
  H   H279      1.0  0.39955  0.45710  0.01454  1.0000
  C   C361      1.0  0.46283  0.51200  0.00428  1.0000
  H   H280      1.0  0.14238  0.45935  0.45116  1.0000
  C   C362      1.0  0.27675  0.50136  0.27936  1.0000
  C   C363      1.0  0.41517  0.45583  0.99566  1.0000
  H   H281      1.0  0.10952  0.60181  0.26535  1.0000
  H   H282      1.0  0.33988  0.52438  0.31051  1.0000
  C   C364      1.0  0.27585  0.52117  0.35190  1.0000
  C   C365      1.0  0.22475  0.33013  0.38973  1.0000
  H   H283      1.0  0.41485  0.45732  0.12594  1.0000
  C   C366      1.0  0.44715  0.46438  0.99219  1.0000
  C   C367      1.0  0.02267  0.45109  0.45132  1.0000
  C   C368      1.0  0.99349  0.45708  0.43579  1.0000
  H   H284      1.0  0.15317  0.61350  0.29730  1.0000
  H   H285      1.0  0.08582  0.39349  0.44166  1.0000
  C   C369      1.0  0.25780  0.63682  0.15132  1.0000
  H   H286      1.0  0.02955  0.52832  0.28257  1.0000
  H   H287      1.0  0.04898  0.52240  0.23420  1.0000
  H   H288      1.0  0.14002  0.60722  0.02024  1.0000
  C   C370      1.0  0.16096  0.60325  0.28389  1.0000
  C   C371      1.0  0.19566  0.59671  0.28489  1.0000
  S   S64       1.0  0.22875  0.63979  0.34338  1.0000
  S   S65       1.0  0.22857  0.64379  0.04968  1.0000
  H   H289      1.0  0.18590  0.53128  0.17516  1.0000
  H   H290      1.0  0.08259  0.63287  0.19648  1.0000
  H   H291      1.0  0.10947  0.51804  0.29310  1.0000
  C   C372      1.0  0.19774  0.32760  0.43528  1.0000
  C   C373      1.0  0.38900  0.51580  0.00988  1.0000
  H   H292      1.0  0.09367  0.61472  0.41930  1.0000
  H   H293      1.0  0.99928  0.59736  0.18999  1.0000
  C   C374      1.0  0.44235  0.49821  0.01159  1.0000
  H   H294      1.0  0.23769  0.50170  0.04483  1.0000
  C   C375      1.0  0.20554  0.58329  0.26799  1.0000
  H   H295      1.0  0.37886  0.50694  0.28056  1.0000
  C   C376      1.0  0.13877  0.56616  0.19460  1.0000
  C   C377      1.0  0.04955  0.58770  0.20504  1.0000
  C   C378      1.0  0.15715  0.50907  0.01498  1.0000
  H   H296      1.0  0.25807  0.58833  0.33487  1.0000
  C   C379      1.0  0.29257  0.52750  0.39937  1.0000
  C   C380      1.0  0.33565  0.49371  0.26251  1.0000
  H   H297      1.0  0.14825  0.49346  0.31283  1.0000
  C   C381      1.0  0.14419  0.58047  0.02373  1.0000
  H   H298      1.0  0.08023  0.44943  0.45290  1.0000
  C   C382      1.0  0.21514  0.52499  0.31215  1.0000
  C   C383      1.0  0.07680  0.56322  0.26982  1.0000
  C   C384      1.0  0.30741  0.56988  0.28404  1.0000
  C   C385      1.0  0.07836  0.39977  0.46073  1.0000
  C   C386      1.0  0.15006  0.48547  0.45847  1.0000
  H   H299      1.0  0.48164  0.56014  0.04747  1.0000
  C   C387      1.0  0.20618  0.63206  0.22978  1.0000
  C   C388      1.0  0.44669  0.45446  0.05973  1.0000
  C   C389      1.0  0.13634  0.59660  0.26565  1.0000
  C   C390      1.0  0.08850  0.55989  0.24258  1.0000
  H   H300      1.0  0.21405  0.49772  0.32437  1.0000
  C   C391      1.0  0.14630  0.58332  0.24816  1.0000
  H   H301      1.0  0.34508  0.63316  0.13204  1.0000
  H   H302      1.0  0.17770  0.48986  0.04244  1.0000
  C   C392      1.0  0.12850  0.62634  0.13732  1.0000
  C   C393      1.0  0.09675  0.60765  0.20806  1.0000
  P   P11       1.0  0.26310  0.52756  0.31709  1.0000
  C   C394      1.0  0.29359  0.58244  0.30114  1.0000
  H   H303      1.0  0.36043  0.51715  0.01211  1.0000
  H   H304      1.0  0.08400  0.57452  0.28026  1.0000
  C   C395      1.0  0.19308  0.58226  0.97998  1.0000
  C   C396      1.0  0.08475  0.59135  0.21196  1.0000
  C   C397      1.0  0.11331  0.64171  0.14490  1.0000
  C   C398      1.0  0.02640  0.60028  0.19528  1.0000
  H   H305      1.0  0.25129  0.52751  0.01935  1.0000
  H   H306      1.0  0.25230  0.57183  0.01102  1.0000
  C   C399      1.0  0.28484  0.53279  0.37231  1.0000
  C   C400      1.0  0.44700  0.47147  0.05277  1.0000
  C   C401      1.0  0.40257  0.44574  0.97446  1.0000
  H   H307      1.0  0.03992  0.57514  0.20711  1.0000
  C   C402      1.0  0.32811  0.51531  0.29699  1.0000
  H   H308      1.0  0.21476  0.60202  0.29890  1.0000
  C   C403      1.0  0.22490  0.52259  0.01806  1.0000
  H   H309      1.0  0.20366  0.55114  0.29610  1.0000
  C   C404      1.0  0.15477  0.55019  0.19639  1.0000
  C   C405      1.0  0.18094  0.57651  0.24990  1.0000
  C   C406      1.0  0.16212  0.56889  0.14755  1.0000
  H   H310      1.0  0.28741  0.48244  0.24880  1.0000
  H   H311      1.0  0.32579  0.57292  0.26744  1.0000
  H   H312      1.0  0.22226  0.33249  0.36763  1.0000
  C   C407      1.0  0.19227  0.53926  0.30080  1.0000
  C   C408      1.0  0.43508  0.44938  0.08605  1.0000
  C   C409      1.0  0.29324  0.63088  0.15072  1.0000
  H   H313      1.0  0.13788  0.54685  0.28487  1.0000
  C   C410      1.0  0.13683  0.52000  0.29877  1.0000
  H   H314      1.0  0.24873  0.49908  0.27928  1.0000
  C   C411      1.0  0.25906  0.56204  0.32618  1.0000
  C   C412      1.0  0.01306  0.52920  0.34508  1.0000
  H   H315      1.0  0.16866  0.33348  0.39793  1.0000
  C   C413      1.0  0.25009  0.58061  0.14503  1.0000
  C   C414      1.0  0.25281  0.57092  0.16911  1.0000
  C   C415      1.0  0.24630  0.57815  0.19499  1.0000
  C   C416      1.0  0.23741  0.59514  0.19687  1.0000
  C   C417      1.0  0.23517  0.60501  0.17273  1.0000
  C   C418      1.0  0.24136  0.59758  0.14676  1.0000
  P   P12       1.0  0.22630  0.62721  0.17451  1.0000
  C   C419      1.0  0.23245  0.63474  0.20945  1.0000
  C   C420      1.0  0.40965  0.52963  0.00395  1.0000
  C   C421      1.0  0.24735  0.64987  0.13337  1.0000
  C   C422      1.0  0.07780  0.54520  0.22968  1.0000
  C   C423      1.0  0.05679  0.53382  0.24412  1.0000
  C   C424      1.0  0.17373  0.54360  0.17376  1.0000
  H   H316      1.0  0.29757  0.50656  0.42735  1.0000
  C   C425      1.0  0.15331  0.53679  0.29401  1.0000
  C   C426      1.0  0.17012  0.63112  0.44409  1.0000
  C   C427      1.0  0.42512  0.47820  0.09903  1.0000
  H   H317      1.0  0.18350  0.60884  0.98164  1.0000
  H   H318      1.0  0.38884  0.48974  0.01946  1.0000
  C   C428      1.0  0.18142  0.63238  0.16383  1.0000
  C   C429      1.0  0.16248  0.62168  0.14666  1.0000
  H   H319      1.0  0.45535  0.44515  0.04484  1.0000
  C   C430      1.0  0.17742  0.55292  0.14937  1.0000
  C   C431      1.0  0.14289  0.57551  0.17003  1.0000
  C   C432      1.0  0.27420  0.54915  0.31008  1.0000
  H   H320      1.0  0.25502  0.57499  0.12496  1.0000
  H   H321      1.0  0.26005  0.55779  0.16762  1.0000
  H   H322      1.0  0.24868  0.57057  0.21358  1.0000
  H   H323      1.0  0.23315  0.60052  0.21715  1.0000
  H   H324      1.0  0.23997  0.60492  0.12779  1.0000
  C   C433      1.0  0.29891  0.49157  0.26235  1.0000
  H   H325      1.0  0.17409  0.32803  0.44828  1.0000
  H   H326      1.0  0.19267  0.54788  0.13201  1.0000
  H   H327      1.0  0.29813  0.53663  0.41515  1.0000
  H   H328      1.0  0.23976  0.55931  0.34229  1.0000
  H   H329      1.0  0.03752  0.47724  0.38399  1.0000
  C   C434      1.0  0.29768  0.55334  0.28835  1.0000
  C   C435      1.0  0.42415  0.46124  0.10564  1.0000
  H   H330      1.0  0.18244  0.62537  0.22476  1.0000
  H   H331      1.0  0.17413  0.60999  0.13977  1.0000
  C   C436      1.0  0.48253  0.54973  0.06183  1.0000
  H   H332      1.0  0.18918  0.56594  0.23745  1.0000
  H   H333      1.0  0.08537  0.54250  0.20845  1.0000
  C   C437      1.0  0.05582  0.55183  0.28417  1.0000
  H   H334      1.0  0.35271  0.48627  0.24901  1.0000
  P   P13       1.0  0.11481  0.57498  0.22398  1.0000
  H   H335      1.0  0.28532  0.54596  0.36800  1.0000
  C   C438      1.0  0.27666  0.50412  0.35888  1.0000
  H   H336      1.0  0.11443  0.61827  0.12341  1.0000
  H   H337      1.0  0.23225  0.57802  0.26894  1.0000
  H   H338      1.0  0.30136  0.59525  0.29805  1.0000
  C   C439      1.0  0.04583  0.53713  0.27135  1.0000
  C   C440      1.0  0.29093  0.51389  0.29585  1.0000
  C   C441      1.0  0.29220  0.51058  0.40624  1.0000
  H   H339      1.0  0.18980  0.58939  0.44506  1.0000
  C   C442      1.0  0.99883  0.46639  0.41152  1.0000
  C   C443      1.0  0.15953  0.50566  0.31026  1.0000
  C   C444      1.0  0.03824  0.61657  0.19228  1.0000
  H   H340      1.0  0.30829  0.54400  0.27435  1.0000
  H   H341      1.0  0.28758  0.32077  0.43799  1.0000
  C   C445      1.0  0.28458  0.49889  0.38593  1.0000
  C   C446      1.0  0.21031  0.63816  0.25669  1.0000
  C   C447      1.0  0.35032  0.50541  0.28016  1.0000
  H   H342      1.0  0.15304  0.54285  0.21533  1.0000
  H   H343      1.0  0.28420  0.48576  0.39128  1.0000
  H   H344      1.0  0.28268  0.50867  0.98475  1.0000
  C   C448      1.0  0.26918  0.57853  0.32197  1.0000
  C   C449      1.0  0.31060  0.46829  0.98935  1.0000
  C   C450      1.0  0.05725  0.45414  0.44161  1.0000
  C   C451      1.0  0.12030  0.61515  0.42768  1.0000
  H   H345      1.0  0.43438  0.43624  0.09123  1.0000
  C   C452      1.0  0.17441  0.60088  0.44231  1.0000
  H   H346      1.0  0.30184  0.62079  0.16434  1.0000
  C   C453      1.0  0.18339  0.50123  0.03117  1.0000
  H   H347      1.0  0.12609  0.57983  0.04125  1.0000
  H   H348      1.0  0.13097  0.50378  0.01373  1.0000
  H   H349      1.0  0.24600  0.64893  0.40795  1.0000
  H   H350      1.0  0.04737  0.55438  0.30534  1.0000
  H   H351      1.0  0.32159  0.45939  0.00409  1.0000
  H   H352      1.0  0.18994  0.63636  0.27232  1.0000
  C   C454      1.0  0.18951  0.61616  0.44846  1.0000
  C   C455      1.0  0.23117  0.32388  0.44692  1.0000
  C   C456      1.0  0.44650  0.52771  0.00092  1.0000
  H   H353      1.0  0.07458  0.51371  0.43270  1.0000
  H   H354      1.0  0.08933  0.46618  0.41048  1.0000
  P   P14       1.0  0.46248  0.47809  0.01903  1.0000
  C   C457      1.0  0.31105  0.64097  0.45513  1.0000
  C   C458      1.0  0.16489  0.52356  0.00007  1.0000
  H   H355      1.0  0.43746  0.49654  0.06823  1.0000
  H   H356      1.0  0.31557  0.57873  0.00884  1.0000
  C   C459      1.0  0.04699  0.51183  0.43846  1.0000
  H   H357      1.0  0.39720  0.54189  0.00250  1.0000
  H   H358      1.0  0.02726  0.53294  0.41498  1.0000
  C   C460      1.0  0.15209  0.59590  0.01194  1.0000
  H   H359      1.0  0.12879  0.58848  0.42634  1.0000
  C   C461      1.0  0.25815  0.32653  0.40116  1.0000
  C   C462      1.0  0.19887  0.53042  0.00151  1.0000
  C   C463      1.0  0.18524  0.56665  0.99163  1.0000
  H   H360      1.0  0.04528  0.41810  0.44015  1.0000
  C   C464      1.0  0.24070  0.64686  0.26355  1.0000
  C   C465      1.0  0.19457  0.33068  0.40679  1.0000
  C   C466      1.0  0.30564  0.56898  0.99571  1.0000
  C   C467      1.0  0.32905  0.55990  0.97863  1.0000
  C   C468      1.0  0.13521  0.63048  0.43396  1.0000
  C   C469      1.0  0.31785  0.63787  0.13248  1.0000
  C   C470      1.0  0.03808  0.49842  0.45549  1.0000
  C   C471      1.0  0.23756  0.64790  0.45246  1.0000
  C   C472      1.0  0.16090  0.56591  0.01384  1.0000
  C   C473      1.0  0.26143  0.32342  0.42966  1.0000
  H   H361      1.0  0.28155  0.32613  0.38792  1.0000
  C   C474      1.0  0.26699  0.64951  0.24353  1.0000
  P   P15       1.0  0.20933  0.54815  0.97993  1.0000
  H   H362      1.0  0.08764  0.64563  0.13670  1.0000
  C   C475      1.0  0.17661  0.59680  0.99014  1.0000
  C   C476      1.0  0.25643  0.55236  0.98002  1.0000
  C   C477      1.0  0.28854  0.49601  0.97859  1.0000
  H   H363      1.0  0.37790  0.43918  0.97722  1.0000
  H   H364      1.0  0.35705  0.56278  0.97834  1.0000
  H   H365      1.0  0.31052  0.64315  0.41057  1.0000
  H   H366      1.0  0.11981  0.64186  0.43040  1.0000
  H   H367      1.0  0.46253  0.53851  0.99685  1.0000
  H   H368      1.0  0.18031  0.64522  0.39120  1.0000
  H   H369      1.0  0.14453  0.52933  0.98716  1.0000
  H   H370      1.0  0.28322  0.64630  0.20136  1.0000
  H   H371      1.0  0.48594  0.51286  0.11395  1.0000
  C   C478      1.0  0.16586  0.64775  0.17149  1.0000
  C   C479      1.0  0.48515  0.52307  0.09919  1.0000
  H   H372      1.0  0.33939  0.63825  0.45604  1.0000
  H   H373      1.0  0.05895  0.48997  0.46276  1.0000
  C   C480      1.0  0.00245  0.49572  0.46249  1.0000
  H   H374      1.0  0.21653  0.61617  0.45601  1.0000
  C   C481      1.0  0.02031  0.52265  0.42850  1.0000
  C   C482      1.0  0.30724  0.65081  0.11465  1.0000
  Fe  Fe33      1.0  0.15826  0.44547  0.57629  1.0000
  S   S66       1.0  0.14630  0.42099  0.55662  1.0000
  S   S67       1.0  0.16308  0.47007  0.55137  1.0000
  Fe  Fe34      1.0  0.16080  0.42958  0.63606  1.0000
  S   S68       1.0  0.14758  0.40434  0.61918  1.0000
  S   S69       1.0  0.16500  0.42972  0.68396  1.0000
  Fe  Fe35      1.0  0.18721  0.40967  0.58556  1.0000
  S   S70       1.0  0.23239  0.39194  0.57224  1.0000
  Fe  Fe36      1.0  0.10769  0.41790  0.59224  1.0000
  S   S71       1.0  0.05405  0.40665  0.58335  1.0000
  S   S72       1.0  0.20226  0.43441  0.60330  1.0000
  S   S73       1.0  0.11756  0.44287  0.61098  1.0000
  Fe  Fe37      1.0  0.29938  0.43443  0.81902  1.0000
  S   S74       1.0  0.34000  0.41436  0.82967  1.0000
  S   S75       1.0  0.28979  0.44016  0.77255  1.0000
  Fe  Fe38      1.0  0.29399  0.44564  0.88132  1.0000
  S   S76       1.0  0.33206  0.42534  0.89519  1.0000
  S   S77       1.0  0.27578  0.46808  0.90835  1.0000
  Fe  Fe39      1.0  0.36534  0.43256  0.85834  1.0000
  S   S78       1.0  0.42144  0.44081  0.86838  1.0000
  Fe  Fe40      1.0  0.30324  0.40861  0.86556  1.0000
  S   S79       1.0  0.29895  0.38047  0.87207  1.0000
  S   S80       1.0  0.32792  0.45310  0.84490  1.0000
  S   S81       1.0  0.26172  0.42833  0.85419  1.0000
  C   C483      1.0  0.46160  0.43297  0.85365  1.0000
  H   H375      1.0  0.36913  0.43212  0.65325  1.0000
  C   C484      1.0  0.46205  0.42148  0.83198  1.0000
  C   C485      1.0  0.30196  0.36247  0.76375  1.0000
  H   H376      1.0  0.43726  0.41689  0.82412  1.0000
  C   C486      1.0  0.28821  0.47425  0.94268  1.0000
  C   C487      1.0  0.47283  0.48435  0.79514  1.0000
  H   H377      1.0  0.14850  0.45073  0.50071  1.0000
  H   H378      1.0  0.17613  0.32114  0.52580  1.0000
  H   H379      1.0  0.31099  0.38153  0.79418  1.0000
  C   C488      1.0  0.05915  0.41596  0.50997  1.0000
  C   C489      1.0  0.26299  0.36672  0.87697  1.0000
  C   C490      1.0  0.27041  0.34945  0.87748  1.0000
  C   C491      1.0  0.24285  0.33790  0.87984  1.0000
  C   C492      1.0  0.20752  0.34349  0.88244  1.0000
  C   C493      1.0  0.20016  0.36076  0.88284  1.0000
  C   C494      1.0  0.22763  0.37235  0.87969  1.0000
  H   H380      1.0  0.29765  0.34496  0.87555  1.0000
  H   H381      1.0  0.24899  0.32467  0.87988  1.0000
  H   H382      1.0  0.17305  0.36517  0.88556  1.0000
  H   H383      1.0  0.22151  0.38557  0.87953  1.0000
  H   H384      1.0  0.05241  0.47939  0.57716  1.0000
  C   C495      1.0  0.01309  0.41678  0.59172  1.0000
  H   H385      1.0  0.43911  0.38520  0.61785  1.0000
  C   C496      1.0  0.24643  0.33198  0.70976  1.0000
  H   H386      1.0  0.03467  0.43349  0.62165  1.0000
  C   C497      1.0  0.15780  0.47548  0.51534  1.0000
  C   C498      1.0  0.16055  0.49230  0.50708  1.0000
  H   H387      1.0  0.16586  0.50159  0.52258  1.0000
  C   C499      1.0  0.20066  0.43208  0.70798  1.0000
  C   C500      1.0  0.23347  0.43855  0.70010  1.0000
  C   C501      1.0  0.26045  0.44072  0.72001  1.0000
  C   C502      1.0  0.25509  0.43653  0.74817  1.0000
  C   C503      1.0  0.22237  0.42993  0.75603  1.0000
  C   C504      1.0  0.19539  0.42777  0.73612  1.0000
  H   H388      1.0  0.23756  0.44234  0.67879  1.0000
  H   H389      1.0  0.28551  0.44593  0.71361  1.0000
  H   H390      1.0  0.21770  0.42676  0.77753  1.0000
  H   H391      1.0  0.17008  0.42294  0.74265  1.0000
  C   C505      1.0  0.23091  0.37028  0.57912  1.0000
  C   C506      1.0  0.26051  0.36002  0.57239  1.0000
  C   C507      1.0  0.25986  0.34269  0.57703  1.0000
  C   C508      1.0  0.22916  0.33543  0.58758  1.0000
  C   C509      1.0  0.19979  0.34569  0.59473  1.0000
  C   C510      1.0  0.20070  0.36305  0.59068  1.0000
  H   H392      1.0  0.28381  0.36545  0.56315  1.0000
  H   H393      1.0  0.28266  0.33487  0.57175  1.0000
  H   H394      1.0  0.17593  0.34015  0.60292  1.0000
  H   H395      1.0  0.17775  0.37079  0.59589  1.0000
  H   H396      1.0  0.30266  0.41406  0.57950  1.0000
  H   H397      1.0  0.15900  0.51024  0.47316  1.0000
  C   C511      1.0  0.24434  0.32710  0.68187  1.0000
  C   C512      1.0  0.27958  0.39400  0.64551  1.0000
  C   C513      1.0  0.25291  0.36670  0.64719  1.0000
  H   H398      1.0  0.46604  0.45259  0.92556  1.0000
  H   H399      1.0  0.29508  0.44074  0.65699  1.0000
  C   C514      1.0  0.33529  0.41360  0.67187  1.0000
  C   C515      1.0  0.15078  0.46369  0.49488  1.0000
  H   H400      1.0  0.26254  0.32714  0.81512  1.0000
  H   H401      1.0  0.46242  0.50564  0.76880  1.0000
  C   C516      1.0  0.41147  0.38560  0.61160  1.0000
  C   C517      1.0  0.19662  0.54233  0.94519  1.0000
  H   H402      1.0  0.34023  0.33844  0.53478  1.0000
  H   H403      1.0  0.17545  0.56663  0.93296  1.0000
  H   H404      1.0  0.16886  0.42619  0.87303  1.0000
  S   S82       1.0  0.17190  0.32943  0.88605  1.0000
  C   C518      1.0  0.29354  0.44026  0.63461  1.0000
  C   C519      1.0  0.37555  0.47735  0.92108  1.0000
  C   C520      1.0  0.38549  0.48831  0.94184  1.0000
  C   C521      1.0  0.39651  0.50429  0.93475  1.0000
  C   C522      1.0  0.39648  0.50950  0.90695  1.0000
  C   C523      1.0  0.38558  0.49864  0.88604  1.0000
  C   C524      1.0  0.37601  0.48241  0.89335  1.0000
  P   P16       1.0  0.38184  0.50545  0.85028  1.0000
  C   C525      1.0  0.34034  0.49803  0.83669  1.0000
  C   C526      1.0  0.38155  0.52795  0.84901  1.0000
  C   C527      1.0  0.34940  0.53717  0.84759  1.0000
  C   C528      1.0  0.34957  0.55459  0.84711  1.0000
  C   C529      1.0  0.38176  0.56293  0.84813  1.0000
  C   C530      1.0  0.41386  0.55385  0.84968  1.0000
  C   C531      1.0  0.41380  0.53643  0.85016  1.0000
  C   C532      1.0  0.33800  0.49267  0.80905  1.0000
  C   C533      1.0  0.30614  0.48640  0.79904  1.0000
  C   C534      1.0  0.27636  0.48553  0.81642  1.0000
  C   C535      1.0  0.27834  0.49098  0.84383  1.0000
  C   C536      1.0  0.31015  0.49719  0.85397  1.0000
  C   C537      1.0  0.41844  0.49743  0.82940  1.0000
  C   C538      1.0  0.43613  0.48244  0.83651  1.0000
  C   C539      1.0  0.46325  0.47596  0.81944  1.0000
  H   H405      1.0  0.19978  0.50850  0.90256  1.0000
  H   H406      1.0  0.41152  0.43663  0.93287  1.0000
  C   C540      1.0  0.42823  0.50579  0.80488  1.0000
  H   H407      1.0  0.36668  0.46498  0.92638  1.0000
  C   C541      1.0  0.30355  0.46311  0.96191  1.0000
  C   C542      1.0  0.21123  0.32487  0.66960  1.0000
  H   H408      1.0  0.40425  0.52206  0.90212  1.0000
  H   H409      1.0  0.36808  0.47372  0.87770  1.0000
  H   H410      1.0  0.32414  0.53100  0.84693  1.0000
  H   H411      1.0  0.32467  0.56164  0.84599  1.0000
  H   H412      1.0  0.99750  0.35710  0.71185  1.0000
  C   C543      1.0  0.13215  0.39155  0.71261  1.0000
  H   H413      1.0  0.43887  0.52956  0.85166  1.0000
  H   H414      1.0  0.36083  0.49284  0.79533  1.0000
  H   H415      1.0  0.30479  0.48161  0.77807  1.0000
  H   H416      1.0  0.25213  0.48012  0.80886  1.0000
  H   H417      1.0  0.25567  0.48972  0.85765  1.0000
  H   H418      1.0  0.31133  0.50085  0.87556  1.0000
  H   H419      1.0  0.42891  0.47556  0.85499  1.0000
  C   C544      1.0  0.36123  0.35262  0.66708  1.0000
  H   H420      1.0  0.43879  0.56032  0.85063  1.0000
  C   C545      1.0  0.32965  0.32920  0.52101  1.0000
  H   H421      1.0  0.41429  0.51713  0.79853  1.0000
  H   H422      1.0  0.30699  0.37056  0.63614  1.0000
  C   C546      1.0  0.21850  0.35322  0.49379  1.0000
  H   H423      1.0  0.39526  0.40153  0.64497  1.0000
  C   C547      1.0  0.34026  0.38664  0.59537  1.0000
  H   H424      1.0  0.31262  0.38663  0.58910  1.0000
  H   H425      1.0  0.24362  0.36650  0.71011  1.0000
  H   H426      1.0  0.30443  0.39678  0.69740  1.0000
  H   H427      1.0  0.00234  0.45990  0.58040  1.0000
  H   H428      1.0  0.13463  0.40223  0.89062  1.0000
  C   C548      1.0  0.15666  0.49727  0.47896  1.0000
  C   C549      1.0  0.29805  0.42529  0.59124  1.0000
  C   C550      1.0  0.29649  0.37819  0.77567  1.0000
  C   C551      1.0  0.30202  0.42548  0.62024  1.0000
  C   C552      1.0  0.35053  0.39559  0.61885  1.0000
  C   C553      1.0  0.17300  0.36341  0.52557  1.0000
  H   H429      1.0  0.37089  0.36426  0.65884  1.0000
  C   C554      1.0  0.24722  0.40116  0.65456  1.0000
  C   C555      1.0  0.36037  0.42549  0.72266  1.0000
  H   H430      1.0  0.32076  0.35389  0.77337  1.0000
  C   C556      1.0  0.32374  0.40655  0.69704  1.0000
  C   C557      1.0  0.22061  0.37397  0.65562  1.0000
  C   C558      1.0  0.04606  0.42208  0.48459  1.0000
  C   C559      1.0  0.29065  0.64144  0.47947  1.0000
  H   H431      1.0  0.33469  0.53957  0.94985  1.0000
  C   C560      1.0  0.21501  0.33375  0.72542  1.0000
  H   H432      1.0  0.26931  0.46531  0.58027  1.0000
  H   H433      1.0  0.19318  0.39685  0.66688  1.0000
  H   H434      1.0  0.20740  0.37924  0.50198  1.0000
  H   H435      1.0  0.19750  0.36631  0.65818  1.0000
  C   C561      1.0  0.04627  0.34043  0.82837  1.0000
  H   H436      1.0  0.47644  0.46427  0.82493  1.0000
  C   C562      1.0  0.37249  0.43236  0.69773  1.0000
  H   H437      1.0  0.26794  0.32528  0.66922  1.0000
  C   C563      1.0  0.25290  0.38521  0.74052  1.0000
  C   C564      1.0  0.36530  0.37725  0.58022  1.0000
  C   C565      1.0  0.05467  0.46435  0.51134  1.0000
  H   H438      1.0  0.38180  0.57643  0.84780  1.0000
  H   H439      1.0  0.32659  0.40753  0.74175  1.0000
  H   H440      1.0  0.27866  0.34144  0.51841  1.0000
  H   H441      1.0  0.27519  0.46584  0.63150  1.0000
  H   H442      1.0  0.42030  0.36945  0.57652  1.0000
  C   C566      1.0  0.11395  0.39948  0.73437  1.0000
  H   H443      1.0  0.28296  0.43928  0.55465  1.0000
  H   H444      1.0  0.23853  0.64473  0.49718  1.0000
  C   C567      1.0  0.17546  0.41607  0.83198  1.0000
  C   C568      1.0  0.16306  0.41594  0.85936  1.0000
  H   H445      1.0  0.47594  0.50377  0.87947  1.0000
  C   C569      1.0  0.13683  0.38908  0.85178  1.0000
  C   C570      1.0  0.14946  0.38904  0.82429  1.0000
  C   C571      1.0  0.16905  0.40262  0.81458  1.0000
  P   P17       1.0  0.14315  0.37131  0.80205  1.0000
  C   C572      1.0  0.18154  0.35739  0.80435  1.0000
  C   C573      1.0  0.10432  0.35994  0.81279  1.0000
  C   C574      1.0  0.07263  0.36079  0.79749  1.0000
  C   C575      1.0  0.04370  0.35108  0.80534  1.0000
  C   C576      1.0  0.33792  0.32176  0.75992  1.0000
  C   C577      1.0  0.07765  0.33959  0.84373  1.0000
  C   C578      1.0  0.10643  0.34934  0.83606  1.0000
  C   C579      1.0  0.17787  0.34013  0.80078  1.0000
  C   C580      1.0  0.45224  0.45342  0.94533  1.0000
  C   C581      1.0  0.24025  0.33555  0.81099  1.0000
  C   C582      1.0  0.24440  0.35269  0.81339  1.0000
  C   C583      1.0  0.21524  0.36360  0.81015  1.0000
  C   C584      1.0  0.13817  0.37898  0.76693  1.0000
  C   C585      1.0  0.11683  0.39320  0.76145  1.0000
  H   H446      1.0  0.25479  0.35345  0.64321  1.0000
  H   H447      1.0  0.12873  0.64392  0.48742  1.0000
  C   C586      1.0  0.15330  0.37737  0.71794  1.0000
  C   C587      1.0  0.15647  0.37116  0.74500  1.0000
  H   H448      1.0  0.19064  0.42649  0.82441  1.0000
  C   C588      1.0  0.38643  0.39497  0.62686  1.0000
  H   H449      1.0  0.12226  0.37871  0.86008  1.0000
  H   H450      1.0  0.17984  0.40273  0.79368  1.0000
  H   H451      1.0  0.07023  0.36872  0.77936  1.0000
  H   H452      1.0  0.40444  0.51273  0.95087  1.0000
  H   H453      1.0  0.15943  0.37373  0.53591  1.0000
  H   H454      1.0  0.23409  0.39411  0.73143  1.0000
  H   H455      1.0  0.13069  0.34837  0.84803  1.0000
  H   H456      1.0  0.15235  0.33493  0.79597  1.0000
  H   H457      1.0  0.05189  0.42199  0.52930  1.0000
  H   H458      1.0  0.39410  0.33738  0.63996  1.0000
  H   H459      1.0  0.26996  0.35749  0.81925  1.0000
  H   H460      1.0  0.21907  0.37676  0.81322  1.0000
  H   H461      1.0  0.10290  0.39959  0.77817  1.0000
  H   H462      1.0  0.24430  0.41450  0.65717  1.0000
  C   C589      1.0  0.32253  0.33765  0.69867  1.0000
  H   H463      1.0  0.16755  0.37129  0.70115  1.0000
  H   H464      1.0  0.17353  0.36043  0.74882  1.0000
  H   H465      1.0  0.30909  0.45036  0.95588  1.0000
  C   C590      1.0  0.20707  0.32926  0.80443  1.0000
  C   C591      1.0  0.18111  0.55395  0.92671  1.0000
  C   C592      1.0  0.27908  0.45434  0.59136  1.0000
  C   C593      1.0  0.36010  0.42643  0.67242  1.0000
  C   C594      1.0  0.28242  0.37660  0.64258  1.0000
  P   P18       1.0  0.28833  0.33739  0.72512  1.0000
  C   C595      1.0  0.28229  0.45461  0.62022  1.0000
  C   C596      1.0  0.33628  0.41253  0.72228  1.0000
  C   C597      1.0  0.21804  0.39114  0.66000  1.0000
  C   C598      1.0  0.28113  0.49079  0.95122  1.0000
  H   H466      1.0  0.08006  0.33121  0.86143  1.0000
  H   H467      1.0  0.36901  0.43038  0.74239  1.0000
  C   C599      1.0  0.40091  0.37674  0.58830  1.0000
  C   C600      1.0  0.14374  0.40246  0.86924  1.0000
  C   C601      1.0  0.28682  0.43967  0.57692  1.0000
  C   C602      1.0  0.20016  0.36651  0.50647  1.0000
  C   C603      1.0  0.04475  0.47231  0.55917  1.0000
  C   C604      1.0  0.27172  0.38947  0.76425  1.0000
  C   C605      1.0  0.02639  0.45323  0.51291  1.0000
  H   H468      1.0  0.10906  0.38295  0.48681  1.0000
  H   H469      1.0  0.26751  0.40160  0.77368  1.0000
  H   H470      1.0  0.39094  0.44252  0.69810  1.0000
  P   P19       1.0  0.31737  0.40703  0.63902  1.0000
  C   C606      1.0  0.36196  0.32246  0.66709  1.0000
  C   C607      1.0  0.28024  0.54318  0.96313  1.0000
  C   C608      1.0  0.18004  0.32726  0.68509  1.0000
  C   C609      1.0  0.25841  0.36954  0.72849  1.0000
  H   H471      1.0  0.21621  0.33721  0.74706  1.0000
  H   H472      1.0  0.21505  0.51666  0.95002  1.0000
  H   H473      1.0  0.13026  0.39661  0.69171  1.0000
  C   C610      1.0  0.25403  0.64483  0.47817  1.0000
  H   H474      1.0  0.17219  0.52916  0.87014  1.0000
  C   C611      1.0  0.01083  0.42946  0.61146  1.0000
  H   H475      1.0  0.38426  0.48440  0.96337  1.0000
  C   C612      1.0  0.18194  0.33131  0.71317  1.0000
  C   C613      1.0  0.17231  0.54918  0.89976  1.0000
  C   C614      1.0  0.20318  0.52591  0.93619  1.0000
  H   H476      1.0  0.14371  0.34465  0.54741  1.0000
  C   C615      1.0  0.19452  0.52121  0.90923  1.0000
  H   H477      1.0  0.16015  0.55817  0.88564  1.0000
  C   C616      1.0  0.17905  0.53284  0.89101  1.0000
  C   C617      1.0  0.42138  0.44436  0.94944  1.0000
  H   H478      1.0  0.01620  0.42661  0.71812  1.0000
  H   H479      1.0  0.26958  0.49957  0.93657  1.0000
  C   C618      1.0  0.28262  0.35792  0.74023  1.0000
  H   H480      1.0  0.35695  0.37032  0.56225  1.0000
  C   C619      1.0  0.16429  0.34702  0.53214  1.0000
  H   H481      1.0  0.08608  0.48211  0.53316  1.0000
  H   H482      1.0  0.23946  0.35583  0.47898  1.0000
  C   C620      1.0  0.33620  0.32251  0.68814  1.0000
  H   H483      1.0  0.20987  0.32130  0.64798  1.0000
  C   C621      1.0  0.00772  0.45163  0.53814  1.0000
  H   H484      1.0  0.09833  0.41073  0.73019  1.0000
  C   C622      1.0  0.06367  0.47387  0.53433  1.0000
  C   C623      1.0  0.46480  0.46361  0.96642  1.0000
  H   H485      1.0  0.15782  0.33261  0.72546  1.0000
  H   H486      1.0  0.21280  0.58325  0.96361  1.0000
  H   H487      1.0  0.01939  0.35165  0.79339  1.0000
  H   H488      1.0  0.02411  0.33271  0.83424  1.0000
  H   H489      1.0  0.32517  0.36455  0.69575  1.0000
  C   C624      1.0  0.21041  0.33669  0.50069  1.0000
  P   P20       1.0  0.23426  0.31974  0.48373  1.0000
  C   C625      1.0  0.18302  0.33368  0.51992  1.0000
  C   C626      1.0  0.37438  0.33750  0.65648  1.0000
  C   C627      1.0  0.33530  0.35272  0.68806  1.0000
  C   C628      1.0  0.45539  0.49929  0.78789  1.0000
  H   H490      1.0  0.30315  0.63900  0.49933  1.0000
  C   C629      1.0  0.08167  0.40187  0.51070  1.0000
  C   C630      1.0  0.30234  0.32230  0.75112  1.0000
  H   H491      1.0  0.27114  0.53307  0.95052  1.0000
  C   C631      1.0  0.29457  0.33084  0.51164  1.0000
  H   H492      1.0  0.07069  0.46543  0.49281  1.0000
  H   H493      1.0  0.09138  0.39721  0.53050  1.0000
  C   C632      1.0  0.01671  0.46126  0.56102  1.0000
  P   P21       1.0  0.01624  0.44002  0.48380  1.0000
  H   H494      1.0  0.35708  0.33016  0.75098  1.0000
  C   C633      1.0  0.31643  0.54689  0.96259  1.0000
  C   C634      1.0  0.09145  0.39382  0.48611  1.0000
  H   H495      1.0  0.48825  0.47089  0.96261  1.0000
  H   H496      1.0  0.15442  0.32582  0.67538  1.0000
  H   H497      1.0  0.99608  0.48486  0.47479  1.0000
  C   C635      1.0  0.28021  0.31858  0.49464  1.0000
  Fe  Fe41      1.0  0.26600  0.69895  0.36420  1.0000
  S   S83       1.0  0.29216  0.67547  0.38046  1.0000
  S   S84       1.0  0.23824  0.71902  0.39215  1.0000
  Fe  Fe42      1.0  0.28326  0.68895  0.30234  1.0000
  S   S85       1.0  0.31133  0.66520  0.31622  1.0000
  S   S86       1.0  0.28359  0.69274  0.25458  1.0000
  Fe  Fe43      1.0  0.26514  0.66221  0.34552  1.0000
  C   C636      1.0  0.30013  0.96550  0.39223  1.0000
  Fe  Fe44      1.0  0.33673  0.68051  0.34960  1.0000
  S   S87       1.0  0.39424  0.67650  0.36588  1.0000
  S   S88       1.0  0.23626  0.68548  0.33060  1.0000
  S   S89       1.0  0.31146  0.70460  0.33439  1.0000
  Fe  Fe45      1.0  0.17456  0.70110  0.04348  1.0000
  S   S90       1.0  0.15195  0.67715  0.02831  1.0000
  S   S91       1.0  0.18823  0.72319  0.01392  1.0000
  Fe  Fe46      1.0  0.16916  0.68904  0.10572  1.0000
  S   S92       1.0  0.14603  0.66456  0.09310  1.0000
  S   S93       1.0  0.17258  0.69353  0.15307  1.0000
  Fe  Fe47      1.0  0.18780  0.66439  0.05970  1.0000
  H   H498      1.0  0.29024  0.65656  0.24881  1.0000
  Fe  Fe48      1.0  0.11143  0.67952  0.06336  1.0000
  S   S94       1.0  0.05293  0.67324  0.05352  1.0000
  S   S95       1.0  0.21263  0.68828  0.07337  1.0000
  S   S96       1.0  0.13237  0.70415  0.07733  1.0000
  C   C637      1.0  0.38418  0.72076  0.05783  1.0000
  H   H499      1.0  0.34384  0.66239  0.05240  1.0000
  C   C638      1.0  0.17422  0.68210  0.42581  1.0000
  H   H500      1.0  0.02746  0.69273  0.10195  1.0000
  H   H501      1.0  0.38038  0.73296  0.39520  1.0000
  C   C639      1.0  0.25177  0.69114  0.22706  1.0000
  C   C640      1.0  0.26402  0.68852  0.19963  1.0000
  C   C641      1.0  0.24026  0.68845  0.17691  1.0000
  C   C642      1.0  0.20379  0.69156  0.18110  1.0000
  C   C643      1.0  0.19146  0.69377  0.20857  1.0000
  C   C644      1.0  0.21510  0.69339  0.23137  1.0000
  H   H502      1.0  0.29223  0.68670  0.19592  1.0000
  H   H503      1.0  0.25035  0.68648  0.15610  1.0000
  H   H504      1.0  0.16340  0.69613  0.21226  1.0000
  H   H505      1.0  0.20509  0.69549  0.25218  1.0000
  C   C645      1.0  0.43788  0.68190  0.35381  1.0000
  C   C646      1.0  0.46810  0.67509  0.36740  1.0000
  C   C647      1.0  0.44335  0.69299  0.33171  1.0000
  C   C648      1.0  0.00455  0.68828  0.09099  1.0000
  H   H506      1.0  0.42065  0.69841  0.32098  1.0000
  C   C649      1.0  0.27412  0.67997  0.01757  1.0000
  C   C650      1.0  0.21107  0.72790  0.98191  1.0000
  C   C651      1.0  0.17930  0.66487  0.42184  1.0000
  H   H507      1.0  0.18868  0.74281  0.07481  1.0000
  H   H508      1.0  0.29802  0.94036  0.46059  1.0000
  C   C652      1.0  0.20815  0.73770  0.43504  1.0000
  C   C653      1.0  0.22695  0.72288  0.42804  1.0000
  H   H509      1.0  0.47001  0.96617  0.38445  1.0000
  H   H510      1.0  0.20099  0.74646  0.41874  1.0000
  H   H511      1.0  0.25013  0.70031  0.44480  1.0000
  H   H512      1.0  0.18044  0.65648  0.18390  1.0000
  H   H513      1.0  0.26236  0.94780  0.25514  1.0000
  C   C654      1.0  0.33324  0.72086  0.45898  1.0000
  H   H514      1.0  0.36474  0.77440  0.47003  1.0000
  C   C655      1.0  0.48753  0.68891  0.44824  1.0000
  H   H515      1.0  0.45875  0.76806  0.42469  1.0000
  C   C656      1.0  0.43474  0.69805  0.42334  1.0000
  C   C657      1.0  0.27206  0.65677  0.11505  1.0000
  C   C658      1.0  0.41925  0.77785  0.01308  1.0000
  H   H516      1.0  0.16338  0.70592  0.40639  1.0000
  C   C659      1.0  0.13198  0.65239  0.16202  1.0000
  C   C660      1.0  0.29801  0.66771  0.02720  1.0000
  C   C661      1.0  0.36254  0.97107  0.30596  1.0000
  C   C662      1.0  0.17200  0.97104  0.99623  1.0000
  H   H517      1.0  0.24372  0.65177  0.28431  1.0000
  H   H518      1.0  0.25169  0.67651  0.00499  1.0000
  C   C663      1.0  0.05301  0.94519  0.98429  1.0000
  H   H519      1.0  0.44133  0.71995  0.06144  1.0000
  H   H520      1.0  0.39251  0.73791  0.00671  1.0000
  C   C664      1.0  0.24265  0.73509  0.06547  1.0000
  H   H521      1.0  0.39392  0.76455  0.42107  1.0000
  H   H522      1.0  0.30076  0.75865  0.04555  1.0000
  H   H523      1.0  0.38434  0.71306  0.03944  1.0000
  C   C665      1.0  0.39236  0.74404  0.45047  1.0000
  C   C666      1.0  0.38881  0.98243  0.29895  1.0000
  C   C667      1.0  0.16624  0.69259  0.40331  1.0000
  C   C668      1.0  0.32982  0.68862  0.05249  1.0000
  C   C669      1.0  0.30547  0.76409  0.00197  1.0000
  C   C670      1.0  0.19838  0.74138  0.46288  1.0000
  H   H524      1.0  0.30110  0.77737  0.00458  1.0000
  H   H525      1.0  0.23313  0.94749  0.34006  1.0000
  C   C671      1.0  0.30660  0.70110  0.04210  1.0000
  H   H526      1.0  0.40717  0.69631  0.41778  1.0000
  H   H527      1.0  0.44670  0.79176  0.98172  1.0000
  C   C672      1.0  0.19185  0.97480  0.25973  1.0000
  H   H528      1.0  0.46445  0.66653  0.38456  1.0000
  H   H529      1.0  0.26236  0.75790  0.37202  1.0000
  H   H530      1.0  0.24128  0.74006  0.04456  1.0000
  P   P22       1.0  0.29333  0.95946  0.30776  1.0000
  C   C673      1.0  0.31020  0.93918  0.29728  1.0000
  C   C674      1.0  0.25292  0.96484  0.28932  1.0000
  C   C675      1.0  0.24497  0.95731  0.26393  1.0000
  C   C676      1.0  0.32593  0.69146  0.44926  1.0000
  H   H531      1.0  0.37002  0.95974  0.31700  1.0000
  C   C677      1.0  0.28869  0.75308  0.37712  1.0000
  C   C678      1.0  0.41682  0.73492  0.09350  1.0000
  C   C679      1.0  0.32956  0.93754  0.27236  1.0000
  C   C680      1.0  0.34266  0.92192  0.26394  1.0000
  C   C681      1.0  0.33660  0.90783  0.28032  1.0000
  C   C682      1.0  0.31744  0.90936  0.30516  1.0000
  C   C683      1.0  0.30426  0.92496  0.31365  1.0000
  C   C684      1.0  0.32682  0.97443  0.29902  1.0000
  C   C685      1.0  0.27323  0.71944  0.10164  1.0000
  H   H532      1.0  0.16905  0.96119  0.01142  1.0000
  H   H533      1.0  0.29602  0.71226  0.10905  1.0000
  C   C686      1.0  0.29865  0.75136  0.40493  1.0000
  C   C687      1.0  0.31183  0.74777  0.35601  1.0000
  H   H534      1.0  0.20881  0.95671  0.22937  1.0000
  H   H535      1.0  0.08215  0.97869  0.06335  1.0000
  H   H536      1.0  0.09025  0.98325  0.97499  1.0000
  C   C688      1.0  0.31567  0.72977  0.99497  1.0000
  C   C689      1.0  0.42120  0.75146  0.97553  1.0000
  H   H537      1.0  0.12099  0.66464  0.16700  1.0000
  H   H538      1.0  0.33230  0.97147  0.35700  1.0000
  C   C690      1.0  0.16799  0.66893  0.37258  1.0000
  H   H539      1.0  0.26306  0.95783  0.42381  1.0000
  C   C691      1.0  0.47829  0.69717  0.32346  1.0000
  H   H540      1.0  0.33432  0.94833  0.25933  1.0000
  H   H541      1.0  0.35743  0.92074  0.24463  1.0000
  H   H542      1.0  0.34671  0.89572  0.27374  1.0000
  H   H543      1.0  0.31274  0.89841  0.31785  1.0000
  H   H544      1.0  0.28953  0.92579  0.33295  1.0000
  H   H545      1.0  0.17673  0.68767  0.44598  1.0000
  H   H546      1.0  0.99605  0.98106  0.99829  1.0000
  H   H547      1.0  0.16654  0.66386  0.35183  1.0000
  C   C692      1.0  0.45147  0.68717  0.44214  1.0000
  C   C693      1.0  0.41650  0.72472  0.07010  1.0000
  C   C694      1.0  0.32584  0.67202  0.04462  1.0000
  H   H548      1.0  0.34682  0.95997  0.45662  1.0000
  C   C695      1.0  0.30506  0.75344  0.02509  1.0000
  C   C696      1.0  0.30777  0.96597  0.36378  1.0000
  H   H549      1.0  0.38508  0.74931  0.12246  1.0000
  H   H550      1.0  0.35054  0.69154  0.06698  1.0000
  H   H551      1.0  0.46939  0.95475  0.43189  1.0000
  C   C697      1.0  0.00960  0.67877  0.06695  1.0000
  C   C698      1.0  0.35188  0.72676  0.06912  1.0000
  H   H552      1.0  0.22024  0.65472  0.13318  1.0000
  H   H553      1.0  0.33894  0.70959  0.41829  1.0000
  C   C699      1.0  0.30962  0.73616  0.02172  1.0000
  C   C700      1.0  0.40386  0.76272  0.02024  1.0000
  H   H554      1.0  0.10040  0.96717  0.01782  1.0000
  C   C701      1.0  0.33199  0.74432  0.41183  1.0000
  C   C702      1.0  0.24467  0.95196  0.38290  1.0000
  H   H555      1.0  0.43662  0.67714  0.45142  1.0000
  P   P23       1.0  0.31056  0.72264  0.05187  1.0000
  H   H556      1.0  0.32619  0.65617  0.10042  1.0000
  H   H557      1.0  0.41620  0.98007  0.30495  1.0000
  P   P24       1.0  0.34487  0.74158  0.44769  1.0000
  C   C703      1.0  0.24337  0.72132  0.11891  1.0000
  H   H558      1.0  0.18943  0.73067  0.12244  1.0000
  C   C704      1.0  0.43531  0.77988  0.98702  1.0000
  C   C705      1.0  0.21297  0.72980  0.10933  1.0000
  C   C706      1.0  0.27836  0.69660  0.02500  1.0000
  C   C707      1.0  0.25202  0.95258  0.35443  1.0000
  H   H559      1.0  0.27973  0.75508  0.42083  1.0000
  H   H560      1.0  0.32811  0.74278  0.10060  1.0000
  C   C708      1.0  0.40487  0.74954  0.00145  1.0000
  C   C709      1.0  0.21263  0.73669  0.08262  1.0000
  C   C710      1.0  0.27318  0.72646  0.07484  1.0000
  C   C711      1.0  0.44877  0.96360  0.42593  1.0000
  H   H561      1.0  0.44184  0.73795  0.10310  1.0000
  H   H562      1.0  0.00163  0.94877  0.00325  1.0000
  H   H563      1.0  0.22029  0.94649  0.39036  1.0000
  C   C712      1.0  0.44591  0.75849  0.43687  1.0000
  C   C713      1.0  0.16326  0.68603  0.37671  1.0000
  H   H564      1.0  0.36261  0.73624  0.34630  1.0000
  C   C714      1.0  0.33341  0.70759  0.44012  1.0000
  H   H565      1.0  0.30358  0.74866  0.33453  1.0000
  C   C715      1.0  0.40921  0.75643  0.43481  1.0000
  C   C716      1.0  0.08655  0.97911  0.01876  1.0000
  H   H566      1.0  0.25914  0.70592  0.01791  1.0000
  C   C717      1.0  0.28366  0.95957  0.34460  1.0000
  C   C718      1.0  0.45382  0.71091  0.41112  1.0000
  H   H567      1.0  0.15817  0.69428  0.35921  1.0000
  C   C719      1.0  0.35503  0.73892  0.39045  1.0000
  H   H568      1.0  0.44094  0.71920  0.39628  1.0000
  H   H569      1.0  0.24324  0.71584  0.13952  1.0000
  C   C720      1.0  0.35250  0.73740  0.09213  1.0000
  C   C721      1.0  0.42214  0.96871  0.44485  1.0000
  C   C722      1.0  0.22990  0.97734  0.29978  1.0000
  H   H570      1.0  0.26378  0.66658  0.10085  1.0000
  C   C723      1.0  0.38484  0.74130  0.10443  1.0000
  H   H571      1.0  0.32596  0.68131  0.43457  1.0000
  C   C724      1.0  0.34505  0.74075  0.36268  1.0000
  H   H572      1.0  0.31980  0.71655  0.99166  1.0000
  C   C725      1.0  0.26877  0.95836  0.40178  1.0000
  C   C726      1.0  0.21453  0.96231  0.24921  1.0000
  C   C727      1.0  0.23583  0.71177  0.44961  1.0000
  C   C728      1.0  0.31094  0.75759  0.97540  1.0000
  H   H573      1.0  0.31845  0.97077  0.40691  1.0000
  C   C729      1.0  0.17602  0.65839  0.39500  1.0000
  H   H574      1.0  0.20168  0.75435  0.98615  1.0000
  H   H575      1.0  0.41841  0.78811  0.02760  1.0000
  C   C730      1.0  0.44916  0.97001  0.39883  1.0000
  C   C731      1.0  0.01685  0.94972  0.98416  1.0000
  C   C732      1.0  0.21314  0.74466  0.97316  1.0000
  H   H576      1.0  0.39096  0.76123  0.04027  1.0000
  H   H577      1.0  0.06551  0.94086  0.00330  1.0000
  C   C733      1.0  0.42280  0.98144  0.39027  1.0000
  H   H578      1.0  0.16874  0.97894  0.24799  1.0000
  H   H579      1.0  0.48195  0.70579  0.30638  1.0000
  H   H580      1.0  0.29420  0.65478  0.02182  1.0000
  H   H581      1.0  0.45410  0.92887  0.45953  1.0000
  H   H582      1.0  0.00203  0.65669  0.15950  1.0000
  C   C734      1.0  0.39626  0.98050  0.43615  1.0000
  P   P25       1.0  0.18988  0.65104  0.45063  1.0000
  C   C735      1.0  0.46602  0.74826  0.45466  1.0000
  H   H583      1.0  0.18398  0.75284  0.46761  1.0000
  H   H584      1.0  0.23610  0.98375  0.31881  1.0000
  C   C736      1.0  0.41277  0.73377  0.46826  1.0000
  C   C737      1.0  0.19945  0.98224  0.28507  1.0000
  C   C738      1.0  0.32154  0.75697  0.46874  1.0000
  C   C739      1.0  0.35135  0.94848  0.46791  1.0000
  C   C740      1.0  0.31625  0.74046  0.97194  1.0000
  H   H585      1.0  0.22495  0.70267  0.97084  1.0000
  C   C741      1.0  0.32341  0.93734  0.47006  1.0000
  Fe  Fe49      1.0  0.34109  0.92573  0.58415  1.0000
  S   S97       1.0  0.31785  0.95125  0.59321  1.0000
  S   S98       1.0  0.39734  0.91873  0.56949  1.0000
  Fe  Fe50      1.0  0.26818  0.90899  0.58864  1.0000
  S   S99       1.0  0.23999  0.93363  0.59653  1.0000
  S   S100      1.0  0.23512  0.88582  0.59554  1.0000
  Fe  Fe51      1.0  0.27530  0.94439  0.56262  1.0000
  S   S101      1.0  0.25282  0.95933  0.52499  1.0000
  Fe  Fe52      1.0  0.28441  0.93827  0.62644  1.0000
  S   S102      1.0  0.27930  0.94567  0.67279  1.0000
  S   S103      1.0  0.29939  0.91918  0.55283  1.0000
  S   S104      1.0  0.31164  0.91340  0.61921  1.0000
  Fe  Fe53      1.0  0.18487  0.79421  0.55582  1.0000
  S   S105      1.0  0.21105  0.77117  0.57403  1.0000
  S   S106      1.0  0.21980  0.81487  0.53919  1.0000
  Fe  Fe54      1.0  0.10944  0.77993  0.56101  1.0000
  S   S107      1.0  0.13120  0.75589  0.57940  1.0000
  S   S108      1.0  0.05176  0.78908  0.55231  1.0000
  Fe  Fe55      1.0  0.16653  0.77204  0.60579  1.0000
  S   S109      1.0  0.16621  0.77247  0.65395  1.0000
  Fe  Fe56      1.0  0.17435  0.75701  0.54581  1.0000
  S   S110      1.0  0.19634  0.73429  0.52040  1.0000
  S   S111      1.0  0.14251  0.79597  0.58862  1.0000
  S   S112      1.0  0.15044  0.78018  0.52632  1.0000
  Fe  Fe57      1.0  0.16817  0.93638  0.82459  1.0000
  S   S113      1.0  0.14679  0.91222  0.84160  1.0000
  S   S114      1.0  0.17098  0.93687  0.77631  1.0000
  Fe  Fe58      1.0  0.17055  0.95159  0.88465  1.0000
  S   S115      1.0  0.15108  0.92807  0.90408  1.0000
  H   H586      1.0  0.27987  0.91533  0.86638  1.0000
  Fe  Fe59      1.0  0.18802  0.91444  0.87461  1.0000
  S   S116      1.0  0.22455  0.89311  0.88916  1.0000
  Fe  Fe60      1.0  0.11157  0.92795  0.86922  1.0000
  S   S117      1.0  0.05562  0.92132  0.88278  1.0000
  S   S118      1.0  0.21110  0.93804  0.85705  1.0000
  S   S119      1.0  0.12922  0.95203  0.85043  1.0000
  Fe  Fe61      1.0  0.27635  0.76287  0.86578  1.0000
  S   S120      1.0  0.29728  0.78814  0.87664  1.0000
  S   S121      1.0  0.26606  0.74150  0.89776  1.0000
  Fe  Fe62      1.0  0.28044  0.77086  0.80174  1.0000
  S   S122      1.0  0.30271  0.79610  0.80970  1.0000
  S   S123      1.0  0.27529  0.76262  0.75601  1.0000
  Fe  Fe63      1.0  0.33782  0.78386  0.84206  1.0000
  S   S124      1.0  0.39488  0.79330  0.84806  1.0000
  Fe  Fe64      1.0  0.26091  0.79826  0.84305  1.0000
  S   S125      1.0  0.22008  0.81966  0.84027  1.0000
  S   S126      1.0  0.31837  0.75823  0.83231  1.0000
  S   S127      1.0  0.23730  0.77328  0.83410  1.0000
  C   C742      1.0  0.24449  0.73679  0.93033  1.0000
  H   H587      1.0  0.04855  0.97818  0.86681  1.0000
  H   H588      1.0  0.15698  0.85864  0.65709  1.0000
  C   C743      1.0  0.24282  0.72004  0.93925  1.0000
  C   C744      1.0  0.00178  0.76726  0.57492  1.0000
  H   H589      1.0  0.24771  0.80174  0.59726  1.0000
  H   H590      1.0  0.25416  0.71035  0.92621  1.0000
  C   C745      1.0  0.43976  0.78621  0.84142  1.0000
  C   C746      1.0  0.38393  0.94499  0.48113  1.0000
  C   C747      1.0  0.44802  0.77071  0.82960  1.0000
  H   H591      1.0  0.99997  0.72654  0.94675  1.0000
  H   H592      1.0  0.42672  0.76268  0.82365  1.0000
  C   C748      1.0  0.01627  0.92706  0.86493  1.0000
  C   C749      1.0  0.01703  0.93589  0.83985  1.0000
  H   H593      1.0  0.39055  0.95806  0.53581  1.0000
  H   H594      1.0  0.04219  0.93981  0.83133  1.0000
  C   C750      1.0  0.20963  0.91961  0.52054  1.0000
  H   H595      1.0  0.00893  0.95970  0.91552  1.0000
  H   H596      1.0  0.41499  0.94596  0.60692  1.0000
  H   H597      1.0  0.45183  0.83876  0.90681  1.0000
  C   C751      1.0  0.28651  0.75419  0.47748  1.0000
  C   C752      1.0  0.22269  0.87259  0.87604  1.0000
  C   C753      1.0  0.19646  0.86806  0.85732  1.0000
  C   C754      1.0  0.19567  0.85166  0.84733  1.0000
  C   C755      1.0  0.22153  0.83971  0.85528  1.0000
  C   C756      1.0  0.24754  0.84411  0.87433  1.0000
  C   C757      1.0  0.24810  0.86051  0.88463  1.0000
  H   H598      1.0  0.17675  0.87721  0.85059  1.0000
  H   H599      1.0  0.17516  0.84825  0.83305  1.0000
  H   H600      1.0  0.26727  0.83496  0.88104  1.0000
  H   H601      1.0  0.26840  0.86390  0.89924  1.0000
  C   C758      1.0  0.20733  0.73029  0.48448  1.0000
  C   C759      1.0  0.32407  0.92309  0.84106  1.0000
  H   H602      1.0  0.39548  0.84207  0.78597  1.0000
  H   H603      1.0  0.23415  0.90577  0.69402  1.0000
  H   H604      1.0  0.30912  0.83141  0.84144  1.0000
  C   C760      1.0  0.19788  0.77063  0.68167  1.0000
  C   C761      1.0  0.18684  0.77457  0.70896  1.0000
  C   C762      1.0  0.21025  0.77271  0.73176  1.0000
  C   C763      1.0  0.24515  0.76664  0.72777  1.0000
  C   C764      1.0  0.25624  0.76284  0.70046  1.0000
  C   C765      1.0  0.23301  0.76496  0.67759  1.0000
  H   H605      1.0  0.15983  0.77897  0.71254  1.0000
  H   H606      1.0  0.20105  0.77563  0.75250  1.0000
  H   H607      1.0  0.28304  0.75809  0.69696  1.0000
  H   H608      1.0  0.24210  0.76183  0.65689  1.0000
  C   C766      1.0  0.00795  0.78216  0.56062  1.0000
  C   C767      1.0  0.03232  0.92493  0.56733  1.0000
  C   C768      1.0  0.00083  0.86278  0.74542  1.0000
  C   C769      1.0  0.42295  0.79911  0.91409  1.0000
  H   H609      1.0  0.02412  0.75948  0.58142  1.0000
  C   C770      1.0  0.01587  0.80268  0.61800  1.0000
  C   C771      1.0  0.24901  0.94230  0.70127  1.0000
  C   C772      1.0  0.26114  0.94415  0.72872  1.0000
  C   C773      1.0  0.23814  0.94217  0.75189  1.0000
  C   C774      1.0  0.20221  0.93859  0.74803  1.0000
  C   C775      1.0  0.19013  0.93659  0.72058  1.0000
  C   C776      1.0  0.21323  0.93841  0.69744  1.0000
  H   H610      1.0  0.27014  0.78966  0.51413  1.0000
  H   H611      1.0  0.24804  0.94382  0.77270  1.0000
  H   H612      1.0  0.16245  0.93392  0.71716  1.0000
  H   H613      1.0  0.20315  0.93724  0.67661  1.0000
  C   C777      1.0  0.23297  0.86596  0.58005  1.0000
  C   C778      1.0  0.20897  0.85450  0.59121  1.0000
  C   C779      1.0  0.20502  0.83876  0.57912  1.0000
  C   C780      1.0  0.22474  0.83438  0.55551  1.0000
  C   C781      1.0  0.24881  0.84583  0.54434  1.0000
  C   C782      1.0  0.25306  0.86155  0.55661  1.0000
  H   H614      1.0  0.19317  0.85786  0.60923  1.0000
  H   H615      1.0  0.18665  0.83002  0.58800  1.0000
  H   H616      1.0  0.26422  0.84252  0.52608  1.0000
  H   H617      1.0  0.27156  0.87028  0.54782  1.0000
  C   C783      1.0  0.27234  0.97273  0.49950  1.0000
  C   C784      1.0  0.43818  0.92699  0.58070  1.0000
  C   C785      1.0  0.43946  0.94037  0.59907  1.0000
  H   H618      1.0  0.13713  0.68170  0.54947  1.0000
  C   C786      1.0  0.12008  0.83735  0.54489  1.0000
  P   P26       1.0  0.14369  0.74241  0.86262  1.0000
  C   C787      1.0  0.15164  0.76389  0.87082  1.0000
  C   C788      1.0  0.14499  0.72935  0.89332  1.0000
  C   C789      1.0  0.13741  0.73610  0.91959  1.0000
  C   C790      1.0  0.31794  0.70158  0.49611  1.0000
  C   C791      1.0  0.17827  0.76768  0.88984  1.0000
  C   C792      1.0  0.18560  0.78424  0.89591  1.0000
  C   C793      1.0  0.16677  0.79715  0.88262  1.0000
  C   C794      1.0  0.14101  0.79350  0.86291  1.0000
  C   C795      1.0  0.13355  0.77692  0.85687  1.0000
  C   C796      1.0  0.17818  0.73703  0.83781  1.0000
  C   C797      1.0  0.17553  0.74274  0.81024  1.0000
  C   C798      1.0  0.20347  0.73980  0.79146  1.0000
  C   C799      1.0  0.23452  0.73149  0.80019  1.0000
  C   C800      1.0  0.23752  0.72596  0.82765  1.0000
  C   C801      1.0  0.20948  0.72870  0.84639  1.0000
  H   H619      1.0  0.13161  0.74927  0.92205  1.0000
  C   C802      1.0  0.04053  0.79270  0.63240  1.0000
  H   H620      1.0  0.19389  0.75780  0.89948  1.0000
  C   C803      1.0  0.03134  0.73478  0.82794  1.0000
  H   H621      1.0  0.17310  0.81000  0.88684  1.0000
  H   H622      1.0  0.12761  0.80359  0.85185  1.0000
  H   H623      1.0  0.11434  0.77434  0.84094  1.0000
  H   H624      1.0  0.15235  0.74985  0.80341  1.0000
  H   H625      1.0  0.20175  0.74445  0.77032  1.0000
  H   H626      1.0  0.25662  0.72981  0.78581  1.0000
  H   H627      1.0  0.26206  0.72004  0.83471  1.0000
  H   H628      1.0  0.21292  0.72485  0.86778  1.0000
  C   C804      1.0  0.06914  0.85797  0.72302  1.0000
  C   C805      1.0  0.48306  0.81813  0.92318  1.0000
  H   H629      1.0  0.02406  0.93628  0.57785  1.0000
  C   C806      1.0  0.17374  0.66013  0.48270  1.0000
  C   C807      1.0  0.03034  0.86892  0.75951  1.0000
  C   C808      1.0  0.06440  0.86686  0.74771  1.0000
  P   P27       1.0  0.02474  0.88085  0.79094  1.0000
  H   H630      1.0  0.46957  0.90956  0.55642  1.0000
  C   C809      1.0  0.05501  0.87365  0.81763  1.0000
  C   C810      1.0  0.05966  0.88345  0.84125  1.0000
  C   C811      1.0  0.08354  0.87836  0.86192  1.0000
  C   C812      1.0  0.10232  0.86323  0.85949  1.0000
  C   C813      1.0  0.09691  0.85308  0.83650  1.0000
  C   C814      1.0  0.07321  0.85821  0.81565  1.0000
  H   H631      1.0  0.33191  0.79499  0.49870  1.0000
  H   H632      1.0  0.16817  0.83136  0.72742  1.0000
  C   C815      1.0  0.35033  0.85915  0.78402  1.0000
  H   H633      1.0  0.23484  0.80254  0.78218  1.0000
  C   C816      1.0  0.24187  0.88494  0.66673  1.0000
  C   C817      1.0  0.03324  0.90215  0.78095  1.0000
  C   C818      1.0  0.06553  0.90958  0.78770  1.0000
  C   C819      1.0  0.12282  0.84945  0.52407  1.0000
  C   C820      1.0  0.04678  0.93493  0.76392  1.0000
  C   C821      1.0  0.01498  0.92751  0.75653  1.0000
  C   C822      1.0  0.00838  0.91112  0.76473  1.0000
  H   H634      1.0  0.24566  0.86244  0.64342  1.0000
  C   C823      1.0  0.03976  0.85143  0.70960  1.0000
  H   H635      1.0  0.43293  0.73174  0.85455  1.0000
  C   C824      1.0  0.14294  0.65429  0.49581  1.0000
  H   H636      1.0  0.17768  0.81687  0.77237  1.0000
  C   C825      1.0  0.25374  0.97617  0.47469  1.0000
  H   H637      1.0  0.08760  0.88628  0.87975  1.0000
  H   H638      1.0  0.12109  0.85942  0.87546  1.0000
  H   H639      1.0  0.11127  0.84126  0.83488  1.0000
  H   H640      1.0  0.06915  0.85008  0.79823  1.0000
  C   C826      1.0  0.38758  0.93037  0.49717  1.0000
  C   C827      1.0  0.15473  0.81690  0.67064  1.0000
  H   H641      1.0  0.08579  0.90291  0.79944  1.0000
  H   H642      1.0  0.07094  0.82498  0.64723  1.0000
  H   H643      1.0  0.05182  0.94770  0.75788  1.0000
  H   H644      1.0  0.22883  0.97010  0.47107  1.0000
  C   C828      1.0  0.00561  0.85396  0.72066  1.0000
  C   C829      1.0  0.42099  0.73899  0.87121  1.0000
  C   C830      1.0  0.46088  0.94889  0.48876  1.0000
  H   H645      1.0  0.10656  0.98060  0.89051  1.0000
  H   H646      1.0  0.31147  0.69933  0.51774  1.0000
  H   H647      1.0  0.20214  0.88958  0.72952  1.0000
  C   C831      1.0  0.05694  0.95151  0.93528  1.0000
  C   C832      1.0  0.20768  0.86629  0.70757  1.0000
  H   H648      1.0  0.09557  0.85627  0.71419  1.0000
  C   C833      1.0  0.47068  0.93387  0.47564  1.0000
  H   H649      1.0  0.02394  0.80901  0.59911  1.0000
  H   H650      1.0  0.21534  0.67828  0.48450  1.0000
  H   H651      1.0  0.06752  0.79123  0.62450  1.0000
  C   C834      1.0  0.18383  0.89443  0.53871  1.0000
  H   H652      1.0  0.28858  0.94731  0.73213  1.0000
  C   C835      1.0  0.03014  0.78431  0.65650  1.0000
  P   P28       1.0  0.41973  0.95967  0.47945  1.0000
  H   H653      1.0  0.41137  0.92774  0.50915  1.0000
  C   C836      1.0  0.15338  0.90346  0.54738  1.0000
  C   C837      1.0  0.15162  0.92076  0.54276  1.0000
  P   P29       1.0  0.11934  0.89328  0.56757  1.0000
  C   C838      1.0  0.11942  0.87132  0.55883  1.0000
  C   C839      1.0  0.12703  0.89645  0.60421  1.0000
  C   C840      1.0  0.15786  0.90423  0.61325  1.0000
  C   C841      1.0  0.16362  0.90674  0.64152  1.0000
  C   C842      1.0  0.13834  0.90179  0.66106  1.0000
  C   C843      1.0  0.29498  0.91322  0.84742  1.0000
  C   C844      1.0  0.10126  0.89186  0.62392  1.0000
  C   C845      1.0  0.12232  0.86636  0.53095  1.0000
  H   H654      1.0  0.20646  0.81175  0.63323  1.0000
  C   C846      1.0  0.11969  0.81405  0.66286  1.0000
  C   C847      1.0  0.11713  0.84216  0.57262  1.0000
  C   C848      1.0  0.11734  0.85904  0.57959  1.0000
  C   C849      1.0  0.07647  0.90277  0.55960  1.0000
  C   C850      1.0  0.09799  0.82726  0.65352  1.0000
  C   C851      1.0  0.19160  0.67355  0.49436  1.0000
  C   C852      1.0  0.26816  0.76588  0.49388  1.0000
  H   H655      1.0  0.01366  0.75204  0.85946  1.0000
  H   H656      1.0  0.99958  0.73966  0.50680  1.0000
  C   C853      1.0  0.47030  0.91988  0.57069  1.0000
  H   H657      1.0  0.12919  0.92818  0.55009  1.0000
  H   H658      1.0  0.17772  0.90837  0.59859  1.0000
  H   H659      1.0  0.18789  0.91253  0.64814  1.0000
  H   H660      1.0  0.14297  0.90386  0.68296  1.0000
  H   H661      1.0  0.16994  0.95428  0.96110  1.0000
  H   H662      1.0  0.08724  0.87220  0.75760  1.0000
  H   H663      1.0  0.12472  0.87556  0.51454  1.0000
  H   H664      1.0  0.11597  0.83272  0.58875  1.0000
  H   H665      1.0  0.11693  0.86235  0.60117  1.0000
  C   C854      1.0  0.15152  0.70191  0.91461  1.0000
  H   H666      1.0  0.05663  0.71767  0.79928  1.0000
  C   C855      1.0  0.22635  0.71562  0.96474  1.0000
  H   H667      1.0  0.42161  0.74112  0.96118  1.0000
  C   C856      1.0  0.11139  0.84334  0.65200  1.0000
  C   C857      1.0  0.14678  0.84617  0.65913  1.0000
  H   H668      1.0  0.36668  0.92764  0.81212  1.0000
  H   H669      1.0  0.11691  0.72165  0.81753  1.0000
  C   C858      1.0  0.21215  0.88339  0.71113  1.0000
  H   H670      1.0  0.02475  0.70208  0.92139  1.0000
  C   C859      1.0  0.31785  0.68849  0.47717  1.0000
  H   H671      1.0  0.39954  0.79202  0.90987  1.0000
  H   H672      1.0  0.33129  0.93298  0.85500  1.0000
  C   C860      1.0  0.39006  0.75847  0.91311  1.0000
  H   H673      1.0  0.18671  0.88124  0.54307  1.0000
  H   H674      1.0  0.47331  0.95673  0.62187  1.0000
  H   H675      1.0  0.31135  0.67607  0.48406  1.0000
  C   C861      1.0  0.35980  0.91915  0.49893  1.0000
  C   C862      1.0  0.05378  0.89569  0.54008  1.0000
  H   H676      1.0  0.09450  0.85358  0.64490  1.0000
  C   C863      1.0  0.16867  0.83292  0.66858  1.0000
  H   H677      1.0  0.17128  0.80649  0.67772  1.0000
  C   C864      1.0  0.23336  0.81618  0.63331  1.0000
  C   C865      1.0  0.42727  0.75798  0.90989  1.0000
  H   H678      1.0  0.12103  0.82422  0.53959  1.0000
  C   C866      1.0  0.30178  0.85318  0.81551  1.0000
  C   C867      1.0  0.31592  0.86293  0.79403  1.0000
  P   P30       1.0  0.29191  0.88125  0.78179  1.0000
  C   C868      1.0  0.24437  0.87869  0.78253  1.0000
  C   C869      1.0  0.30437  0.89779  0.80469  1.0000
  C   C870      1.0  0.28523  0.90058  0.82939  1.0000
  C   C871      1.0  0.42223  0.81613  0.90776  1.0000
  H   H679      1.0  0.36865  0.82413  0.82212  1.0000
  C   C872      1.0  0.34391  0.92009  0.81689  1.0000
  C   C873      1.0  0.33439  0.90735  0.79892  1.0000
  C   C874      1.0  0.22968  0.86285  0.78004  1.0000
  C   C875      1.0  0.19279  0.86105  0.78123  1.0000
  C   C876      1.0  0.17032  0.87503  0.78416  1.0000
  C   C877      1.0  0.18471  0.89087  0.78528  1.0000
  C   C878      1.0  0.22157  0.89274  0.78458  1.0000
  C   C879      1.0  0.30284  0.88562  0.74599  1.0000
  C   C880      1.0  0.30330  0.90210  0.73609  1.0000
  C   C881      1.0  0.31395  0.90543  0.70880  1.0000
  C   C882      1.0  0.32319  0.89235  0.69101  1.0000
  C   C883      1.0  0.32087  0.87587  0.70025  1.0000
  C   C884      1.0  0.31034  0.87249  0.72757  1.0000
  H   H680      1.0  0.27621  0.85643  0.82463  1.0000
  H   H681      1.0  0.36271  0.86702  0.76859  1.0000
  H   H682      1.0  0.26279  0.89297  0.83487  1.0000
  H   H683      1.0  0.04514  0.89518  0.84352  1.0000
  C   C885      1.0  0.22971  0.74908  0.94773  1.0000
  C   C886      1.0  0.44253  0.74825  0.88860  1.0000
  H   H684      1.0  0.35044  0.90499  0.78057  1.0000
  H   H685      1.0  0.24657  0.85183  0.77765  1.0000
  H   H686      1.0  0.18177  0.84874  0.78065  1.0000
  H   H687      1.0  0.14185  0.87363  0.78585  1.0000
  H   H688      1.0  0.16736  0.90178  0.78675  1.0000
  H   H689      1.0  0.23212  0.90518  0.78559  1.0000
  H   H690      1.0  0.29569  0.91241  0.74942  1.0000
  H   H691      1.0  0.31493  0.91820  0.70135  1.0000
  H   H692      1.0  0.33158  0.89499  0.66993  1.0000
  H   H693      1.0  0.32724  0.86577  0.68618  1.0000
  H   H694      1.0  0.30842  0.85965  0.73437  1.0000
  C   C887      1.0  0.19874  0.81711  0.75695  1.0000
  C   C888      1.0  0.23117  0.80907  0.76262  1.0000
  C   C889      1.0  0.25847  0.80908  0.74283  1.0000
  C   C890      1.0  0.25350  0.81727  0.71739  1.0000
  C   C891      1.0  0.22094  0.82543  0.71147  1.0000
  C   C892      1.0  0.19358  0.82528  0.73151  1.0000
  P   P31       1.0  0.21408  0.83626  0.67879  1.0000
  H   H695      1.0  0.10981  0.80147  0.66374  1.0000
  C   C893      1.0  0.24457  0.82780  0.65292  1.0000
  C   C894      1.0  0.25686  0.81031  0.61281  1.0000
  C   C895      1.0  0.99734  0.76574  0.49644  1.0000
  C   C896      1.0  0.32058  0.83915  0.82536  1.0000
  C   C897      1.0  0.10703  0.89443  0.65226  1.0000
  C   C898      1.0  0.22055  0.85833  0.68354  1.0000
  C   C899      1.0  0.15130  0.71211  0.89093  1.0000
  H   H696      1.0  0.04934  0.77649  0.66752  1.0000
  H   H697      1.0  0.17875  0.94217  0.52636  1.0000
  C   C900      1.0  0.10007  0.73993  0.84813  1.0000
  C   C901      1.0  0.06052  0.72625  0.81621  1.0000
  C   C902      1.0  0.29175  0.81585  0.61178  1.0000
  C   C903      1.0  0.09474  0.72866  0.82645  1.0000
  C   C904      1.0  0.07208  0.92594  0.77935  1.0000
  H   H698      1.0  0.32629  0.72761  0.50222  1.0000
  C   C905      1.0  0.36917  0.84513  0.79400  1.0000
  C   C906      1.0  0.22622  0.71548  0.47747  1.0000
  C   C907      1.0  0.33786  0.77180  0.47648  1.0000
  H   H699      1.0  0.23165  0.92589  0.51073  1.0000
  C   C908      1.0  0.06542  0.91745  0.57319  1.0000
  C   C909      1.0  0.14750  0.67555  0.53107  1.0000
  C   C910      1.0  0.00995  0.91781  0.54788  1.0000
  C   C911      1.0  0.35416  0.83505  0.81448  1.0000
  H   H700      1.0  0.15635  0.70658  0.87081  1.0000
  H   H701      1.0  0.07676  0.88632  0.61730  1.0000
  C   C912      1.0  0.07053  0.74808  0.86032  1.0000
  H   H702      1.0  0.33999  0.74976  0.89810  1.0000
  H   H703      1.0  0.07398  0.75629  0.87783  1.0000
  H   H704      1.0  0.15727  0.68868  0.91280  1.0000
  C   C913      1.0  0.03633  0.74562  0.85008  1.0000
  C   C914      1.0  0.22977  0.89264  0.69095  1.0000
  H   H705      1.0  0.19152  0.69208  0.52662  1.0000
  H   H706      1.0  0.33056  0.83133  0.63081  1.0000
  H   H707      1.0  0.27493  0.81684  0.70235  1.0000
  C   C915      1.0  0.45229  0.82564  0.91222  1.0000
  C   C916      1.0  0.47257  0.94644  0.60750  1.0000
  H   H708      1.0  0.06132  0.88439  0.52928  1.0000
  H   H709      1.0  0.30958  0.81150  0.59550  1.0000
  H   H710      1.0  0.10116  0.94270  0.95986  1.0000
  C   C917      1.0  0.30346  0.82705  0.63161  1.0000
  H   H711      1.0  0.12588  0.84565  0.50264  1.0000
  C   C918      1.0  0.31936  0.78354  0.49278  1.0000
  C   C919      1.0  0.23686  0.86793  0.66279  1.0000
  C   C920      1.0  0.17965  0.92877  0.52932  1.0000
  C   C921      1.0  0.28008  0.83292  0.65221  1.0000
  H   H712      1.0  0.25516  0.89223  0.65094  1.0000
  H   H713      1.0  0.23550  0.89540  0.51941  1.0000
  H   H714      1.0  0.19401  0.85938  0.72347  1.0000
  H   H715      1.0  0.09670  0.93174  0.78513  1.0000
  H   H716      1.0  0.28957  0.84161  0.66740  1.0000
  H   H717      1.0  0.08246  0.92320  0.58827  1.0000
  H   H718      1.0  0.28324  0.80235  0.74701  1.0000
  C   C922      1.0  0.21173  0.90245  0.52528  1.0000
  C   C923      1.0  0.32776  0.92260  0.48531  1.0000
  H   H719      1.0  0.23402  0.70692  0.49384  1.0000
  H   H720      1.0  0.07239  0.95185  0.91622  1.0000
  H   H721      1.0  0.36740  0.73239  0.86110  1.0000
  C   C924      1.0  0.39637  0.97095  0.53104  1.0000
  C   C925      1.0  0.99815  0.70173  0.93015  1.0000
  H   H722      1.0  0.37919  0.97934  0.57138  1.0000
  H   H723      1.0  0.08715  0.89088  0.66741  1.0000
  C   C926      1.0  0.99485  0.78561  0.66584  1.0000
  C   C927      1.0  0.41038  0.97550  0.50505  1.0000
  H   H724      1.0  0.40050  0.72411  0.48052  1.0000
  H   H725      1.0  0.46230  0.80864  0.85734  1.0000
  H   H726      1.0  0.23119  0.76204  0.94172  1.0000
  H   H727      1.0  0.00331  0.89767  0.51920  1.0000
  C   C928      1.0  0.38410  0.73942  0.87479  1.0000
  S   S128      1.0  0.17859  0.97532  0.91086  1.0000
  C   C929      1.0  0.36865  0.74920  0.89568  1.0000
  C   C930      1.0  0.13752  0.72586  0.94318  1.0000
  C   C931      1.0  0.48207  0.95469  0.51043  1.0000
  C   C932      1.0  0.46812  0.79653  0.84856  1.0000
  H   H728      1.0  0.04340  0.84460  0.69044  1.0000
  C   C933      1.0  0.43611  0.76672  0.96796  1.0000
  H   H729      1.0  0.99517  0.93457  0.74484  1.0000
  C   C934      1.0  0.02067  0.90320  0.53429  1.0000
  H   H730      1.0  0.31045  0.76577  0.95739  1.0000
  H   H731      1.0  0.14566  0.70101  0.95923  1.0000
  H   H732      1.0  0.46520  0.72786  0.48392  1.0000
  H   H733      1.0  0.31989  0.73544  0.95124  1.0000
  C   C935      1.0  0.45385  0.79139  0.92479  1.0000
  H   H734      1.0  0.39860  0.82180  0.89858  1.0000
  H   H735      1.0  0.37750  0.76601  0.92910  1.0000
  C   C936      1.0  0.17831  0.68134  0.51826  1.0000
  H   H736      1.0  0.36275  0.90810  0.51188  1.0000
  C   C937      1.0  0.28454  0.78057  0.50151  1.0000
  C   C938      1.0  0.32603  0.71766  0.48716  1.0000
  H   H737      1.0  0.30590  0.91411  0.48745  1.0000
  H   H738      1.0  0.20656  0.78708  0.91035  1.0000
  C   C939      1.0  0.17248  0.96706  0.96759  1.0000
  C   C940      1.0  0.39007  0.98300  0.55139  1.0000
  P   P32       1.0  0.45464  0.76945  0.93358  1.0000
  H   H739      1.0  0.02316  0.76819  0.50530  1.0000
  H   H740      1.0  0.24115  0.76355  0.50069  1.0000
  C   C941      1.0  0.02076  0.95598  0.93502  1.0000
  C   C942      1.0  0.48382  0.80110  0.92961  1.0000
  H   H741      1.0  0.47091  0.74779  0.88501  1.0000
  C   C943      1.0  0.14477  0.70880  0.94074  1.0000
  C   C944      1.0  0.17703  0.97955  0.94751  1.0000
  C   C945      1.0  0.12997  0.66196  0.51996  1.0000
  H   H742      1.0  0.13283  0.73118  0.96357  1.0000
  C   C946      1.0  0.07312  0.94621  0.95988  1.0000
  H   H743      1.0  0.31867  0.97865  0.52302  1.0000
  H   H744      1.0  0.00483  0.73284  0.82003  1.0000
  C   C947      1.0  0.00046  0.95535  0.95956  1.0000
  H   H745      1.0  0.10606  0.65751  0.52992  1.0000
  C   C948      1.0  0.30424  0.98093  0.50397  1.0000
  H   H746      1.0  0.47481  0.96588  0.52164  1.0000
  C   C949      1.0  0.48394  0.76551  0.82566  1.0000
  H   H747      1.0  0.27338  0.74294  0.47153  1.0000
  C   C950      1.0  0.44950  0.73590  0.47032  1.0000
  Fe  Fe65      1.0  0.67367  0.01176  0.36899  1.0000
  S   S129      1.0  0.66201  0.03718  0.38651  1.0000
  H   H748      1.0  0.82067  0.17922  0.07729  1.0000
  Fe  Fe66      1.0  0.67553  0.02566  0.30791  1.0000
  S   S130      1.0  0.66181  0.05160  0.32247  1.0000
  S   S131      1.0  0.67825  0.02149  0.26048  1.0000
  Fe  Fe67      1.0  0.70221  0.04659  0.35557  1.0000
  S   S132      1.0  0.74614  0.06490  0.36430  1.0000
  Fe  Fe68      1.0  0.62256  0.03990  0.35168  1.0000
  S   S133      1.0  0.56866  0.05235  0.36084  1.0000
  S   S134      1.0  0.71754  0.02083  0.34035  1.0000
  S   S135      1.0  0.63260  0.01426  0.33491  1.0000
  Fe  Fe69      1.0  0.76677  0.16419  0.35813  1.0000
  S   S136      1.0  0.74280  0.18938  0.34765  1.0000
  S   S137      1.0  0.72657  0.14362  0.35293  1.0000
  Fe  Fe70      1.0  0.84131  0.17857  0.36612  1.0000
  S   S138      1.0  0.82174  0.20457  0.35547  1.0000
  S   S139      1.0  0.89812  0.16938  0.37761  1.0000
  Fe  Fe71      1.0  0.77433  0.19932  0.38361  1.0000
  S   S140      1.0  0.74415  0.21854  0.41188  1.0000
  Fe  Fe72      1.0  0.79096  0.19256  0.32074  1.0000
  S   S141      1.0  0.79252  0.20038  0.27472  1.0000
  S   S142      1.0  0.79526  0.17375  0.39580  1.0000
  S   S143      1.0  0.81371  0.16699  0.32983  1.0000
  Fe  Fe73      1.0  0.78674  0.04886  0.07041  1.0000
  S   S144      1.0  0.76485  0.02548  0.08950  1.0000
  S   S145      1.0  0.74543  0.06873  0.05760  1.0000
  Fe  Fe74      1.0  0.86419  0.03572  0.07507  1.0000
  S   S146      1.0  0.84700  0.01195  0.09555  1.0000
  S   S147      1.0  0.92060  0.04037  0.05884  1.0000
  Fe  Fe75      1.0  0.80481  0.01151  0.06213  1.0000
  C   C951      1.0  0.64904  0.08719  0.41504  1.0000
  Fe  Fe76      1.0  0.80843  0.02806  0.12095  1.0000
  S   S148      1.0  0.80317  0.02874  0.16896  1.0000
  S   S149      1.0  0.82317  0.03476  0.04102  1.0000
  S   S150      1.0  0.82917  0.05196  0.10240  1.0000
  Fe  Fe77      1.0  0.69146  0.20001  0.07135  1.0000
  S   S151      1.0  0.67220  0.17508  0.05764  1.0000
  S   S152      1.0  0.71666  0.22027  0.04288  1.0000
  Fe  Fe78      1.0  0.67467  0.19130  0.13372  1.0000
  S   S153      1.0  0.65380  0.16606  0.12275  1.0000
  S   S154      1.0  0.67281  0.19764  0.18029  1.0000
  Fe  Fe79      1.0  0.70155  0.16419  0.09442  1.0000
  S   S155      1.0  0.74545  0.14414  0.09737  1.0000
  Fe  Fe80      1.0  0.62532  0.17915  0.08723  1.0000
  S   S156      1.0  0.56878  0.17393  0.07025  1.0000
  S   S157      1.0  0.72337  0.18889  0.10695  1.0000
  S   S158      1.0  0.64356  0.20468  0.09958  1.0000
  C   C952      1.0  0.72956  0.22453  0.00738  1.0000
  C   C953      1.0  0.98364  0.19615  0.34970  1.0000
  H   H749      1.0  0.59617  0.05230  0.41997  1.0000
  C   C954      1.0  0.90249  0.16716  0.24793  1.0000
  H   H750      1.0  0.81289  0.13968  0.01855  1.0000
  H   H751      1.0  0.60339  0.02884  0.23663  1.0000
  C   C955      1.0  0.52279  0.17522  0.08097  1.0000
  H   H752      1.0  0.97941  0.99875  0.03809  1.0000
  H   H753      1.0  0.53214  0.17721  0.12480  1.0000
  C   C956      1.0  0.95115  0.15883  0.20136  1.0000
  C   C957      1.0  0.74586  0.08970  0.06866  1.0000
  C   C958      1.0  0.71454  0.09957  0.06672  1.0000
  C   C959      1.0  0.71392  0.11634  0.07516  1.0000
  C   C960      1.0  0.74491  0.12347  0.08506  1.0000
  C   C961      1.0  0.77651  0.11378  0.08612  1.0000
  C   C962      1.0  0.77695  0.09693  0.07818  1.0000
  H   H754      1.0  0.69058  0.09414  0.05888  1.0000
  H   H755      1.0  0.68952  0.12373  0.07413  1.0000
  H   H756      1.0  0.80063  0.11925  0.09359  1.0000
  H   H757      1.0  0.80133  0.08953  0.07932  1.0000
  C   C963      1.0  0.96151  0.03977  0.07727  1.0000
  C   C964      1.0  0.75919  0.17412  0.02682  1.0000
  C   C965      1.0  0.96289  0.03815  0.10618  1.0000
  H   H758      1.0  0.93738  0.30733  0.38236  1.0000
  H   H759      1.0  0.93850  0.03687  0.11795  1.0000
  C   C966      1.0  0.73934  0.22584  0.44707  1.0000
  H   H760      1.0  0.69809  0.13927  0.40654  1.0000
  C   C967      1.0  0.51790  0.03079  0.23347  1.0000
  C   C968      1.0  0.71541  0.23922  0.45279  1.0000
  H   H761      1.0  0.53637  0.02659  0.21751  1.0000
  C   C969      1.0  0.57284  0.24389  0.39720  1.0000
  H   H762      1.0  0.70058  0.24489  0.43591  1.0000
  C   C970      1.0  0.75905  0.19814  0.24886  1.0000
  C   C971      1.0  0.72283  0.19755  0.25559  1.0000
  C   C972      1.0  0.69701  0.19736  0.23437  1.0000
  C   C973      1.0  0.70691  0.19734  0.20611  1.0000
  C   C974      1.0  0.74321  0.19733  0.19937  1.0000
  C   C975      1.0  0.76901  0.19797  0.22059  1.0000
  H   H763      1.0  0.71461  0.19779  0.27714  1.0000
  H   H764      1.0  0.66909  0.19738  0.23992  1.0000
  H   H765      1.0  0.75136  0.19736  0.17780  1.0000
  H   H766      1.0  0.79687  0.19853  0.21504  1.0000
  C   C976      1.0  0.94209  0.17667  0.37063  1.0000
  C   C977      1.0  0.94841  0.19105  0.35490  1.0000
  C   C978      1.0  0.97167  0.16759  0.38112  1.0000
  H   H767      1.0  0.92617  0.19834  0.34693  1.0000
  H   H768      1.0  0.96732  0.15648  0.39339  1.0000
  C   C979      1.0  0.71331  0.02392  0.23538  1.0000
  C   C980      1.0  0.70643  0.02077  0.20716  1.0000
  C   C981      1.0  0.73321  0.02237  0.18656  1.0000
  C   C982      1.0  0.76755  0.02711  0.19383  1.0000
  C   C983      1.0  0.77426  0.03052  0.22198  1.0000
  C   C984      1.0  0.74744  0.02898  0.24257  1.0000
  H   H769      1.0  0.68031  0.01680  0.20122  1.0000
  H   H770      1.0  0.72748  0.01958  0.16514  1.0000
  H   H771      1.0  0.80060  0.03418  0.22800  1.0000
  H   H772      1.0  0.75332  0.03153  0.26406  1.0000
  C   C985      1.0  0.74085  0.08667  0.35897  1.0000
  C   C986      1.0  0.70761  0.09402  0.35318  1.0000
  C   C987      1.0  0.70387  0.11147  0.35110  1.0000
  C   C988      1.0  0.73335  0.12173  0.35427  1.0000
  C   C989      1.0  0.76683  0.11436  0.35893  1.0000
  C   C990      1.0  0.77046  0.09692  0.36168  1.0000
  H   H773      1.0  0.68459  0.08630  0.35127  1.0000
  H   H774      1.0  0.67786  0.11708  0.34746  1.0000
  H   H775      1.0  0.78978  0.12211  0.36074  1.0000
  H   H776      1.0  0.79626  0.09134  0.36616  1.0000
  C   C991      1.0  0.52708  0.02633  0.34345  1.0000
  C   C992      1.0  0.52799  0.04218  0.35522  1.0000
  H   H777      1.0  0.77581  0.14027  0.41325  1.0000
  H   H778      1.0  0.55167  0.01985  0.33808  1.0000
  P   P33       1.0  0.74847  0.15002  0.98675  1.0000
  H   H779      1.0  0.69332  0.07026  0.40784  1.0000
  C   C993      1.0  0.93433  0.28403  0.00430  1.0000
  C   C994      1.0  0.90930  0.28955  0.05007  1.0000
  C   C995      1.0  0.79082  0.12953  0.42069  1.0000
  H   H780      1.0  0.59447  0.14137  0.16483  1.0000
  H   H781      1.0  0.55926  0.07890  0.06382  1.0000
  C   C996      1.0  0.76432  0.28025  0.44137  1.0000
  C   C997      1.0  0.81005  0.16004  0.18735  1.0000
  C   C998      1.0  0.81437  0.15548  0.15959  1.0000
  C   C999      1.0  0.84783  0.15021  0.14983  1.0000
  C   C1000     1.0  0.87709  0.14970  0.16771  1.0000
  C   C1001     1.0  0.87312  0.15455  0.19556  1.0000
  C   C1002     1.0  0.83912  0.15943  0.20533  1.0000
  P   P34       1.0  0.91053  0.15318  0.21913  1.0000
  C   C1003     1.0  0.57736  0.01926  0.46202  1.0000
  C   C1004     1.0  0.90871  0.16194  0.27542  1.0000
  C   C1005     1.0  0.91673  0.13201  0.23145  1.0000
  C   C1006     1.0  0.89065  0.12011  0.22714  1.0000
  C   C1007     1.0  0.89592  0.10373  0.23658  1.0000
  C   C1008     1.0  0.92726  0.09912  0.25036  1.0000
  C   C1009     1.0  0.95343  0.11090  0.25468  1.0000
  C   C1010     1.0  0.94826  0.12727  0.24519  1.0000
  H   H782      1.0  0.78412  0.16418  0.19492  1.0000
  H   H783      1.0  0.79174  0.15601  0.14565  1.0000
  H   H784      1.0  0.85094  0.14659  0.12829  1.0000
  H   H785      1.0  0.90268  0.14553  0.15969  1.0000
  H   H786      1.0  0.83480  0.16294  0.22679  1.0000
  H   H787      1.0  0.90536  0.16852  0.31862  1.0000
  H   H788      1.0  0.91860  0.14954  0.28022  1.0000
  H   H789      1.0  0.86615  0.12344  0.21672  1.0000
  H   H790      1.0  0.93115  0.08643  0.25776  1.0000
  C   C1011     1.0  0.66331  0.11328  0.43690  1.0000
  H   H791      1.0  0.96856  0.13632  0.24892  1.0000
  C   C1012     1.0  0.57790  0.26083  0.40187  1.0000
  H   H792      1.0  0.84774  0.19709  0.43537  1.0000
  H   H793      1.0  0.70999  0.20205  0.98991  1.0000
  C   C1013     1.0  0.86831  0.28186  0.36936  1.0000
  H   H794      1.0  0.77753  0.09190  0.01559  1.0000
  C   C1014     1.0  0.57763  0.26699  0.42897  1.0000
  C   C1015     1.0  0.59874  0.04357  0.43713  1.0000
  C   C1016     1.0  0.71006  0.09288  0.42702  1.0000
  H   H795      1.0  0.62509  0.08048  0.06199  1.0000
  C   C1017     1.0  0.78565  0.27390  0.41982  1.0000
  S   S159      1.0  0.79442  0.98704  0.03853  1.0000
  C   C1018     1.0  0.63083  0.08134  0.10637  1.0000
  H   H796      1.0  0.53688  0.21994  0.13985  1.0000
  H   H797      1.0  0.65440  0.12515  0.44528  1.0000
  H   H798      1.0  0.64662  0.05422  0.45280  1.0000
  H   H799      1.0  0.58209  0.26920  0.38447  1.0000
  H   H800      1.0  0.68667  0.16894  0.39598  1.0000
  H   H801      1.0  0.58754  0.00040  0.41402  1.0000
  C   C1019     1.0  0.70399  0.14848  0.42206  1.0000
  H   H802      1.0  0.84288  0.15226  0.05810  1.0000
  P   P35       1.0  0.84088  0.25439  0.39756  1.0000
  C   C1020     1.0  0.91906  0.29721  0.38510  1.0000
  H   H803      1.0  0.91470  0.24200  0.38886  1.0000
  C   C1021     1.0  0.68440  0.13828  0.00885  1.0000
  H   H804      1.0  0.73766  0.08882  0.42682  1.0000
  H   H805      1.0  0.49630  0.08606  0.32457  1.0000
  H   H806      1.0  0.58117  0.28018  0.43216  1.0000
  C   C1022     1.0  0.70586  0.17747  0.43536  1.0000
  H   H807      1.0  0.83363  0.23924  0.29853  1.0000
  S   S160      1.0  0.67290  0.98751  0.39517  1.0000
  C   C1023     1.0  0.80727  0.17360  0.06000  1.0000
  C   C1024     1.0  0.61162  0.03659  0.19418  1.0000
  C   C1025     1.0  0.77582  0.10064  0.99837  1.0000
  H   H808      1.0  0.98804  0.20728  0.33748  1.0000
  P   P36       1.0  0.54482  0.00312  0.46572  1.0000
  C   C1026     1.0  0.94072  0.28358  0.06235  1.0000
  C   C1027     1.0  0.57642  0.98840  0.41887  1.0000
  H   H809      1.0  0.93535  0.02844  0.99370  1.0000
  H   H810      1.0  0.76528  0.24843  0.38566  1.0000
  C   C1028     1.0  0.64423  0.16622  0.99188  1.0000
  C   C1029     1.0  0.67758  0.99600  0.45139  1.0000
  H   H811      1.0  0.88735  0.29396  0.06296  1.0000
  C   C1030     1.0  0.79567  0.10407  0.44776  1.0000
  H   H812      1.0  0.90093  0.26557  0.42988  1.0000
  C   C1031     1.0  0.84519  0.22223  0.41945  1.0000
  H   H813      1.0  0.77682  0.20851  0.46557  1.0000
  C   C1032     1.0  0.77558  0.11815  0.43928  1.0000
  C   C1033     1.0  0.63825  0.10270  0.42552  1.0000
  C   C1034     1.0  0.50294  0.01282  0.45550  1.0000
  C   C1035     1.0  0.84547  0.11298  0.41963  1.0000
  H   H814      1.0  0.78448  0.09509  0.46205  1.0000
  C   C1036     1.0  0.89850  0.27358  0.41175  1.0000
  C   C1037     1.0  0.68483  0.08223  0.41614  1.0000
  C   C1038     1.0  0.57415  0.03090  0.44017  1.0000
  C   C1039     1.0  0.55552  0.98601  0.44276  1.0000
  H   H815      1.0  0.80515  0.00505  0.98530  1.0000
  C   C1040     1.0  0.81173  0.26151  0.42522  1.0000
  H   H816      1.0  0.49636  0.11969  0.05939  1.0000
  H   H817      1.0  0.88156  0.29447  0.01195  1.0000
  H   H818      1.0  0.87240  0.11102  0.41201  1.0000
  H   H819      1.0  0.70130  0.19054  0.43046  1.0000
  C   C1041     1.0  0.87749  0.26028  0.97363  1.0000
  H   H820      1.0  0.66734  0.09813  0.21345  1.0000
  H   H821      1.0  0.61060  0.02404  0.18610  1.0000
  C   C1042     1.0  0.81726  0.24960  0.36616  1.0000
  H   H822      1.0  0.95183  0.18428  0.21638  1.0000
  H   H823      1.0  0.66183  0.12643  0.23265  1.0000
  H   H824      1.0  0.57333  0.23911  0.37621  1.0000
  H   H825      1.0  0.74851  0.11804  0.17494  1.0000
  C   C1043     1.0  0.68462  0.07958  0.15620  1.0000
  C   C1044     1.0  0.70050  0.06357  0.15531  1.0000
  C   C1045     1.0  0.73609  0.06149  0.14732  1.0000
  C   C1046     1.0  0.75625  0.07530  0.14061  1.0000
  C   C1047     1.0  0.74076  0.09122  0.14145  1.0000
  C   C1048     1.0  0.70501  0.09340  0.14885  1.0000
  H   H826      1.0  0.68583  0.05256  0.16035  1.0000
  H   H827      1.0  0.74801  0.04912  0.14593  1.0000
  H   H828      1.0  0.78372  0.07365  0.13429  1.0000
  H   H829      1.0  0.75636  0.10183  0.13565  1.0000
  H   H830      1.0  0.69327  0.10584  0.14822  1.0000
  C   C1049     1.0  0.96267  0.05120  0.98523  1.0000
  H   H831      1.0  0.69927  0.12749  0.01616  1.0000
  H   H832      1.0  0.94498  0.21538  0.40087  1.0000
  H   H833      1.0  0.86498  0.24808  0.34082  1.0000
  C   C1050     1.0  0.68056  0.16506  0.98553  1.0000
  H   H834      1.0  0.86469  0.07818  0.14704  1.0000
  C   C1051     1.0  0.96977  0.14693  0.18525  1.0000
  H   H835      1.0  0.76811  0.19350  0.05642  1.0000
  H   H836      1.0  0.97761  0.10735  0.26558  1.0000
  H   H837      1.0  0.91638  0.00204  0.05243  1.0000
  C   C1052     1.0  0.52849  0.08260  0.27285  1.0000
  C   C1053     1.0  0.89731  0.98551  0.02105  1.0000
  C   C1054     1.0  0.51341  0.04780  0.23892  1.0000
  C   C1055     1.0  0.54251  0.09610  0.25796  1.0000
  C   C1056     1.0  0.57679  0.10157  0.26363  1.0000
  C   C1057     1.0  0.59732  0.09361  0.28410  1.0000
  C   C1058     1.0  0.58369  0.08007  0.29871  1.0000
  C   C1059     1.0  0.54970  0.07441  0.29283  1.0000
  C   C1060     1.0  0.89851  0.20474  0.41950  1.0000
  H   H838      1.0  0.74390  0.28962  0.43703  1.0000
  H   H839      1.0  0.49623  0.06259  0.37145  1.0000
  H   H840      1.0  0.52881  0.05668  0.22717  1.0000
  C   C1061     1.0  0.95916  0.99203  0.02715  1.0000
  C   C1062     1.0  0.56698  0.23313  0.41961  1.0000
  H   H841      1.0  0.76880  0.23476  0.29983  1.0000
  H   H842      1.0  0.83739  0.13601  0.39703  1.0000
  C   C1063     1.0  0.56664  0.23926  0.44672  1.0000
  H   H843      1.0  0.88935  0.30324  0.34815  1.0000
  H   H844      1.0  0.52725  0.10246  0.24201  1.0000
  H   H845      1.0  0.58739  0.11206  0.25227  1.0000
  H   H846      1.0  0.62371  0.09795  0.28877  1.0000
  H   H847      1.0  0.59930  0.07395  0.31482  1.0000
  H   H848      1.0  0.53971  0.06381  0.30433  1.0000
  H   H849      1.0  0.64134  0.27334  0.46446  1.0000
  C   C1064     1.0  0.49573  0.05040  0.36211  1.0000
  C   C1065     1.0  0.75731  0.24351  0.97329  1.0000
  C   C1066     1.0  0.81969  0.15842  0.04922  1.0000
  C   C1067     1.0  0.76532  0.11722  0.00298  1.0000
  C   C1068     1.0  0.70653  0.06805  0.23069  1.0000
  C   C1069     1.0  0.69213  0.06871  0.25742  1.0000
  C   C1070     1.0  0.70106  0.08160  0.27526  1.0000
  C   C1071     1.0  0.72525  0.09356  0.26666  1.0000
  C   C1072     1.0  0.74119  0.09248  0.24027  1.0000
  C   C1073     1.0  0.73062  0.08001  0.22197  1.0000
  P   P37       1.0  0.77410  0.10731  0.22984  1.0000
  C   C1074     1.0  0.74955  0.12559  0.21784  1.0000
  C   C1075     1.0  0.80171  0.11186  0.25925  1.0000
  C   C1076     1.0  0.81548  0.12782  0.26258  1.0000
  C   C1077     1.0  0.83605  0.13142  0.28575  1.0000
  C   C1078     1.0  0.84321  0.11910  0.30570  1.0000
  C   C1079     1.0  0.83032  0.10307  0.30221  1.0000
  C   C1080     1.0  0.80991  0.09939  0.27895  1.0000
  C   C1081     1.0  0.74055  0.12738  0.18974  1.0000
  C   C1082     1.0  0.72114  0.14134  0.18043  1.0000
  C   C1083     1.0  0.70998  0.15354  0.19925  1.0000
  C   C1084     1.0  0.71811  0.15176  0.22741  1.0000
  C   C1085     1.0  0.73740  0.13773  0.23677  1.0000
  C   C1086     1.0  0.80370  0.09828  0.20391  1.0000
  C   C1087     1.0  0.81342  0.08127  0.20532  1.0000
  C   C1088     1.0  0.83516  0.07408  0.18479  1.0000
  H   H850      1.0  0.75929  0.12113  0.02400  1.0000
  C   C1089     1.0  0.81794  0.10814  0.18255  1.0000
  H   H851      1.0  0.69965  0.05798  0.21698  1.0000
  H   H852      1.0  0.67451  0.05902  0.26431  1.0000
  H   H853      1.0  0.69014  0.08206  0.29611  1.0000
  H   H854      1.0  0.73230  0.10330  0.28098  1.0000
  H   H855      1.0  0.74151  0.07921  0.20121  1.0000
  H   H856      1.0  0.81002  0.13755  0.24751  1.0000
  H   H857      1.0  0.84580  0.14387  0.28852  1.0000
  H   H858      1.0  0.85838  0.12205  0.32402  1.0000
  H   H859      1.0  0.83549  0.09354  0.31782  1.0000
  H   H860      1.0  0.80001  0.08690  0.27673  1.0000
  H   H861      1.0  0.56382  0.21063  0.09534  1.0000
  H   H862      1.0  0.69477  0.16429  0.19197  1.0000
  H   H863      1.0  0.70936  0.16127  0.24198  1.0000
  H   H864      1.0  0.74268  0.13641  0.25878  1.0000
  H   H865      1.0  0.80373  0.07339  0.22195  1.0000
  H   H866      1.0  0.84132  0.06079  0.18539  1.0000
  H   H867      1.0  0.81214  0.12138  0.18157  1.0000
  H   H868      1.0  0.56219  0.08011  0.15292  1.0000
  C   C1090     1.0  0.82576  0.12705  0.41119  1.0000
  C   C1091     1.0  0.77116  0.15878  0.01604  1.0000
  C   C1092     1.0  0.95976  0.03391  0.98617  1.0000
  H   H869      1.0  0.98818  0.27372  0.00432  1.0000
  H   H870      1.0  0.52970  0.21321  0.05185  1.0000
  C   C1093     1.0  0.69741  0.16532  0.41603  1.0000
  H   H871      1.0  0.62315  0.04750  0.15449  1.0000
  H   H872      1.0  0.87562  0.09459  0.23333  1.0000
  C   C1094     1.0  0.90124  0.17271  0.29745  1.0000
  C   C1095     1.0  0.51214  0.17663  0.10882  1.0000
  H   H873      1.0  0.87401  0.26454  0.99470  1.0000
  H   H874      1.0  0.50360  0.17333  0.03907  1.0000
  C   C1096     1.0  0.83037  0.10144  0.43779  1.0000
  H   H875      1.0  0.62886  0.17726  0.98602  1.0000
  H   H876      1.0  0.55293  0.03012  0.42513  1.0000
  C   C1097     1.0  0.76302  0.24190  0.34274  1.0000
  H   H877      1.0  0.71476  0.14275  0.15857  1.0000
  C   C1098     1.0  0.84826  0.08388  0.16313  1.0000
  C   C1099     1.0  0.83986  0.10093  0.16212  1.0000
  H   H878      1.0  0.61861  0.08095  0.22437  1.0000
  C   C1100     1.0  0.53706  0.21595  0.09576  1.0000
  H   H879      1.0  0.75103  0.24843  0.01723  1.0000
  C   C1101     1.0  0.83637  0.24682  0.34139  1.0000
  C   C1102     1.0  0.76300  0.12863  0.98074  1.0000
  C   C1103     1.0  0.57297  0.25614  0.45163  1.0000
  H   H880      1.0  0.94044  0.05907  0.99192  1.0000
  P   P38       1.0  0.73148  0.12196  0.45348  1.0000
  H   H881      1.0  0.88085  0.19691  0.30950  1.0000
  H   H882      1.0  0.84556  0.09046  0.44418  1.0000
  H   H883      1.0  0.68406  0.00839  0.44438  1.0000
  C   C1104     1.0  0.64810  0.13952  0.01530  1.0000
  C   C1105     1.0  0.96900  0.27788  0.04571  1.0000
  C   C1106     1.0  0.80209  0.15116  0.02701  1.0000
  H   H884      1.0  0.86973  0.98707  0.02736  1.0000
  C   C1107     1.0  0.96587  0.27809  0.01679  1.0000
  C   C1108     1.0  0.88757  0.18874  0.29234  1.0000
  C   C1109     1.0  0.78046  0.24706  0.36664  1.0000
  C   C1110     1.0  0.60939  0.13171  0.17588  1.0000
  C   C1111     1.0  0.62287  0.06604  0.18701  1.0000
  H   H885      1.0  0.94288  0.28851  0.42327  1.0000
  C   C1112     1.0  0.70104  0.15104  0.99387  1.0000
  H   H886      1.0  0.73483  0.23939  0.34358  1.0000
  C   C1113     1.0  0.57610  0.08020  0.13317  1.0000
  C   C1114     1.0  0.81879  0.24179  0.31743  1.0000
  C   C1115     1.0  0.74642  0.23962  0.00083  1.0000
  C   C1116     1.0  0.49424  0.01892  0.33822  1.0000
  C   C1117     1.0  0.62803  0.15349  0.00688  1.0000
  C   C1118     1.0  0.88896  0.18336  0.24297  1.0000
  C   C1119     1.0  0.60907  0.05539  0.23313  1.0000
  C   C1120     1.0  0.60735  0.03928  0.22261  1.0000
  H   H887      1.0  0.83802  0.24714  0.45783  1.0000
  H   H888      1.0  0.95953  0.13453  0.18275  1.0000
  C   C1121     1.0  0.61895  0.04993  0.17639  1.0000
  C   C1122     1.0  0.69957  0.10857  0.43734  1.0000
  C   C1123     1.0  0.81726  0.25618  0.45275  1.0000
  C   C1124     1.0  0.55665  0.07944  0.10856  1.0000
  H   H889      1.0  0.85002  0.10850  0.14528  1.0000
  H   H890      1.0  0.65953  0.08204  0.10485  1.0000
  C   C1125     1.0  0.88163  0.19409  0.26510  1.0000
  H   H891      1.0  0.60017  0.15472  0.01272  1.0000
  C   C1126     1.0  0.87181  0.27094  0.39212  1.0000
  H   H892      1.0  0.61047  0.10653  0.42471  1.0000
  C   C1127     1.0  0.86246  0.20710  0.42588  1.0000
  H   H893      1.0  0.62581  0.14821  0.20823  1.0000
  C   C1128     1.0  0.72355  0.21347  0.98562  1.0000
  C   C1129     1.0  0.89995  0.23255  0.39976  1.0000
  H   H894      1.0  0.81712  0.22377  0.42409  1.0000
  H   H895      1.0  0.52793  0.07873  0.10934  1.0000
  C   C1130     1.0  0.63190  0.10309  0.17901  1.0000
  C   C1131     1.0  0.61131  0.08049  0.08185  1.0000
  C   C1132     1.0  0.71939  0.14362  0.44739  1.0000
  H   H896      1.0  0.88338  0.18765  0.22204  1.0000
  C   C1133     1.0  0.77740  0.18156  0.04848  1.0000
  H   H897      1.0  0.63570  0.12982  0.02743  1.0000
  P   P39       1.0  0.63791  0.08252  0.16421  1.0000
  C   C1134     1.0  0.86393  0.23518  0.40678  1.0000
  C   C1135     1.0  0.65034  0.10726  0.20317  1.0000
  C   C1136     1.0  0.51770  0.21738  0.07119  1.0000
  C   C1137     1.0  0.62709  0.04463  0.45559  1.0000
  H   H898      1.0  0.59842  0.11303  0.14591  1.0000
  C   C1138     1.0  0.61666  0.06875  0.21545  1.0000
  C   C1139     1.0  0.62713  0.13559  0.20031  1.0000
  H   H899      1.0  0.87007  0.20638  0.26124  1.0000
  C   C1140     1.0  0.61333  0.08119  0.13225  1.0000
  H   H900      1.0  0.60581  0.05733  0.25524  1.0000
  C   C1141     1.0  0.89205  0.29488  0.36580  1.0000
  C   C1142     1.0  0.64748  0.12334  0.21400  1.0000
  C   C1143     1.0  0.78215  0.23926  0.31814  1.0000
  H   H901      1.0  0.56281  0.22001  0.41598  1.0000
  C   C1144     1.0  0.96526  0.17480  0.20413  1.0000
  C   C1145     1.0  0.80407  0.99186  0.98103  1.0000
  C   C1146     1.0  0.61168  0.11554  0.16525  1.0000
  C   C1147     1.0  0.57426  0.07957  0.08291  1.0000
  H   H902      1.0  0.51103  0.13644  0.10057  1.0000
  H   H903      1.0  0.84713  0.28048  0.35450  1.0000
  H   H904      1.0  0.83603  0.24224  0.97788  1.0000
  H   H905      1.0  0.62980  0.07906  0.40583  1.0000
  H   H906      1.0  0.91176  0.19291  0.42410  1.0000
  C   C1148     1.0  0.92220  0.28660  0.40812  1.0000
  C   C1149     1.0  0.52171  0.22107  0.12085  1.0000
  H   H907      1.0  0.73599  0.18049  0.01837  1.0000
  H   H908      1.0  0.78182  0.27864  0.39893  1.0000
  H   H909      1.0  0.98034  0.16447  0.31585  1.0000
  C   C1150     1.0  0.91721  0.21743  0.40637  1.0000
  H   H910      1.0  0.80122  0.17608  0.97506  1.0000
  H   H911      1.0  0.98646  0.01036  0.97994  1.0000
  H   H912      1.0  0.56179  0.23080  0.46389  1.0000
  C   C1151     1.0  0.49597  0.17448  0.06067  1.0000
  H   H913      1.0  0.94315  0.28340  0.08476  1.0000
  H   H914      1.0  0.72026  0.99375  0.00825  1.0000
  C   C1152     1.0  0.92361  0.99392  0.03526  1.0000
  C   C1153     1.0  0.78401  0.09525  0.97157  1.0000
  C   C1154     1.0  0.72090  0.17277  0.46076  1.0000
  H   H915      1.0  0.69265  0.17534  0.97468  1.0000
  H   H916      1.0  0.49686  0.99830  0.41802  1.0000
  C   C1155     1.0  0.49891  0.01913  0.24885  1.0000
  H   H917      1.0  0.98534  0.17352  0.26674  1.0000
  H   H918      1.0  0.49391  0.00673  0.32884  1.0000
  H   H919      1.0  0.50286  0.00593  0.24500  1.0000
  C   C1156     1.0  0.90612  0.28982  0.02117  1.0000
  C   C1157     1.0  0.98880  0.02370  0.97866  1.0000
  H   H920      1.0  0.96420  0.22352  0.97572  1.0000
  H   H921      1.0  0.67735  0.29843  0.47006  1.0000
  C   C1158     1.0  0.72777  0.15592  0.46677  1.0000
  C   C1159     1.0  0.76937  0.27453  0.46855  1.0000
  C   C1160     1.0  0.75832  0.21877  0.46934  1.0000
  C   C1161     1.0  0.71147  0.98590  0.99148  1.0000
  Fe  Fe81      1.0  0.69476  0.28070  0.62474  1.0000
  S   S161      1.0  0.64837  0.29784  0.61408  1.0000
  S   S162      1.0  0.71771  0.28727  0.66780  1.0000
  Fe  Fe82      1.0  0.69478  0.26551  0.56480  1.0000
  S   S163      1.0  0.64854  0.28202  0.55137  1.0000
  S   S164      1.0  0.72486  0.24570  0.53758  1.0000
  Fe  Fe83      1.0  0.67672  0.30252  0.57384  1.0000
  C   C1162     1.0  0.78188  0.10646  0.94931  1.0000
  Fe  Fe84      1.0  0.62321  0.27634  0.59287  1.0000
  S   S165      1.0  0.56494  0.26959  0.60295  1.0000
  S   S166      1.0  0.72444  0.28659  0.58496  1.0000
  S   S167      1.0  0.66807  0.25853  0.60577  1.0000
  Fe  Fe85      1.0  0.77199  0.29407  0.86881  1.0000
  S   S168      1.0  0.74780  0.26946  0.85884  1.0000
  C   C1163     1.0  0.67762  0.99208  0.48008  1.0000
  Fe  Fe86      1.0  0.84774  0.27946  0.86488  1.0000
  S   S169      1.0  0.82801  0.25387  0.85462  1.0000
  S   S170      1.0  0.90457  0.28976  0.86611  1.0000
  Fe  Fe87      1.0  0.78965  0.26726  0.82546  1.0000
  S   S171      1.0  0.77706  0.25628  0.78256  1.0000
  Fe  Fe88      1.0  0.78686  0.25790  0.88901  1.0000
  S   S172      1.0  0.76696  0.23589  0.91648  1.0000
  S   S173      1.0  0.81166  0.29252  0.83374  1.0000
  S   S174      1.0  0.80891  0.28281  0.90095  1.0000
  C   C1164     1.0  0.94940  0.28181  0.86424  1.0000
  C   C1165     1.0  0.91700  0.99042  0.88178  1.0000
  C   C1166     1.0  0.95772  0.26477  0.86245  1.0000
  H   H922      1.0  0.78555  0.12752  0.49569  1.0000
  H   H923      1.0  0.93652  0.25592  0.86159  1.0000
  C   C1167     1.0  0.73451  0.27815  0.69931  1.0000
  C   C1168     1.0  0.74346  0.28871  0.72132  1.0000
  C   C1169     1.0  0.75716  0.28228  0.74652  1.0000
  C   C1170     1.0  0.76086  0.26509  0.75069  1.0000
  C   C1171     1.0  0.75199  0.25447  0.72872  1.0000
  C   C1172     1.0  0.73921  0.26093  0.70314  1.0000
  H   H924      1.0  0.73979  0.30199  0.71900  1.0000
  H   H925      1.0  0.76525  0.29063  0.76262  1.0000
  H   H926      1.0  0.75514  0.24114  0.73146  1.0000
  H   H927      1.0  0.73276  0.25257  0.68649  1.0000
  C   C1173     1.0  0.51350  0.28900  0.57438  1.0000
  C   C1174     1.0  0.52065  0.27584  0.59293  1.0000
  C   C1175     1.0  0.63497  0.25987  0.76687  1.0000
  H   H928      1.0  0.53535  0.29578  0.56550  1.0000
  H   H929      1.0  0.75261  0.27924  0.48529  1.0000
  H   H930      1.0  0.66133  0.30396  0.86376  1.0000
  C   C1176     1.0  0.75185  0.23229  0.95163  1.0000
  H   H931      1.0  0.98227  0.30924  0.94936  1.0000
  H   H932      1.0  0.73662  0.10847  0.56972  1.0000
  H   H933      1.0  0.62976  0.23884  0.47796  1.0000
  C   C1177     1.0  0.75343  0.22498  0.49665  1.0000
  C   C1178     1.0  0.72963  0.23840  0.50238  1.0000
  H   H934      1.0  0.76839  0.21936  0.51353  1.0000
  C   C1179     1.0  0.51543  0.99166  0.54602  1.0000
  C   C1180     1.0  0.62242  0.23888  0.49971  1.0000
  H   H935      1.0  0.60203  0.24026  0.57870  1.0000
  C   C1181     1.0  0.78461  0.17469  0.95701  1.0000
  C   C1182     1.0  0.53474  0.23041  0.78859  1.0000
  C   C1183     1.0  0.58024  0.24839  0.80666  1.0000
  C   C1184     1.0  0.60583  0.02049  0.48060  1.0000
  C   C1185     1.0  0.64148  0.22849  0.51800  1.0000
  C   C1186     1.0  0.93201  0.99004  0.93068  1.0000
  H   H936      1.0  0.50939  0.24623  0.85115  1.0000
  C   C1187     1.0  0.76304  0.12174  0.50572  1.0000
  C   C1188     1.0  0.63776  0.27589  0.72387  1.0000
  H   H937      1.0  0.72785  0.18228  0.47553  1.0000
  H   H938      1.0  0.90686  0.99699  0.86366  1.0000
  H   H939      1.0  0.68730  0.28802  0.78562  1.0000
  C   C1189     1.0  0.58558  0.30459  0.82561  1.0000
  H   H940      1.0  0.77253  0.19241  0.89327  1.0000
  C   C1190     1.0  0.71061  0.24545  0.48010  1.0000
  H   H941      1.0  0.81010  0.19465  0.93493  1.0000
  P   P40       1.0  0.92989  0.28440  0.96699  1.0000
  C   C1191     1.0  0.85335  0.28182  0.75905  1.0000
  C   C1192     1.0  0.70541  0.10701  0.53247  1.0000
  C   C1193     1.0  0.87757  0.28063  0.78087  1.0000
  H   H942      1.0  0.74018  0.15264  0.48628  1.0000
  H   H943      1.0  0.73808  0.29499  0.81502  1.0000
  C   C1194     1.0  0.49158  0.26726  0.60426  1.0000
  H   H944      1.0  0.68311  0.10127  0.54286  1.0000
  H   H945      1.0  0.52535  0.22230  0.77242  1.0000
  C   C1195     1.0  0.70048  0.99301  0.96633  1.0000
  H   H946      1.0  0.61993  0.24056  0.85693  1.0000
  H   H947      1.0  0.80802  0.99507  0.93648  1.0000
  C   C1196     1.0  0.65782  0.24707  0.72453  1.0000
  H   H948      1.0  0.64973  0.22130  0.56066  1.0000
  C   C1197     1.0  0.69604  0.30077  0.78640  1.0000
  H   H949      1.0  0.66940  0.23640  0.71384  1.0000
  H   H950      1.0  0.77016  0.25516  0.96889  1.0000
  H   H951      1.0  0.60950  0.01172  0.49748  1.0000
  H   H952      1.0  0.52019  0.28989  0.47147  1.0000
  H   H953      1.0  0.83804  0.27106  0.75351  1.0000
  C   C1198     1.0  0.55883  0.25136  0.83023  1.0000
  H   H954      1.0  0.66858  0.27664  0.84169  1.0000
  C   C1199     1.0  0.70398  0.11032  0.50395  1.0000
  C   C1200     1.0  0.98908  0.26687  0.94606  1.0000
  C   C1201     1.0  0.80554  0.98614  0.95326  1.0000
  C   C1202     1.0  0.61890  0.27857  0.81893  1.0000
  C   C1203     1.0  0.64514  0.28421  0.83700  1.0000
  P   P41       1.0  0.62292  0.25821  0.80326  1.0000
  C   C1204     1.0  0.54392  0.99483  0.50083  1.0000
  C   C1205     1.0  0.52591  0.26723  0.49579  1.0000
  C   C1206     1.0  0.72507  0.30465  0.80279  1.0000
  C   C1207     1.0  0.62904  0.27482  0.75208  1.0000
  C   C1208     1.0  0.64933  0.24597  0.75278  1.0000
  H   H955      1.0  0.97158  0.30627  0.86673  1.0000
  C   C1209     1.0  0.77142  0.12307  0.95382  1.0000
  C   C1210     1.0  0.58838  0.25012  0.53837  1.0000
  C   C1211     1.0  0.65547  0.24589  0.82251  1.0000
  C   C1212     1.0  0.64129  0.29981  0.84948  1.0000
  H   H956      1.0  0.49164  0.00479  0.51201  1.0000
  C   C1213     1.0  0.70679  0.22838  0.85419  1.0000
  C   C1214     1.0  0.71598  0.23511  0.82841  1.0000
  C   C1215     1.0  0.69070  0.24412  0.81285  1.0000
  H   H957      1.0  0.55967  0.29546  0.51670  1.0000
  H   H958      1.0  0.68416  0.00159  0.49487  1.0000
  H   H959      1.0  0.56250  0.31250  0.82130  1.0000
  C   C1216     1.0  0.84835  0.29688  0.74468  1.0000
  H   H960      1.0  0.50298  0.03089  0.48866  1.0000
  H   H961      1.0  0.70028  0.00642  0.96374  1.0000
  H   H962      1.0  0.69238  0.25579  0.48392  1.0000
  H   H963      1.0  0.65398  0.23425  0.76359  1.0000
  C   C1217     1.0  0.79588  0.26254  0.47422  1.0000
  H   H964      1.0  0.72948  0.20859  0.94174  1.0000
  C   C1218     1.0  0.85585  0.24756  0.96421  1.0000
  C   C1219     1.0  0.65110  0.29794  0.47937  1.0000
  H   H965      1.0  0.72686  0.22205  0.86673  1.0000
  H   H966      1.0  0.74316  0.23388  0.82092  1.0000
  H   H967      1.0  0.69917  0.24997  0.79368  1.0000
  H   H968      1.0  0.49302  0.99395  0.55984  1.0000
  C   C1220     1.0  0.79002  0.18519  0.93416  1.0000
  C   C1221     1.0  0.61160  0.30999  0.84384  1.0000
  C   C1222     1.0  0.58451  0.29621  0.50535  1.0000
  H   H969      1.0  0.65289  0.03373  0.49138  1.0000
  H   H970      1.0  0.68037  0.10708  0.49268  1.0000
  C   C1223     1.0  0.52573  0.24390  0.83290  1.0000
  C   C1224     1.0  0.89723  0.29446  0.78818  1.0000
  H   H971      1.0  0.61777  0.28570  0.76213  1.0000
  C   C1225     1.0  0.64643  0.23898  0.84844  1.0000
  H   H972      1.0  0.79951  0.25805  0.49533  1.0000
  C   C1226     1.0  0.91980  0.99867  0.90712  1.0000
  C   C1227     1.0  0.59527  0.24959  0.50975  1.0000
  C   C1228     1.0  0.88516  0.30461  0.93420  1.0000
  C   C1229     1.0  0.85911  0.24192  0.93694  1.0000
  C   C1230     1.0  0.73557  0.11105  0.54761  1.0000
  S   S175      1.0  0.72945  0.31445  0.87471  1.0000
  C   C1231     1.0  0.88402  0.24896  0.91903  1.0000
  H   H973      1.0  0.65546  0.31010  0.75916  1.0000
  C   C1232     1.0  0.65196  0.26201  0.71008  1.0000
  C   C1233     1.0  0.90556  0.26170  0.92835  1.0000
  H   H974      1.0  0.56771  0.25941  0.84663  1.0000
  C   C1234     1.0  0.67205  0.23034  0.86423  1.0000
  C   C1235     1.0  0.56791  0.23782  0.78586  1.0000
  P   P42       1.0  0.57222  0.26392  0.48666  1.0000
  C   C1236     1.0  0.86793  0.31089  0.75195  1.0000
  C   C1237     1.0  0.75752  0.16291  0.95659  1.0000
  H   H975      1.0  0.77017  0.13144  0.93621  1.0000
  C   C1238     1.0  0.63059  0.28377  0.47623  1.0000
  H   H976      1.0  0.82908  0.29740  0.72812  1.0000
  H   H977      1.0  0.88078  0.26903  0.79237  1.0000
  C   C1239     1.0  0.73285  0.11769  0.49033  1.0000
  C   C1240     1.0  0.63062  0.03310  0.47729  1.0000
  H   H978      1.0  0.84189  0.23227  0.92955  1.0000
  C   C1241     1.0  0.50708  0.28112  0.48505  1.0000
  C   C1242     1.0  0.60739  0.23967  0.55658  1.0000
  H   H979      1.0  0.56882  0.25885  0.54674  1.0000
  C   C1243     1.0  0.97758  0.29307  0.86521  1.0000
  H   H980      1.0  0.58364  0.23525  0.76747  1.0000
  H   H981      1.0  0.56853  0.28480  0.79942  1.0000
  C   C1244     1.0  0.90867  0.30391  0.95670  1.0000
  H   H982      1.0  0.97444  0.25568  0.95018  1.0000
  H   H983      1.0  0.87961  0.29358  0.92242  1.0000
  H   H984      1.0  0.91181  0.01168  0.90865  1.0000
  C   C1245     1.0  0.74203  0.17214  0.90989  1.0000
  H   H985      1.0  0.63371  0.28749  0.71257  1.0000
  C   C1246     1.0  0.51366  0.23344  0.81208  1.0000
  H   H986      1.0  0.71525  0.15274  0.93204  1.0000
  C   C1247     1.0  0.60506  0.31040  0.50836  1.0000
  H   H987      1.0  0.66527  0.22545  0.88456  1.0000
  H   H988      1.0  0.52131  0.24467  0.52053  1.0000
  C   C1248     1.0  0.63834  0.31125  0.49541  1.0000
  H   H989      1.0  0.88620  0.24480  0.89773  1.0000
  C   C1249     1.0  0.73640  0.16166  0.93276  1.0000
  H   H990      1.0  0.78770  0.12160  0.54599  1.0000
  H   H991      1.0  0.78830  0.10224  0.92852  1.0000
  C   C1250     1.0  0.90261  0.26745  0.95572  1.0000
  H   H992      1.0  0.72535  0.17129  0.89172  1.0000
  H   H993      1.0  0.65901  0.26292  0.68825  1.0000
  C   C1251     1.0  0.59695  0.28287  0.48895  1.0000
  C   C1252     1.0  0.51489  0.99785  0.51879  1.0000
  C   C1253     1.0  0.57278  0.98497  0.51035  1.0000
  H   H994      1.0  0.91571  0.29354  0.80536  1.0000
  C   C1254     1.0  0.73465  0.21729  0.95815  1.0000
  H   H995      1.0  0.93320  0.99659  0.95020  1.0000
  C   C1255     1.0  0.76873  0.18395  0.91065  1.0000
  H   H996      1.0  0.66475  0.31214  0.66904  1.0000
  C   C1256     1.0  0.50793  0.25578  0.51266  1.0000
  H   H997      1.0  0.92679  0.31589  0.71371  1.0000
  C   C1257     1.0  0.58911  0.28891  0.81327  1.0000
  H   H998      1.0  0.92405  0.26732  0.91402  1.0000
  H   H999      1.0  0.66299  0.22054  0.51031  1.0000
  C   C1258     1.0  0.97353  0.28265  0.95107  1.0000
  C   C1259     1.0  0.76435  0.11843  0.53424  1.0000
  C   C1260     1.0  0.63407  0.22893  0.54643  1.0000
  C   C1261     1.0  0.89252  0.30952  0.77377  1.0000
  C   C1262     1.0  0.67855  0.31325  0.77111  1.0000
  H   H1000     1.0  0.49658  0.25707  0.61862  1.0000
  H   H1001     1.0  0.68145  0.98854  0.92521  1.0000
  H   H1002     1.0  0.79198  0.08235  0.96814  1.0000
  Fe  Fe89      1.0  0.79483  0.52367  0.37590  1.0000
  S   S176      1.0  0.84073  0.54127  0.37458  1.0000
  S   S177      1.0  0.77915  0.51431  0.41988  1.0000
  Fe  Fe90      1.0  0.77872  0.52996  0.31239  1.0000
  S   S178      1.0  0.82450  0.54728  0.30818  1.0000
  S   S179      1.0  0.73773  0.53032  0.27680  1.0000
  Fe  Fe91      1.0  0.85513  0.52880  0.33444  1.0000
  S   S180      1.0  0.91117  0.51977  0.32352  1.0000
  Fe  Fe92      1.0  0.80570  0.55823  0.34848  1.0000
  S   S181      1.0  0.80588  0.58649  0.35168  1.0000
  S   S182      1.0  0.81068  0.51028  0.33632  1.0000
  S   S183      1.0  0.75868  0.54180  0.35228  1.0000
  Fe  Fe93      1.0  0.68992  0.52353  0.11203  1.0000
  S   S184      1.0  0.64752  0.54320  0.11767  1.0000
  S   S185      1.0  0.72633  0.51338  0.14688  1.0000
  Fe  Fe94      1.0  0.67510  0.52114  0.04813  1.0000
  S   S186      1.0  0.63245  0.54156  0.04999  1.0000
  S   S187      1.0  0.69609  0.50651  0.00969  1.0000
  Fe  Fe95      1.0  0.66985  0.55486  0.07877  1.0000
  S   S188      1.0  0.67431  0.58280  0.08598  1.0000
  Fe  Fe96      1.0  0.61380  0.52851  0.08875  1.0000
  S   S189      1.0  0.55792  0.52072  0.10092  1.0000
  S   S190      1.0  0.71395  0.53566  0.07420  1.0000
  S   S191      1.0  0.65457  0.50762  0.08581  1.0000
  C   C1263     1.0  0.51712  0.52951  0.08892  1.0000
  H   H1003     1.0  0.98485  0.50971  0.32455  1.0000
  C   C1264     1.0  0.77142  0.57263  0.42502  1.0000
  H   H1004     1.0  0.54012  0.54770  0.06164  1.0000
  C   C1265     1.0  0.70174  0.41384  0.13274  1.0000
  C   C1266     1.0  0.70738  0.59710  0.07610  1.0000
  C   C1267     1.0  0.73274  0.59347  0.05555  1.0000
  C   C1268     1.0  0.75606  0.60590  0.04637  1.0000
  C   C1269     1.0  0.75448  0.62198  0.05780  1.0000
  C   C1270     1.0  0.72996  0.62542  0.07908  1.0000
  C   C1271     1.0  0.70651  0.61303  0.08813  1.0000
  H   H1005     1.0  0.73361  0.58129  0.04608  1.0000
  H   H1006     1.0  0.77492  0.60314  0.02989  1.0000
  H   H1007     1.0  0.72830  0.63777  0.08788  1.0000
  H   H1008     1.0  0.68689  0.61595  0.10397  1.0000
  C   C1272     1.0  0.73723  0.52628  0.24027  1.0000
  C   C1273     1.0  0.75773  0.51346  0.22813  1.0000
  C   C1274     1.0  0.75457  0.50998  0.19952  1.0000
  C   C1275     1.0  0.73068  0.51911  0.18255  1.0000
  C   C1276     1.0  0.71034  0.53201  0.19460  1.0000
  C   C1277     1.0  0.71342  0.53547  0.22325  1.0000
  H   H1009     1.0  0.77509  0.50579  0.24095  1.0000
  H   H1010     1.0  0.77018  0.49985  0.19061  1.0000
  H   H1011     1.0  0.69156  0.53901  0.18198  1.0000
  H   H1012     1.0  0.69688  0.54521  0.23239  1.0000
  C   C1278     1.0  0.76663  0.59908  0.35158  1.0000
  C   C1279     1.0  0.76941  0.61650  0.35111  1.0000
  C   C1280     1.0  0.73872  0.62690  0.35096  1.0000
  C   C1281     1.0  0.70496  0.61992  0.35145  1.0000
  C   C1282     1.0  0.70225  0.60249  0.35177  1.0000
  C   C1283     1.0  0.73293  0.59211  0.35181  1.0000
  H   H1013     1.0  0.79541  0.62198  0.35105  1.0000
  H   H1014     1.0  0.74115  0.64029  0.35109  1.0000
  H   H1015     1.0  0.67626  0.59698  0.35206  1.0000
  H   H1016     1.0  0.73045  0.57873  0.35218  1.0000
  C   C1284     1.0  0.55745  0.45066  0.08691  1.0000
  C   C1285     1.0  0.94872  0.52935  0.33784  1.0000
  C   C1286     1.0  0.94581  0.54470  0.35130  1.0000
  H   H1017     1.0  0.83396  0.62523  0.40167  1.0000
  H   H1018     1.0  0.92002  0.55080  0.35349  1.0000
  S   S192      1.0  0.78208  0.63762  0.04384  1.0000
  C   C1287     1.0  0.59052  0.64754  0.16369  1.0000
  C   C1288     1.0  0.98472  0.52013  0.43571  1.0000
  H   H1019     1.0  0.82230  0.45715  0.44530  1.0000
  H   H1020     1.0  0.77620  0.57699  0.40404  1.0000
  C   C1289     1.0  0.80509  0.48218  0.43398  1.0000
  C   C1290     1.0  0.78811  0.49695  0.44278  1.0000
  C   C1291     1.0  0.85511  0.58427  0.41326  1.0000
  H   H1021     1.0  0.81375  0.48107  0.41262  1.0000
  C   C1292     1.0  0.58090  0.64257  0.13705  1.0000
  C   C1293     1.0  0.56302  0.49137  0.04106  1.0000
  H   H1022     1.0  0.65117  0.45919  0.06807  1.0000
  C   C1294     1.0  0.87577  0.61152  0.38115  1.0000
  C   C1295     1.0  0.58473  0.47930  0.02832  1.0000
  C   C1296     1.0  0.57406  0.58761  0.09936  1.0000
  C   C1297     1.0  0.63840  0.62018  0.04326  1.0000
  H   H1023     1.0  0.87520  0.62373  0.27972  1.0000
  C   C1298     1.0  0.53577  0.46436  0.09393  1.0000
  C   C1299     1.0  0.70969  0.62581  0.41743  1.0000
  H   H1024     1.0  0.67436  0.60790  0.01459  1.0000
  P   P43       1.0  0.64953  0.45922  0.12919  1.0000
  C   C1300     1.0  0.76941  0.61787  0.43233  1.0000
  H   H1025     1.0  0.61795  0.60423  0.10065  1.0000
  C   C1301     1.0  0.67451  0.46535  0.07542  1.0000
  C   C1302     1.0  0.91282  0.49118  0.43275  1.0000
  C   C1303     1.0  0.82750  0.64968  0.17710  1.0000
  C   C1304     1.0  0.86952  0.52399  0.45341  1.0000
  C   C1305     1.0  0.68585  0.63392  0.01846  1.0000
  C   C1306     1.0  0.90473  0.52278  0.46290  1.0000
  H   H1026     1.0  0.54769  0.44132  0.07293  1.0000
  C   C1307     1.0  0.83701  0.59968  0.41637  1.0000
  H   H1027     1.0  0.56454  0.64672  0.29825  1.0000
  H   H1028     1.0  0.82223  0.61625  0.13393  1.0000
  H   H1029     1.0  0.91613  0.51148  0.40293  1.0000
  C   C1308     1.0  0.65997  0.43737  0.13470  1.0000
  C   C1309     1.0  0.64328  0.58808  0.16053  1.0000
  H   H1030     1.0  0.73742  0.53919  0.45884  1.0000
  C   C1310     1.0  0.56705  0.63580  0.28514  1.0000
  C   C1311     1.0  0.53443  0.61493  0.07902  1.0000
  H   H1031     1.0  0.66150  0.64656  0.10491  1.0000
  C   C1312     1.0  0.51043  0.47854  0.02221  1.0000
  H   H1032     1.0  0.72213  0.64693  0.30039  1.0000
  H   H1033     1.0  0.68199  0.39033  0.14725  1.0000
  H   H1034     1.0  0.80354  0.63859  0.44090  1.0000
  P   P44       1.0  0.92919  0.50323  0.46132  1.0000
  H   H1035     1.0  0.93909  0.61320  0.14696  1.0000
  H   H1036     1.0  0.62434  0.60883  0.04740  1.0000
  H   H1037     1.0  0.73915  0.64972  0.16186  1.0000
  C   C1313     1.0  0.75211  0.64715  0.42705  1.0000
  C   C1314     1.0  0.59186  0.44913  0.09764  1.0000
  C   C1315     1.0  0.53809  0.58590  0.09320  1.0000
  H   H1038     1.0  0.88804  0.63329  0.23187  1.0000
  C   C1316     1.0  0.68050  0.49426  0.98126  1.0000
  C   C1317     1.0  0.77753  0.63484  0.43411  1.0000
  H   H1039     1.0  0.67712  0.56781  0.17447  1.0000
  C   C1318     1.0  0.78122  0.58223  0.44786  1.0000
  C   C1319     1.0  0.67585  0.40344  0.14380  1.0000
  C   C1320     1.0  0.81363  0.62680  0.14640  1.0000
  H   H1040     1.0  0.97413  0.56441  0.37112  1.0000
  H   H1041     1.0  0.88334  0.62198  0.36832  1.0000
  C   C1321     1.0  0.64212  0.40996  0.15050  1.0000
  C   C1322     1.0  0.74915  0.55131  0.45592  1.0000
  H   H1042     1.0  0.85153  0.63468  0.00708  1.0000
  C   C1323     1.0  0.53242  0.46605  0.01036  1.0000
  H   H1043     1.0  0.51632  0.60749  0.25251  1.0000
  H   H1044     1.0  0.57492  0.50109  0.05317  1.0000
  H   H1045     1.0  0.66357  0.46356  0.23136  1.0000
  H   H1046     1.0  0.93005  0.61617  0.19778  1.0000
  C   C1324     1.0  0.66292  0.57915  0.18036  1.0000
  H   H1047     1.0  0.58957  0.57697  0.10688  1.0000
  P   P45       1.0  0.80215  0.60205  0.44226  1.0000
  H   H1048     1.0  0.96661  0.45468  0.44233  1.0000
  H   H1049     1.0  0.55369  0.63909  0.13324  1.0000
  C   C1325     1.0  0.71227  0.64635  0.23028  1.0000
  C   C1326     1.0  0.56944  0.46660  0.01307  1.0000
  C   C1327     1.0  0.69392  0.43076  0.12827  1.0000
  H   H1050     1.0  0.65767  0.44810  0.18777  1.0000
  H   H1051     1.0  0.68096  0.62917  0.20779  1.0000
  C   C1328     1.0  0.73521  0.61347  0.42391  1.0000
  S   S193      1.0  0.66547  0.63239  0.35250  1.0000
  C   C1329     1.0  0.97650  0.55240  0.36118  1.0000
  H   H1052     1.0  0.62211  0.40191  0.15921  1.0000
  C   C1330     1.0  0.60485  0.46132  0.11554  1.0000
  H   H1053     1.0  0.68442  0.62232  0.29662  1.0000
  C   C1331     1.0  0.90939  0.49857  0.40636  1.0000
  C   C1332     1.0  0.51826  0.59955  0.08308  1.0000
  H   H1054     1.0  0.57577  0.59645  0.23903  1.0000
  H   H1055     1.0  0.89346  0.49526  0.36391  1.0000
  H   H1056     1.0  0.70858  0.63330  0.00452  1.0000
  C   C1333     1.0  0.75550  0.55724  0.42910  1.0000
  C   C1334     1.0  0.80990  0.46859  0.45264  1.0000
  C   C1335     1.0  0.97551  0.50679  0.45318  1.0000
  C   C1336     1.0  0.64437  0.49291  0.97480  1.0000
  H   H1057     1.0  0.64225  0.58356  0.13943  1.0000
  H   H1058     1.0  0.72795  0.40881  0.12766  1.0000
  H   H1059     1.0  0.65510  0.50985  0.18658  1.0000
  H   H1060     1.0  0.74841  0.54974  0.41146  1.0000
  C   C1337     1.0  0.57071  0.61669  0.08494  1.0000
  H   H1061     1.0  0.75875  0.62511  0.13438  1.0000
  C   C1338     1.0  0.90407  0.47438  0.43629  1.0000
  C   C1339     1.0  0.77780  0.63177  0.14666  1.0000
  H   H1062     1.0  0.87732  0.46578  0.37064  1.0000
  H   H1063     1.0  0.69300  0.47084  0.03389  1.0000
  C   C1340     1.0  0.84959  0.53874  0.45696  1.0000
  H   H1064     1.0  0.60984  0.60964  0.15255  1.0000
  C   C1341     1.0  0.51569  0.54272  0.06984  1.0000
  H   H1065     1.0  0.49031  0.59814  0.07844  1.0000
  H   H1066     1.0  0.51841  0.62535  0.07153  1.0000
  C   C1342     1.0  0.86117  0.63454  0.27125  1.0000
  C   C1343     1.0  0.88331  0.58255  0.39438  1.0000
  C   C1344     1.0  0.60081  0.62964  0.27757  1.0000
  H   H1067     1.0  0.52557  0.57399  0.09634  1.0000
  H   H1068     1.0  0.86584  0.63156  0.16131  1.0000
  H   H1069     1.0  0.63056  0.64125  0.43404  1.0000
  C   C1345     1.0  0.86843  0.64002  0.24419  1.0000
  C   C1346     1.0  0.83836  0.63564  0.16172  1.0000
  H   H1070     1.0  0.71446  0.43861  0.11988  1.0000
  C   C1347     1.0  0.54854  0.47662  0.11137  1.0000
  C   C1348     1.0  0.65694  0.46156  0.18704  1.0000
  C   C1349     1.0  0.59014  0.60300  0.09558  1.0000
  C   C1350     1.0  0.89664  0.48940  0.38410  1.0000
  H   H1071     1.0  0.61342  0.47982  0.03031  1.0000
  H   H1072     1.0  0.91335  0.64460  0.01142  1.0000
  C   C1351     1.0  0.65959  0.48768  0.21181  1.0000
  C   C1352     1.0  0.65551  0.49636  0.18680  1.0000
  C   C1353     1.0  0.65297  0.48772  0.16186  1.0000
  C   C1354     1.0  0.65341  0.47023  0.16171  1.0000
  H   H1073     1.0  0.88419  0.45237  0.41697  1.0000
  C   C1355     1.0  0.58294  0.47518  0.12208  1.0000
  C   C1356     1.0  0.68062  0.46724  0.10397  1.0000
  C   C1357     1.0  0.71146  0.47523  0.11264  1.0000
  C   C1358     1.0  0.73500  0.48180  0.09307  1.0000
  C   C1359     1.0  0.72834  0.48017  0.06473  1.0000
  C   C1360     1.0  0.69829  0.47182  0.05592  1.0000
  H   H1074     1.0  0.53202  0.48748  0.11626  1.0000
  C   C1361     1.0  0.88762  0.47276  0.38789  1.0000
  H   H1075     1.0  0.66265  0.49449  0.23099  1.0000
  H   H1076     1.0  0.72804  0.60057  0.42197  1.0000
  H   H1077     1.0  0.65109  0.49475  0.14268  1.0000
  H   H1078     1.0  0.90407  0.34497  0.97476  1.0000
  H   H1079     1.0  0.58640  0.45722  0.00325  1.0000
  H   H1080     1.0  0.59206  0.48506  0.13512  1.0000
  H   H1081     1.0  0.71708  0.47678  0.13448  1.0000
  H   H1082     1.0  0.75790  0.48858  0.09997  1.0000
  H   H1083     1.0  0.74596  0.48571  0.04953  1.0000
  H   H1084     1.0  0.60803  0.43180  0.15156  1.0000
  P   P46       1.0  0.59229  0.63646  0.08097  1.0000
  C   C1362     1.0  0.77203  0.55297  0.14339  1.0000
  C   C1363     1.0  0.74633  0.56484  0.13537  1.0000
  C   C1364     1.0  0.74530  0.58049  0.14781  1.0000
  C   C1365     1.0  0.76967  0.58421  0.16857  1.0000
  C   C1366     1.0  0.79545  0.57227  0.17702  1.0000
  C   C1367     1.0  0.79670  0.55668  0.16392  1.0000
  P   P47       1.0  0.82923  0.57763  0.20186  1.0000
  C   C1368     1.0  0.86369  0.58908  0.18430  1.0000
  C   C1369     1.0  0.80954  0.59073  0.22851  1.0000
  C   C1370     1.0  0.80179  0.58426  0.25499  1.0000
  C   C1371     1.0  0.78777  0.59463  0.27566  1.0000
  C   C1372     1.0  0.78063  0.61142  0.27007  1.0000
  C   C1373     1.0  0.78777  0.61793  0.24371  1.0000
  C   C1374     1.0  0.80257  0.60770  0.22312  1.0000
  C   C1375     1.0  0.86920  0.58737  0.15560  1.0000
  C   C1376     1.0  0.89628  0.59608  0.14224  1.0000
  C   C1377     1.0  0.91827  0.60641  0.15744  1.0000
  C   C1378     1.0  0.91307  0.60811  0.18605  1.0000
  C   C1379     1.0  0.88580  0.59954  0.19944  1.0000
  C   C1380     1.0  0.84842  0.55923  0.21846  1.0000
  C   C1381     1.0  0.82648  0.54620  0.22704  1.0000
  C   C1382     1.0  0.84065  0.53274  0.24227  1.0000
  C   C1383     1.0  0.87671  0.53211  0.24901  1.0000
  C   C1384     1.0  0.89882  0.54487  0.24028  1.0000
  C   C1385     1.0  0.88481  0.55838  0.22506  1.0000
  H   H1085     1.0  0.77280  0.54083  0.13361  1.0000
  H   H1086     1.0  0.72732  0.56196  0.11937  1.0000
  H   H1087     1.0  0.72556  0.58972  0.14116  1.0000
  H   H1088     1.0  0.76835  0.59645  0.17766  1.0000
  H   H1089     1.0  0.81673  0.54734  0.16934  1.0000
  H   H1090     1.0  0.80658  0.57129  0.26007  1.0000
  H   H1091     1.0  0.78210  0.58954  0.29603  1.0000
  H   H1092     1.0  0.76970  0.61932  0.28630  1.0000
  H   H1093     1.0  0.78234  0.63097  0.23931  1.0000
  H   H1094     1.0  0.80857  0.61307  0.20303  1.0000
  H   H1095     1.0  0.85268  0.57932  0.14345  1.0000
  H   H1096     1.0  0.90018  0.59480  0.12002  1.0000
  H   H1097     1.0  0.82943  0.63847  0.30819  1.0000
  C   C1386     1.0  0.62932  0.63513  0.05686  1.0000
  H   H1098     1.0  0.88215  0.60088  0.22165  1.0000
  H   H1099     1.0  0.79815  0.54670  0.22290  1.0000
  H   H1100     1.0  0.82344  0.52307  0.24980  1.0000
  H   H1101     1.0  0.88733  0.52190  0.26156  1.0000
  H   H1102     1.0  0.92667  0.54442  0.24595  1.0000
  H   H1103     1.0  0.90243  0.56822  0.21908  1.0000
  C   C1387     1.0  0.66024  0.47027  0.21194  1.0000
  H   H1104     1.0  0.69099  0.55332  0.32038  1.0000
  C   C1388     1.0  0.71386  0.64274  0.28014  1.0000
  C   C1389     1.0  0.52604  0.49091  0.03832  1.0000
  C   C1390     1.0  0.53663  0.62786  0.27602  1.0000
  C   C1391     1.0  0.63419  0.42687  0.14604  1.0000
  H   H1105     1.0  0.68356  0.62231  0.41042  1.0000
  H   H1106     1.0  0.91497  0.59467  0.36325  1.0000
  C   C1392     1.0  0.83526  0.64280  0.28731  1.0000
  C   C1393     1.0  0.62500  0.60273  0.16796  1.0000
  H   H1107     1.0  0.71653  0.59104  0.26062  1.0000
  H   H1108     1.0  0.96448  0.52851  0.42728  1.0000
  C   C1394     1.0  0.66430  0.58482  0.20770  1.0000
  C   C1395     1.0  0.64576  0.59950  0.21543  1.0000
  C   C1396     1.0  0.62625  0.60844  0.19527  1.0000
  P   P48       1.0  0.64794  0.60746  0.25040  1.0000
  C   C1397     1.0  0.60443  0.61553  0.26055  1.0000
  C   C1398     1.0  0.66157  0.59096  0.27399  1.0000
  C   C1399     1.0  0.63686  0.58325  0.29157  1.0000
  C   C1400     1.0  0.64754  0.56982  0.30845  1.0000
  C   C1401     1.0  0.68283  0.56399  0.30784  1.0000
  C   C1402     1.0  0.70766  0.57180  0.29081  1.0000
  C   C1403     1.0  0.69717  0.58532  0.27412  1.0000
  C   C1404     1.0  0.84761  0.61330  0.40013  1.0000
  C   C1405     1.0  0.89361  0.59616  0.37829  1.0000
  H   H1109     1.0  0.73492  0.56711  0.29030  1.0000
  C   C1406     1.0  0.53994  0.61371  0.25936  1.0000
  C   C1407     1.0  0.57368  0.60754  0.25169  1.0000
  C   C1408     1.0  0.67976  0.62391  0.25205  1.0000
  C   C1409     1.0  0.69242  0.62884  0.27796  1.0000
  H   H1110     1.0  0.50973  0.50025  0.04886  1.0000
  H   H1111     1.0  0.56959  0.64398  0.41505  1.0000
  H   H1112     1.0  0.89664  0.57054  0.39176  1.0000
  C   C1410     1.0  0.69021  0.63264  0.22808  1.0000
  C   C1411     1.0  0.89151  0.46523  0.41394  1.0000
  H   H1113     1.0  0.60844  0.43852  0.09173  1.0000
  C   C1412     1.0  0.66663  0.61961  0.02421  1.0000
  H   H1114     1.0  0.67965  0.57757  0.22253  1.0000
  H   H1115     1.0  0.61205  0.61985  0.20071  1.0000
  H   H1116     1.0  0.60932  0.58742  0.29223  1.0000
  H   H1117     1.0  0.62841  0.56379  0.32183  1.0000
  H   H1118     1.0  0.82248  0.53951  0.44943  1.0000
  C   C1413     1.0  0.98242  0.52161  0.33489  1.0000
  H   H1119     1.0  0.87472  0.59769  0.46467  1.0000
  H   H1120     1.0  0.50928  0.46570  0.08554  1.0000
  H   H1121     1.0  0.84724  0.57347  0.42505  1.0000
  C   C1414     1.0  0.64820  0.64956  0.05036  1.0000
  C   C1415     1.0  0.60612  0.64227  0.11539  1.0000
  C   C1416     1.0  0.71823  0.64262  0.41860  1.0000
  H   H1122     1.0  0.97621  0.47124  0.39989  1.0000
  C   C1417     1.0  0.76672  0.64557  0.16223  1.0000
  H   H1123     1.0  0.55662  0.63893  0.02777  1.0000
  H   H1124     1.0  0.52126  0.45581  0.99914  1.0000
  H   H1125     1.0  0.85709  0.51353  0.44358  1.0000
  H   H1126     1.0  0.90674  0.46827  0.45620  1.0000
  C   C1418     1.0  0.67656  0.64890  0.03146  1.0000
  C   C1419     1.0  0.64125  0.64677  0.12094  1.0000
  H   H1127     1.0  0.57086  0.64794  0.18025  1.0000
  C   C1420     1.0  0.85860  0.64677  0.99880  1.0000
  H   H1128     1.0  0.62467  0.49955  0.98718  1.0000
  H   H1129     1.0  0.51053  0.63266  0.28204  1.0000
  H   H1130     1.0  0.62375  0.63597  0.28529  1.0000
  H   H1131     1.0  0.49137  0.51083  0.00177  1.0000
  C   C1421     1.0  0.54965  0.65007  0.03941  1.0000
  C   C1422     1.0  0.91553  0.31861  0.97121  1.0000
  H   H1132     1.0  0.93386  0.31846  0.98846  1.0000
  Fe  Fe97      1.0  0.85331  0.43357  0.59477  1.0000
  S   S194      1.0  0.80899  0.45272  0.58927  1.0000
  S   S195      1.0  0.90524  0.44156  0.61401  1.0000
  Fe  Fe98      1.0  0.80739  0.40510  0.57335  1.0000
  S   S196      1.0  0.76095  0.42245  0.56538  1.0000
  S   S197      1.0  0.80948  0.37676  0.56970  1.0000
  Fe  Fe99      1.0  0.80100  0.44057  0.54746  1.0000
  S   S198      1.0  0.80465  0.45170  0.50288  1.0000
  Fe  Fe100     1.0  0.77326  0.43300  0.60787  1.0000
  S   S199      1.0  0.72935  0.43181  0.64160  1.0000
  S   S200      1.0  0.84681  0.42211  0.55304  1.0000
  S   S201      1.0  0.81847  0.41503  0.61572  1.0000
  Fe  Fe101     1.0  0.68650  0.44072  0.80750  1.0000
  S   S202      1.0  0.67015  0.41414  0.80706  1.0000
  S   S203      1.0  0.71583  0.45227  0.77015  1.0000
  Fe  Fe102     1.0  0.66181  0.44543  0.86995  1.0000
  S   S204      1.0  0.64516  0.41852  0.87256  1.0000
  S   S205      1.0  0.64348  0.46283  0.90604  1.0000
  Fe  Fe103     1.0  0.69572  0.41215  0.84895  1.0000
  S   S206      1.0  0.74023  0.39281  0.85592  1.0000
  Fe  Fe104     1.0  0.62121  0.42305  0.83040  1.0000
  S   S207      1.0  0.56747  0.41466  0.81521  1.0000
  S   S208      1.0  0.71422  0.43873  0.84896  1.0000
  S   S209      1.0  0.63566  0.44988  0.82815  1.0000
  C   C1423     1.0  0.65881  0.47463  0.93508  1.0000
  C   C1424     1.0  0.94329  0.44461  0.49334  1.0000
  H   H1133     1.0  0.60063  0.33154  0.58513  1.0000
  H   H1134     1.0  0.82518  0.36312  0.72484  1.0000
  H   H1135     1.0  0.60572  0.48243  0.94719  1.0000
  C   C1425     1.0  0.73621  0.37107  0.86119  1.0000
  C   C1426     1.0  0.70355  0.36315  0.85958  1.0000
  C   C1427     1.0  0.70194  0.34579  0.86382  1.0000
  C   C1428     1.0  0.73295  0.33618  0.86916  1.0000
  C   C1429     1.0  0.76557  0.34409  0.87058  1.0000
  C   C1430     1.0  0.76710  0.36147  0.86679  1.0000
  H   H1136     1.0  0.67957  0.37042  0.85541  1.0000
  H   H1137     1.0  0.67656  0.33976  0.86305  1.0000
  H   H1138     1.0  0.78949  0.33685  0.87506  1.0000
  H   H1139     1.0  0.79241  0.36753  0.86827  1.0000
  C   C1431     1.0  0.52665  0.43331  0.85218  1.0000
  C   C1432     1.0  0.52712  0.42177  0.83059  1.0000
  C   C1433     1.0  0.70557  0.48570  0.96435  1.0000
  H   H1140     1.0  0.55142  0.43791  0.86010  1.0000
  H   H1141     1.0  0.81466  0.37095  0.65310  1.0000
  C   C1434     1.0  0.85461  0.32839  0.67699  1.0000
  H   H1142     1.0  0.54889  0.46501  0.90632  1.0000
  H   H1143     1.0  0.84860  0.56354  0.47365  1.0000
  C   C1435     1.0  0.54162  0.47497  0.89196  1.0000
  H   H1144     1.0  0.77326  0.48554  0.51081  1.0000
  C   C1436     1.0  0.72820  0.43663  0.67784  1.0000
  C   C1437     1.0  0.75013  0.44852  0.68950  1.0000
  C   C1438     1.0  0.74605  0.45302  0.71770  1.0000
  C   C1439     1.0  0.72066  0.44542  0.73497  1.0000
  C   C1440     1.0  0.69939  0.43315  0.72353  1.0000
  C   C1441     1.0  0.70286  0.42897  0.69511  1.0000
  H   H1145     1.0  0.76928  0.45474  0.67650  1.0000
  H   H1146     1.0  0.76242  0.46263  0.72612  1.0000
  H   H1147     1.0  0.67955  0.42725  0.73636  1.0000
  H   H1148     1.0  0.68552  0.41988  0.68632  1.0000
  C   C1442     1.0  0.77187  0.36393  0.56647  1.0000
  C   C1443     1.0  0.77612  0.34666  0.57085  1.0000
  C   C1444     1.0  0.74688  0.33604  0.56919  1.0000
  C   C1445     1.0  0.71314  0.34255  0.56253  1.0000
  C   C1446     1.0  0.70888  0.35981  0.55802  1.0000
  C   C1447     1.0  0.73801  0.37048  0.56018  1.0000
  H   H1149     1.0  0.80217  0.34148  0.57568  1.0000
  P   P49       1.0  0.58533  0.49593  0.82235  1.0000
  H   H1150     1.0  0.68298  0.36496  0.55272  1.0000
  H   H1151     1.0  0.73433  0.38374  0.55682  1.0000
  C   C1448     1.0  0.94637  0.43176  0.60511  1.0000
  C   C1449     1.0  0.94866  0.41913  0.58530  1.0000
  C   C1450     1.0  0.90002  0.42282  0.49041  1.0000
  H   H1152     1.0  0.92485  0.41508  0.57508  1.0000
  C   C1451     1.0  0.97755  0.43684  0.61823  1.0000
  C   C1452     1.0  0.50979  0.48406  0.89544  1.0000
  H   H1153     1.0  0.59619  0.47636  0.72552  1.0000
  H   H1154     1.0  0.83038  0.48237  0.72696  1.0000
  C   C1453     1.0  0.97081  0.43315  0.48665  1.0000
  C   C1454     1.0  0.81516  0.40738  0.68880  1.0000
  H   H1155     1.0  0.94975  0.37557  0.73096  1.0000
  C   C1455     1.0  0.59561  0.53027  0.81994  1.0000
  H   H1156     1.0  0.65271  0.48522  0.79462  1.0000
  C   C1456     1.0  0.69334  0.48700  0.82506  1.0000
  C   C1457     1.0  0.84524  0.40372  0.79889  1.0000
  C   C1458     1.0  0.91092  0.35622  0.73297  1.0000
  H   H1157     1.0  0.86573  0.62187  0.54356  1.0000
  H   H1158     1.0  0.71389  0.48213  0.81123  1.0000
  C   C1459     1.0  0.84951  0.40619  0.69979  1.0000
  C   C1460     1.0  0.74306  0.37412  0.62783  1.0000
  C   C1461     1.0  0.74612  0.35727  0.63489  1.0000
  C   C1462     1.0  0.71608  0.34860  0.64325  1.0000
  C   C1463     1.0  0.68286  0.35674  0.64405  1.0000
  C   C1464     1.0  0.67931  0.37345  0.63541  1.0000
  C   C1465     1.0  0.70990  0.38225  0.62830  1.0000
  P   P50       1.0  0.63572  0.38314  0.63199  1.0000
  C   C1466     1.0  0.63868  0.39824  0.60406  1.0000
  C   C1467     1.0  0.60469  0.36702  0.62354  1.0000
  C   C1468     1.0  0.61474  0.35447  0.60466  1.0000
  C   C1469     1.0  0.59218  0.34128  0.59940  1.0000
  C   C1470     1.0  0.55918  0.34055  0.61276  1.0000
  C   C1471     1.0  0.54874  0.35305  0.63138  1.0000
  C   C1472     1.0  0.57142  0.36623  0.63686  1.0000
  C   C1473     1.0  0.63283  0.39366  0.57640  1.0000
  C   C1474     1.0  0.63903  0.40496  0.55476  1.0000
  C   C1475     1.0  0.65127  0.42087  0.56053  1.0000
  C   C1476     1.0  0.65699  0.42555  0.58798  1.0000
  C   C1477     1.0  0.65061  0.41434  0.60965  1.0000
  C   C1478     1.0  0.62299  0.39372  0.66364  1.0000
  C   C1479     1.0  0.59610  0.40615  0.66325  1.0000
  C   C1480     1.0  0.58723  0.41489  0.68747  1.0000
  C   C1481     1.0  0.64053  0.39004  0.68862  1.0000
  H   H1159     1.0  0.76612  0.38073  0.62044  1.0000
  H   H1160     1.0  0.77162  0.35087  0.63284  1.0000
  H   H1161     1.0  0.71817  0.33540  0.64790  1.0000
  H   H1162     1.0  0.65980  0.34976  0.65010  1.0000
  H   H1163     1.0  0.70839  0.39520  0.62193  1.0000
  H   H1164     1.0  0.64045  0.35465  0.59434  1.0000
  C   C1482     1.0  0.83437  0.34451  0.75690  1.0000
  H   H1165     1.0  0.55593  0.56195  0.78339  1.0000
  H   H1166     1.0  0.52316  0.35242  0.64176  1.0000
  H   H1167     1.0  0.56306  0.37560  0.65167  1.0000
  H   H1168     1.0  0.62449  0.38128  0.57126  1.0000
  H   H1169     1.0  0.63528  0.40124  0.53342  1.0000
  H   H1170     1.0  0.65705  0.42945  0.54372  1.0000
  H   H1171     1.0  0.66760  0.43768  0.59250  1.0000
  H   H1172     1.0  0.65677  0.41803  0.63065  1.0000
  H   H1173     1.0  0.58239  0.40925  0.64412  1.0000
  H   H1174     1.0  0.56677  0.42460  0.68699  1.0000
  H   H1175     1.0  0.66128  0.38055  0.68936  1.0000
  H   H1176     1.0  0.72861  0.48924  0.85985  1.0000
  H   H1177     1.0  0.85469  0.47405  0.53017  1.0000
  H   H1178     1.0  0.89069  0.36451  0.74144  1.0000
  C   C1483     1.0  0.88743  0.48689  0.50042  1.0000
  H   H1179     1.0  0.98334  0.40177  0.56355  1.0000
  C   C1484     1.0  0.65830  0.48876  0.81570  1.0000
  C   C1485     1.0  0.80280  0.37094  0.76383  1.0000
  C   C1486     1.0  0.90399  0.33937  0.72792  1.0000
  C   C1487     1.0  0.85370  0.61809  0.52427  1.0000
  C   C1488     1.0  0.82261  0.60844  0.47420  1.0000
  S   S210      1.0  0.67596  0.32951  0.55883  1.0000
  H   H1180     1.0  0.83722  0.32863  0.79361  1.0000
  C   C1489     1.0  0.78205  0.32166  0.67915  1.0000
  C   C1490     1.0  0.80234  0.61710  0.49426  1.0000
  H   H1181     1.0  0.77646  0.39616  0.66299  1.0000
  C   C1491     1.0  0.89879  0.33367  0.96347  1.0000
  C   C1492     1.0  0.91935  0.53637  0.47660  1.0000
  C   C1493     1.0  0.70165  0.49100  0.85240  1.0000
  C   C1494     1.0  0.87522  0.33419  0.94113  1.0000
  H   H1182     1.0  0.54374  0.44324  0.78205  1.0000
  C   C1495     1.0  0.96921  0.42791  0.74407  1.0000
  C   C1496     1.0  0.85793  0.37913  0.67816  1.0000
  C   C1497     1.0  0.84373  0.46089  0.66705  1.0000
  H   H1183     1.0  0.55174  0.46293  0.82003  1.0000
  H   H1184     1.0  0.60383  0.49656  0.76328  1.0000
  H   H1185     1.0  0.79841  0.41834  0.69237  1.0000
  H   H1186     1.0  0.78093  0.58349  0.49287  1.0000
  C   C1498     1.0  0.69052  0.32968  0.77172  1.0000
  H   H1187     1.0  0.80214  0.62868  0.53448  1.0000
  H   H1188     1.0  0.94609  0.53549  0.48482  1.0000
  C   C1499     1.0  0.63985  0.49850  0.86116  1.0000
  H   H1189     1.0  0.76810  0.42618  0.79085  1.0000
  H   H1190     1.0  0.85821  0.39535  0.81360  1.0000
  H   H1191     1.0  0.97165  0.49967  0.51297  1.0000
  C   C1500     1.0  0.63193  0.39894  0.71270  1.0000
  H   H1192     1.0  0.88736  0.40177  0.76873  1.0000
  C   C1501     1.0  0.96876  0.42204  0.69486  1.0000
  C   C1502     1.0  0.77413  0.57633  0.47483  1.0000
  H   H1193     1.0  0.79883  0.40769  0.82485  1.0000
  H   H1194     1.0  0.91825  0.42944  0.76434  1.0000
  H   H1195     1.0  0.75339  0.55620  0.49958  1.0000
  C   C1503     1.0  0.94654  0.49358  0.51588  1.0000
  H   H1196     1.0  0.87468  0.36832  0.67358  1.0000
  C   C1504     1.0  0.67498  0.49690  0.87034  1.0000
  H   H1197     1.0  0.58858  0.47123  0.86716  1.0000
  C   C1505     1.0  0.75838  0.56086  0.47879  1.0000
  H   H1198     1.0  0.97600  0.44660  0.63359  1.0000
  H   H1199     1.0  0.51578  0.51039  0.84031  1.0000
  H   H1200     1.0  0.61650  0.52829  0.83506  1.0000
  C   C1506     1.0  0.59010  0.48509  0.76753  1.0000
  H   H1201     1.0  0.98277  0.42065  0.67521  1.0000
  C   C1507     1.0  0.58579  0.47369  0.74606  1.0000
  H   H1202     1.0  0.71468  0.46954  0.92892  1.0000
  H   H1203     1.0  0.91071  0.56154  0.49079  1.0000
  C   C1508     1.0  0.93957  0.48595  0.54150  1.0000
  H   H1204     1.0  0.54185  0.33022  0.60873  1.0000
  C   C1509     1.0  0.82792  0.34036  0.78481  1.0000
  H   H1205     1.0  0.82943  0.48643  0.67582  1.0000
  C   C1510     1.0  0.91320  0.42280  0.72105  1.0000
  H   H1206     1.0  0.68129  0.49965  0.89173  1.0000
  C   C1511     1.0  0.86852  0.31966  0.92646  1.0000
  C   C1512     1.0  0.58828  0.54646  0.81035  1.0000
  C   C1513     1.0  0.55634  0.45501  0.77789  1.0000
  C   C1514     1.0  0.81081  0.42485  0.76078  1.0000
  H   H1207     1.0  0.94909  0.45753  0.49720  1.0000
  C   C1515     1.0  0.72016  0.33346  0.78788  1.0000
  C   C1516     1.0  0.84475  0.45627  0.72464  1.0000
  C   C1517     1.0  0.54175  0.53613  0.78103  1.0000
  C   C1518     1.0  0.63108  0.49424  0.83383  1.0000
  H   H1208     1.0  0.90173  0.60635  0.50853  1.0000
  H   H1209     1.0  0.53350  0.50978  0.78283  1.0000
  H   H1210     1.0  0.56545  0.33646  0.68951  1.0000
  H   H1211     1.0  0.60967  0.35342  0.84716  1.0000
  H   H1212     1.0  0.72925  0.34611  0.78940  1.0000
  C   C1519     1.0  0.84511  0.41851  0.75466  1.0000
  C   C1520     1.0  0.90806  0.43944  0.49512  1.0000
  H   H1213     1.0  0.79394  0.38298  0.75600  1.0000
  C   C1521     1.0  0.85166  0.44515  0.67823  1.0000
  H   H1214     1.0  0.85824  0.43501  0.66424  1.0000
  C   C1522     1.0  0.60526  0.41133  0.71218  1.0000
  C   C1523     1.0  0.77705  0.49799  0.47078  1.0000
  H   H1215     1.0  0.89698  0.39055  0.70353  1.0000
  C   C1524     1.0  0.79833  0.46954  0.48052  1.0000
  C   C1525     1.0  0.55560  0.49147  0.85099  1.0000
  H   H1216     1.0  0.49384  0.44781  0.88025  1.0000
  C   C1526     1.0  0.87060  0.39183  0.69489  1.0000
  C   C1527     1.0  0.85184  0.44268  0.70711  1.0000
  C   C1528     1.0  0.81789  0.62194  0.51915  1.0000
  C   C1529     1.0  0.90676  0.47862  0.54647  1.0000
  P   P51       1.0  0.86069  0.33083  0.73488  1.0000
  P   P52       1.0  0.86521  0.42267  0.72125  1.0000
  H   H1217     1.0  0.73359  0.48661  0.96892  1.0000
  C   C1530     1.0  0.64450  0.33721  0.72408  1.0000
  C   C1531     1.0  0.60849  0.34054  0.71791  1.0000
  P   P53       1.0  0.66553  0.34600  0.75433  1.0000
  H   H1218     1.0  0.60356  0.55674  0.81801  1.0000
  C   C1532     1.0  0.69469  0.36260  0.74404  1.0000
  C   C1533     1.0  0.71199  0.36228  0.71815  1.0000
  C   C1534     1.0  0.73134  0.37594  0.70905  1.0000
  C   C1535     1.0  0.73401  0.38997  0.72583  1.0000
  C   C1536     1.0  0.71867  0.39002  0.75229  1.0000
  C   C1537     1.0  0.69926  0.37637  0.76150  1.0000
  H   H1219     1.0  0.77445  0.62006  0.49074  1.0000
  C   C1538     1.0  0.93173  0.42090  0.69578  1.0000
  C   C1539     1.0  0.56428  0.47857  0.86973  1.0000
  C   C1540     1.0  0.94455  0.36256  0.72717  1.0000
  H   H1220     1.0  0.95948  0.48582  0.55765  1.0000
  C   C1541     1.0  0.63346  0.35473  0.77865  1.0000
  C   C1542     1.0  0.63242  0.34930  0.80647  1.0000
  C   C1543     1.0  0.60955  0.35721  0.82553  1.0000
  C   C1544     1.0  0.58721  0.37037  0.81691  1.0000
  C   C1545     1.0  0.58791  0.37570  0.78928  1.0000
  C   C1546     1.0  0.61142  0.36818  0.77041  1.0000
  H   H1221     1.0  0.79655  0.43269  0.74604  1.0000
  H   H1222     1.0  0.86652  0.48749  0.48502  1.0000
  H   H1223     1.0  0.59170  0.34796  0.73144  1.0000
  H   H1224     1.0  0.70998  0.35176  0.70451  1.0000
  H   H1225     1.0  0.74355  0.37574  0.68869  1.0000
  H   H1226     1.0  0.74827  0.40075  0.71855  1.0000
  H   H1227     1.0  0.72163  0.40075  0.76557  1.0000
  H   H1228     1.0  0.68742  0.37676  0.78207  1.0000
  C   C1547     1.0  0.79662  0.36675  0.79160  1.0000
  C   C1548     1.0  0.56090  0.46631  0.79947  1.0000
  H   H1229     1.0  0.59890  0.41825  0.73090  1.0000
  H   H1230     1.0  0.78218  0.37533  0.80515  1.0000
  H   H1231     1.0  0.84406  0.46268  0.64473  1.0000
  H   H1232     1.0  0.64982  0.33932  0.81384  1.0000
  C   C1549     1.0  0.92101  0.49349  0.49468  1.0000
  H   H1233     1.0  0.56986  0.37673  0.83172  1.0000
  H   H1234     1.0  0.57080  0.38600  0.78268  1.0000
  H   H1235     1.0  0.61256  0.37296  0.74942  1.0000
  C   C1550     1.0  0.57776  0.48148  0.79445  1.0000
  C   C1551     1.0  0.83636  0.47197  0.71337  1.0000
  C   C1552     1.0  0.78227  0.48448  0.48952  1.0000
  C   C1553     1.0  0.80922  0.35146  0.80199  1.0000
  H   H1236     1.0  0.88675  0.44821  0.50033  1.0000
  C   C1554     1.0  0.54903  0.51992  0.79056  1.0000
  C   C1555     1.0  0.82391  0.38055  0.66677  1.0000
  C   C1556     1.0  0.82092  0.35974  0.74636  1.0000
  C   C1557     1.0  0.56891  0.45865  0.75124  1.0000
  H   H1237     1.0  0.98685  0.44264  0.54058  1.0000
  C   C1558     1.0  0.93211  0.42680  0.74505  1.0000
  C   C1559     1.0  0.52351  0.50055  0.85461  1.0000
  H   H1238     1.0  0.80476  0.34818  0.82347  1.0000
  H   H1239     1.0  0.61953  0.50268  0.87571  1.0000
  C   C1560     1.0  0.79435  0.42102  0.78606  1.0000
  C   C1561     1.0  0.86179  0.40752  0.77358  1.0000
  C   C1562     1.0  0.88048  0.47939  0.52612  1.0000
  C   C1563     1.0  0.80245  0.39462  0.67236  1.0000
  H   H1240     1.0  0.90149  0.47254  0.56624  1.0000
  H   H1241     1.0  0.64639  0.39650  0.73172  1.0000
  H   H1242     1.0  0.91758  0.41889  0.67656  1.0000
  C   C1564     1.0  0.69491  0.47596  0.94155  1.0000
  C   C1565     1.0  0.83580  0.47428  0.68458  1.0000
  H   H1243     1.0  0.56605  0.44970  0.73475  1.0000
  H   H1244     1.0  0.88269  0.33082  0.67552  1.0000
  H   H1245     1.0  0.65474  0.32201  0.49865  1.0000
  C   C1566     1.0  0.63370  0.48322  0.95194  1.0000
  C   C1567     1.0  0.59321  0.33389  0.69412  1.0000
  C   C1568     1.0  0.81166  0.41058  0.80521  1.0000
  H   H1246     1.0  0.86216  0.34583  0.93512  1.0000
  C   C1569     1.0  0.57617  0.51686  0.80998  1.0000
  C   C1570     1.0  0.56142  0.54940  0.79087  1.0000
  H   H1247     1.0  0.84587  0.45481  0.74697  1.0000
  C   C1571     1.0  0.87397  0.60934  0.50454  1.0000
  C   C1572     1.0  0.89930  0.55110  0.48017  1.0000
  C   C1573     1.0  0.93143  0.32896  0.71753  1.0000
  C   C1574     1.0  0.92722  0.41130  0.48405  1.0000
  C   C1575     1.0  0.50077  0.49685  0.87681  1.0000
  C   C1576     1.0  0.66448  0.32674  0.70634  1.0000
  C   C1577     1.0  0.85852  0.60448  0.47961  1.0000
  C   C1578     1.0  0.80004  0.32141  0.65372  1.0000
  H   H1248     1.0  0.75060  0.32279  0.57255  1.0000
  C   C1579     1.0  0.98754  0.42546  0.71902  1.0000
  C   C1580     1.0  0.97152  0.35215  0.71648  1.0000
  H   H1249     1.0  0.52096  0.53842  0.76590  1.0000
  H   H1250     1.0  0.98304  0.40724  0.47725  1.0000
  H   H1251     1.0  0.98371  0.43106  0.76261  1.0000
  H   H1252     1.0  0.85045  0.32000  0.90899  1.0000
  C   C1581     1.0  0.49474  0.41592  0.82048  1.0000
  H   H1253     1.0  0.87266  0.41888  0.49199  1.0000
  H   H1254     1.0  0.69200  0.32353  0.71086  1.0000
  C   C1582     1.0  0.73745  0.32091  0.80324  1.0000
  C   C1583     1.0  0.49400  0.43887  0.86362  1.0000
  H   H1255     1.0  0.59596  0.32048  0.52167  1.0000
  C   C1584     1.0  0.83615  0.32508  0.65257  1.0000
  H   H1256     1.0  0.75984  0.32380  0.81623  1.0000
  C   C1585     1.0  0.83689  0.32816  0.70278  1.0000
  C   C1586     1.0  0.61354  0.32374  0.67643  1.0000
  C   C1587     1.0  0.98186  0.41162  0.57877  1.0000
  H   H1257     1.0  0.49490  0.40701  0.80376  1.0000
  C   C1588     1.0  0.80025  0.32513  0.70359  1.0000
  C   C1589     1.0  0.64908  0.32013  0.68263  1.0000
  C   C1590     1.0  0.96248  0.41642  0.48210  1.0000
  C   C1591     1.0  0.96500  0.33535  0.71177  1.0000
  H   H1258     1.0  0.78606  0.32480  0.72323  1.0000
  H   H1259     1.0  0.76398  0.50930  0.47800  1.0000
  H   H1260     1.0  0.92091  0.39836  0.48085  1.0000
  H   H1261     1.0  0.84996  0.32503  0.63274  1.0000
  H   H1262     1.0  0.60874  0.32200  0.85382  1.0000
  H   H1263     1.0  0.98596  0.32724  0.70359  1.0000
  H   H1264     1.0  0.49337  0.47912  0.78173  1.0000
  H   H1265     1.0  0.49200  0.48114  0.91244  1.0000
  H   H1266     1.0  0.78596  0.31831  0.63490  1.0000
  H   H1267     1.0  0.75415  0.31863  0.67990  1.0000
  H   H1268     1.0  0.90757  0.32018  0.78007  1.0000
  C   C1592     1.0  0.86436  0.55225  0.47049  1.0000
  H   H1269     1.0  0.60173  0.31852  0.65802  1.0000
  Fe  Fe105     1.0  0.66420  0.66061  0.34805  1.0000
  S   S211      1.0  0.71045  0.67755  0.35135  1.0000
  H   H1270     1.0  0.52629  0.69063  0.07955  1.0000
  Fe  Fe106     1.0  0.61036  0.68913  0.33677  1.0000
  S   S212      1.0  0.65388  0.70835  0.33874  1.0000
  S   S213      1.0  0.55205  0.69620  0.32550  1.0000
  Fe  Fe107     1.0  0.68713  0.69015  0.31313  1.0000
  S   S214      1.0  0.72693  0.69680  0.27842  1.0000
  Fe  Fe108     1.0  0.67428  0.69451  0.37686  1.0000
  S   S215      1.0  0.68943  0.70284  0.42150  1.0000
  S   S216      1.0  0.64278  0.67209  0.30869  1.0000
  S   S217      1.0  0.62899  0.67637  0.37579  1.0000
  Fe  Fe109     1.0  0.77483  0.70126  0.05089  1.0000
  S   S218      1.0  0.82003  0.68288  0.04245  1.0000
  S   S219      1.0  0.75671  0.72393  0.02347  1.0000
  Fe  Fe110     1.0  0.76223  0.68625  0.11030  1.0000
  S   S220      1.0  0.80633  0.66703  0.10506  1.0000
  S   S221      1.0  0.72217  0.68526  0.14676  1.0000
  Fe  Fe111     1.0  0.83882  0.68747  0.08588  1.0000
  S   S222      1.0  0.89617  0.69160  0.10092  1.0000
  P   P54       1.0  0.73233  0.91383  0.46518  1.0000
  H   H1271     1.0  0.50021  0.68026  0.46263  1.0000
  S   S223      1.0  0.79568  0.70713  0.09381  1.0000
  S   S224      1.0  0.73854  0.68156  0.06801  1.0000
  C   C1593     1.0  0.93940  0.68645  0.08709  1.0000
  C   C1594     1.0  0.96978  0.69203  0.10097  1.0000
  C   C1595     1.0  0.94440  0.67698  0.06302  1.0000
  H   H1272     1.0  0.96642  0.69935  0.11960  1.0000
  H   H1273     1.0  0.92144  0.67257  0.05211  1.0000
  C   C1596     1.0  0.72397  0.69457  0.24162  1.0000
  C   C1597     1.0  0.75361  0.69846  0.22497  1.0000
  C   C1598     1.0  0.75328  0.69609  0.19594  1.0000
  C   C1599     1.0  0.72336  0.68967  0.18306  1.0000
  C   C1600     1.0  0.69343  0.68612  0.19962  1.0000
  C   C1601     1.0  0.69372  0.68848  0.22868  1.0000
  H   H1274     1.0  0.77705  0.70334  0.23462  1.0000
  H   H1275     1.0  0.77615  0.69919  0.18349  1.0000
  H   H1276     1.0  0.66985  0.68147  0.18992  1.0000
  H   H1277     1.0  0.67062  0.68547  0.24110  1.0000
  P   P55       1.0  0.85869  0.66086  0.19794  1.0000
  C   C1602     1.0  0.50849  0.69028  0.33691  1.0000
  C   C1603     1.0  0.72532  0.79826  0.97353  1.0000
  H   H1278     1.0  0.52582  0.67363  0.36939  1.0000
  C   C1604     1.0  0.85162  0.79885  0.42412  1.0000
  Fe  Fe112     1.0  0.78474  0.66361  0.06229  1.0000
  H   H1279     1.0  0.78239  0.66513  0.18934  1.0000
  H   H1280     1.0  0.72864  0.75480  0.00060  1.0000
  H   H1281     1.0  0.52609  0.96803  0.46678  1.0000
  C   C1605     1.0  0.71817  0.73463  0.42943  1.0000
  C   C1606     1.0  0.70670  0.71972  0.44147  1.0000
  H   H1282     1.0  0.60046  0.97702  0.38284  1.0000
  H   H1283     1.0  0.57716  0.94903  0.39323  1.0000
  H   H1284     1.0  0.71684  0.73624  0.40716  1.0000
  H   H1285     1.0  0.67779  0.79648  0.99850  1.0000
  H   H1286     1.0  0.61322  0.92767  0.42788  1.0000
  H   H1287     1.0  0.98256  0.66577  0.03456  1.0000
  H   H1288     1.0  0.81129  0.74942  0.99622  1.0000
  H   H1289     1.0  0.89451  0.78107  0.41787  1.0000
  C   C1607     1.0  0.90639  0.97525  0.99861  1.0000
  H   H1290     1.0  0.64138  0.66131  0.06023  1.0000
  H   H1291     1.0  0.80715  0.67196  0.24049  1.0000
  H   H1292     1.0  0.57913  0.72749  0.35039  1.0000
  C   C1608     1.0  0.57738  0.71657  0.41888  1.0000
  C   C1609     1.0  0.85213  0.68310  0.19409  1.0000
  C   C1610     1.0  0.91388  0.71914  0.04485  1.0000
  C   C1611     1.0  0.55434  0.66694  0.08070  1.0000
  H   H1293     1.0  0.53617  0.67061  0.41834  1.0000
  C   C1612     1.0  0.79141  0.65444  0.17749  1.0000
  C   C1613     1.0  0.89019  0.74421  0.42789  1.0000
  C   C1614     1.0  0.81158  0.79308  0.46233  1.0000
  C   C1615     1.0  0.84679  0.68998  0.16757  1.0000
  C   C1616     1.0  0.84462  0.70726  0.16385  1.0000
  C   C1617     1.0  0.84736  0.71781  0.18662  1.0000
  C   C1618     1.0  0.85331  0.71108  0.21305  1.0000
  C   C1619     1.0  0.85639  0.69381  0.21673  1.0000
  C   C1620     1.0  0.53248  0.67923  0.06844  1.0000
  C   C1621     1.0  0.50728  0.70144  0.43528  1.0000
  C   C1622     1.0  0.62788  0.92204  0.44492  1.0000
  C   C1623     1.0  0.85153  0.72584  0.03789  1.0000
  H   H1294     1.0  0.71972  0.65332  0.21192  1.0000
  C   C1624     1.0  0.66507  0.92131  0.44399  1.0000
  H   H1295     1.0  0.63277  0.65626  0.18951  1.0000
  C   C1625     1.0  0.56217  0.66953  0.42773  1.0000
  H   H1296     1.0  0.50351  0.72312  0.40811  1.0000
  C   C1626     1.0  0.94212  0.97327  0.99022  1.0000
  H   H1297     1.0  0.62680  0.74567  0.36735  1.0000
  C   C1627     1.0  0.58600  0.72747  0.37223  1.0000
  H   H1298     1.0  0.92721  0.65834  0.22713  1.0000
  C   C1628     1.0  0.56276  0.65218  0.06634  1.0000
  H   H1299     1.0  0.84510  0.68206  0.14961  1.0000
  H   H1300     1.0  0.84109  0.71244  0.14321  1.0000
  H   H1301     1.0  0.84525  0.73118  0.18369  1.0000
  H   H1302     1.0  0.85588  0.71929  0.23065  1.0000
  H   H1303     1.0  0.86250  0.68895  0.23717  1.0000
  C   C1629     1.0  0.82424  0.79714  0.99102  1.0000
  C   C1630     1.0  0.57078  0.95931  0.40696  1.0000
  C   C1631     1.0  0.83242  0.65705  0.98675  1.0000
  C   C1632     1.0  0.86312  0.73539  0.38481  1.0000
  H   H1304     1.0  0.51787  0.66066  0.00638  1.0000
  H   H1305     1.0  0.83631  0.75061  0.41517  1.0000
  C   C1633     1.0  0.80007  0.98058  0.00309  1.0000
  H   H1306     1.0  0.74002  0.66236  0.25809  1.0000
  C   C1634     1.0  0.90396  0.65737  0.18615  1.0000
  C   C1635     1.0  0.90191  0.66828  0.99169  1.0000
  C   C1636     1.0  0.89333  0.65238  0.00130  1.0000
  C   C1637     1.0  0.61287  0.73768  0.38177  1.0000
  C   C1638     1.0  0.71178  0.96862  0.99493  1.0000
  H   H1307     1.0  0.79559  0.66264  0.28841  1.0000
  C   C1639     1.0  0.58380  0.97510  0.40101  1.0000
  H   H1308     1.0  0.93998  0.70505  0.01281  1.0000
  C   C1640     1.0  0.50305  0.67914  0.35896  1.0000
  C   C1641     1.0  0.97917  0.67316  0.05311  1.0000
  H   H1309     1.0  0.73987  0.75898  0.43652  1.0000
  C   C1642     1.0  0.79873  0.96348  0.99682  1.0000
  H   H1310     1.0  0.93710  0.71898  0.05810  1.0000
  C   C1643     1.0  0.72378  0.65148  0.25631  1.0000
  C   C1644     1.0  0.82304  0.66173  0.24900  1.0000
  H   H1311     1.0  0.80589  0.81425  0.43497  1.0000
  H   H1312     1.0  0.56500  0.66920  0.10110  1.0000
  C   C1645     1.0  0.81611  0.65635  0.27613  1.0000
  C   C1646     1.0  0.63111  0.66649  0.44896  1.0000
  C   C1647     1.0  0.52778  0.66236  0.02722  1.0000
  C   C1648     1.0  0.78076  0.91774  0.42162  1.0000
  C   C1649     1.0  0.62286  0.73696  0.40963  1.0000
  C   C1650     1.0  0.96751  0.65660  0.19552  1.0000
  H   H1313     1.0  0.82647  0.73094  0.04564  1.0000
  H   H1314     1.0  0.75859  0.66023  0.42795  1.0000
  C   C1651     1.0  0.70195  0.95838  0.97303  1.0000
  C   C1652     1.0  0.68438  0.91424  0.46615  1.0000
  H   H1315     1.0  0.92794  0.78614  0.46575  1.0000
  H   H1316     1.0  0.70651  0.89422  0.41875  1.0000
  C   C1653     1.0  0.61216  0.68162  0.45113  1.0000
  C   C1654     1.0  0.65069  0.65180  0.14759  1.0000
  H   H1317     1.0  0.72060  0.96320  0.01446  1.0000
  H   H1318     1.0  0.94467  0.73543  0.43370  1.0000
  C   C1655     1.0  0.89452  0.72683  0.37750  1.0000
  C   C1656     1.0  0.88507  0.71097  0.00218  1.0000
  C   C1657     1.0  0.91164  0.65769  0.15754  1.0000
  C   C1658     1.0  0.96843  0.98182  0.00468  1.0000
  C   C1659     1.0  0.73129  0.74755  0.44623  1.0000
  C   C1660     1.0  0.61555  0.65284  0.43638  1.0000
  C   C1661     1.0  0.85297  0.71806  0.01200  1.0000
  H   H1319     1.0  0.82869  0.71707  0.00018  1.0000
  C   C1662     1.0  0.67027  0.98374  0.43184  1.0000
  H   H1320     1.0  0.88051  0.73178  0.07484  1.0000
  H   H1321     1.0  0.70245  0.94502  0.97615  1.0000
  C   C1663     1.0  0.66196  0.96767  0.44159  1.0000
  C   C1664     1.0  0.73058  0.90029  0.41212  1.0000
  C   C1665     1.0  0.74344  0.89768  0.38515  1.0000
  C   C1666     1.0  0.77477  0.90519  0.37634  1.0000
  C   C1667     1.0  0.79351  0.91514  0.39462  1.0000
  C   C1668     1.0  0.82159  0.80317  0.44001  1.0000
  H   H1322     1.0  0.65831  0.66558  0.45623  1.0000
  P   P56       1.0  0.55423  0.70311  0.44275  1.0000
  P   P57       1.0  0.88647  0.75525  0.46043  1.0000
  H   H1323     1.0  0.89616  0.72012  0.35807  1.0000
  H   H1324     1.0  0.98922  0.65685  0.21019  1.0000
  C   C1669     1.0  0.85011  0.65395  0.23312  1.0000
  C   C1670     1.0  0.91539  0.71129  0.01906  1.0000
  H   H1325     1.0  0.55123  0.73675  0.46584  1.0000
  H   H1326     1.0  0.75285  0.97424  0.45716  1.0000
  H   H1327     1.0  0.65614  0.95810  0.42675  1.0000
  H   H1328     1.0  0.84351  0.76398  0.03329  1.0000
  H   H1329     1.0  0.54936  0.70831  0.38251  1.0000
  C   C1671     1.0  0.74149  0.72944  0.98915  1.0000
  C   C1672     1.0  0.92377  0.72692  0.39527  1.0000
  C   C1673     1.0  0.83780  0.78814  0.01375  1.0000
  C   C1674     1.0  0.57732  0.68319  0.44093  1.0000
  H   H1330     1.0  0.72912  0.88982  0.37106  1.0000
  H   H1331     1.0  0.78462  0.90323  0.35539  1.0000
  H   H1332     1.0  0.81793  0.92087  0.38785  1.0000
  C   C1675     1.0  0.74561  0.94776  0.46047  1.0000
  H   H1333     1.0  0.88530  0.96918  0.98768  1.0000
  H   H1334     1.0  0.84034  0.73528  0.37111  1.0000
  C   C1676     1.0  0.56896  0.71666  0.39056  1.0000
  H   H1335     1.0  0.82685  0.73208  0.45557  1.0000
  C   C1677     1.0  0.88195  0.72636  0.05432  1.0000
  C   C1678     1.0  0.74876  0.91064  0.43033  1.0000
  H   H1336     1.0  0.79577  0.95458  0.01358  1.0000
  C   C1679     1.0  0.51916  0.67693  0.04174  1.0000
  C   C1680     1.0  0.83369  0.77091  0.01541  1.0000
  C   C1681     1.0  0.60545  0.72635  0.42809  1.0000
  H   H1337     1.0  0.69183  0.65993  0.02722  1.0000
  H   H1338     1.0  0.79585  0.92531  0.43563  1.0000
  H   H1339     1.0  0.67874  0.92658  0.42624  1.0000
  C   C1682     1.0  0.84085  0.67300  0.97727  1.0000
  C   C1683     1.0  0.48974  0.71281  0.41742  1.0000
  C   C1684     1.0  0.68857  0.79924  0.97812  1.0000
  C   C1685     1.0  0.86095  0.74407  0.40984  1.0000
  H   H1340     1.0  0.54026  0.94455  0.43558  1.0000
  C   C1686     1.0  0.55005  0.95682  0.43074  1.0000
  C   C1687     1.0  0.86182  0.77432  0.45314  1.0000
  C   C1688     1.0  0.92164  0.73553  0.42040  1.0000
  H   H1341     1.0  0.74242  0.79485  0.99073  1.0000
  H   H1342     1.0  0.92863  0.67267  0.99477  1.0000
  H   H1343     1.0  0.82627  0.81055  0.99089  1.0000
  C   C1689     1.0  0.81592  0.76267  0.99439  1.0000
  H   H1344     1.0  0.73983  0.94659  0.43858  1.0000
  H   H1345     1.0  0.85082  0.79459  0.03042  1.0000
  C   C1690     1.0  0.60977  0.91578  0.46801  1.0000
  H   H1346     1.0  0.94815  0.72030  0.38957  1.0000
  H   H1347     1.0  0.67754  0.65575  0.15151  1.0000
  C   C1691     1.0  0.58112  0.65438  0.42573  1.0000
  C   C1692     1.0  0.87588  0.67860  0.97914  1.0000
  C   C1693     1.0  0.87157  0.78442  0.43055  1.0000
  H   H1348     1.0  0.85924  0.80661  0.40670  1.0000
  H   H1349     1.0  0.95240  0.65779  0.12595  1.0000
  H   H1350     1.0  0.58102  0.91633  0.46873  1.0000
  H   H1351     1.0  0.62510  0.69224  0.46007  1.0000
  C   C1694     1.0  0.93225  0.65725  0.20507  1.0000
  C   C1695     1.0  0.62539  0.65220  0.16895  1.0000
  C   C1696     1.0  0.97479  0.65652  0.16701  1.0000
  H   H1352     1.0  0.49441  0.74993  0.45621  1.0000
  H   H1353     1.0  0.89051  0.65910  0.14241  1.0000
  C   C1697     1.0  0.54223  0.97014  0.44848  1.0000
  H   H1354     1.0  0.50251  0.68652  0.03217  1.0000
  H   H1355     1.0  0.69875  0.65213  0.41252  1.0000
  H   H1356     1.0  0.64475  0.74431  0.41682  1.0000
  C   C1698     1.0  0.72916  0.74590  0.98384  1.0000
  H   H1357     1.0  0.61461  0.72554  0.44933  1.0000
  C   C1699     1.0  0.94685  0.65707  0.14806  1.0000
  H   H1358     1.0  0.75131  0.70550  0.97052  1.0000
  H   H1359     1.0  0.80519  0.65291  0.98604  1.0000
  C   C1700     1.0  0.80281  0.77158  0.97148  1.0000
  H   H1360     1.0  0.49896  0.74921  0.97251  1.0000
  H   H1361     1.0  0.96826  0.92575  0.97389  1.0000
  C   C1701     1.0  0.83166  0.77874  0.46891  1.0000
  Fe  Fe113     1.0  0.65325  0.91285  0.57226  1.0000
  S   S225      1.0  0.69933  0.93017  0.57318  1.0000
  S   S226      1.0  0.65477  0.88588  0.55750  1.0000
  Fe  Fe114     1.0  0.60147  0.93885  0.59591  1.0000
  S   S227      1.0  0.64476  0.95769  0.59970  1.0000
  S   S228      1.0  0.54560  0.94722  0.60935  1.0000
  Fe  Fe115     1.0  0.66082  0.94983  0.55634  1.0000
  S   S229      1.0  0.67188  0.97176  0.52634  1.0000
  Fe  Fe116     1.0  0.67948  0.93665  0.61645  1.0000
  S   S230      1.0  0.72328  0.93680  0.65001  1.0000
  S   S231      1.0  0.61598  0.93195  0.55219  1.0000
  S   S232      1.0  0.63489  0.91843  0.61579  1.0000
  Fe  Fe117     1.0  0.83557  0.77526  0.57496  1.0000
  S   S233      1.0  0.79113  0.75662  0.57458  1.0000
  S   S234      1.0  0.89317  0.76515  0.58018  1.0000
  Fe  Fe118     1.0  0.78214  0.80485  0.56970  1.0000
  S   S235      1.0  0.73487  0.78829  0.56803  1.0000
  S   S236      1.0  0.78321  0.83332  0.57151  1.0000
  Fe  Fe119     1.0  0.76158  0.77433  0.60354  1.0000
  S   S237      1.0  0.72713  0.76667  0.64100  1.0000
  Fe  Fe120     1.0  0.76779  0.77176  0.53911  1.0000
  S   S238      1.0  0.75008  0.76287  0.49543  1.0000
  S   S239      1.0  0.80721  0.79163  0.60633  1.0000
  S   S240      1.0  0.81375  0.78966  0.53853  1.0000
  Fe  Fe121     1.0  0.77928  0.93396  0.81601  1.0000
  S   S241      1.0  0.82148  0.91385  0.81167  1.0000
  S   S242      1.0  0.73514  0.93871  0.78343  1.0000
  Fe  Fe122     1.0  0.80411  0.94243  0.87687  1.0000
  S   S243      1.0  0.84657  0.92217  0.87558  1.0000
  S   S244      1.0  0.80411  0.96266  0.91121  1.0000
  Fe  Fe123     1.0  0.85830  0.93154  0.83266  1.0000
  S   S245      1.0  0.91350  0.93737  0.81616  1.0000
  Fe  Fe124     1.0  0.80565  0.90619  0.85496  1.0000
  S   S246      1.0  0.80460  0.87817  0.86432  1.0000
  S   S247      1.0  0.81729  0.95234  0.83402  1.0000
  S   S248      1.0  0.76188  0.92571  0.85909  1.0000
  Fe  Fe125     1.0  0.68925  0.77831  0.80914  1.0000
  S   S249      1.0  0.64331  0.79661  0.81312  1.0000
  S   S250      1.0  0.72964  0.77827  0.77287  1.0000
  Fe  Fe126     1.0  0.68166  0.76647  0.87126  1.0000
  S   S251      1.0  0.63535  0.78444  0.87876  1.0000
  S   S252      1.0  0.70400  0.74543  0.90044  1.0000
  Fe  Fe127     1.0  0.61440  0.77672  0.83710  1.0000
  S   S253      1.0  0.55714  0.76808  0.82857  1.0000
  Fe  Fe128     1.0  0.66745  0.80318  0.85412  1.0000
  S   S254      1.0  0.67027  0.83094  0.86395  1.0000
  S   S255      1.0  0.65930  0.75773  0.83042  1.0000
  S   S256      1.0  0.71461  0.78590  0.84941  1.0000
  C   C1702     1.0  0.71775  0.73972  0.93505  1.0000
  H   H1362     1.0  0.87381  0.78735  0.70788  1.0000
  H   H1363     1.0  0.75663  0.98299  0.85511  1.0000
  C   C1703     1.0  0.73009  0.72327  0.94036  1.0000
  H   H1364     1.0  0.73534  0.85675  0.50473  1.0000
  C   C1704     1.0  0.57839  0.93957  0.94447  1.0000
  H   H1365     1.0  0.73054  0.71436  0.92362  1.0000
  C   C1705     1.0  0.68778  0.95910  0.83542  1.0000
  C   C1706     1.0  0.51229  0.77573  0.83319  1.0000
  H   H1366     1.0  0.96227  0.75074  0.59162  1.0000
  H   H1367     1.0  0.52530  0.79947  0.85033  1.0000
  H   H1368     1.0  0.89677  0.79792  0.60581  1.0000
  C   C1707     1.0  0.80336  0.96906  0.94696  1.0000
  C   C1708     1.0  0.54827  0.79203  0.72103  1.0000
  C   C1709     1.0  0.55850  0.69964  0.50035  1.0000
  H   H1369     1.0  0.91804  0.81236  0.77738  1.0000
  C   C1710     1.0  0.68150  0.91777  0.91191  1.0000
  C   C1711     1.0  0.76707  0.86523  0.86121  1.0000
  C   C1712     1.0  0.77215  0.84780  0.86132  1.0000
  C   C1713     1.0  0.74290  0.83709  0.86104  1.0000
  C   C1714     1.0  0.70814  0.84374  0.86120  1.0000
  C   C1715     1.0  0.70313  0.86116  0.86051  1.0000
  C   C1716     1.0  0.73239  0.87185  0.86015  1.0000
  H   H1370     1.0  0.79887  0.84254  0.86216  1.0000
  H   H1371     1.0  0.74724  0.82373  0.86147  1.0000
  H   H1372     1.0  0.67638  0.86643  0.86047  1.0000
  H   H1373     1.0  0.72807  0.88522  0.85976  1.0000
  H   H1374     1.0  0.74591  0.92584  0.52134  1.0000
  C   C1717     1.0  0.95236  0.93417  0.83620  1.0000
  C   C1718     1.0  0.95157  0.92570  0.86164  1.0000
  H   H1375     1.0  0.90863  0.90091  0.82893  1.0000
  H   H1376     1.0  0.92655  0.92159  0.87010  1.0000
  C   C1719     1.0  0.80807  0.72162  0.90500  1.0000
  C   C1720     1.0  0.55001  0.74620  0.95287  1.0000
  H   H1377     1.0  0.72334  0.72937  0.50969  1.0000
  C   C1721     1.0  0.72810  0.77064  0.67753  1.0000
  C   C1722     1.0  0.75863  0.77598  0.69103  1.0000
  C   C1723     1.0  0.75836  0.77837  0.72007  1.0000
  C   C1724     1.0  0.72757  0.77559  0.73612  1.0000
  C   C1725     1.0  0.69685  0.77052  0.72261  1.0000
  C   C1726     1.0  0.69728  0.76790  0.69360  1.0000
  H   H1378     1.0  0.78259  0.77810  0.67921  1.0000
  H   H1379     1.0  0.78230  0.78228  0.73022  1.0000
  H   H1380     1.0  0.67299  0.76823  0.73458  1.0000
  H   H1381     1.0  0.67356  0.76362  0.68355  1.0000
  C   C1727     1.0  0.94313  0.78718  0.55830  1.0000
  C   C1728     1.0  0.93697  0.77221  0.57240  1.0000
  C   C1729     1.0  0.73341  0.74589  0.47538  1.0000
  H   H1382     1.0  0.92079  0.79491  0.55165  1.0000
  C   C1730     1.0  0.84645  0.72542  0.94457  1.0000
  H   H1383     1.0  0.96175  0.81101  0.61460  1.0000
  C   C1731     1.0  0.50340  0.92586  0.57932  1.0000
  H   H1384     1.0  0.97007  0.81521  0.69799  1.0000
  H   H1385     1.0  0.52787  0.92014  0.57176  1.0000
  H   H1386     1.0  0.54224  0.87683  0.74712  1.0000
  C   C1732     1.0  0.69027  0.98282  0.94446  1.0000
  H   H1387     1.0  0.61502  0.90430  0.50851  1.0000
  C   C1733     1.0  0.92679  0.97357  0.87987  1.0000
  C   C1734     1.0  0.72556  0.93650  0.68723  1.0000
  C   C1735     1.0  0.75914  0.93500  0.70007  1.0000
  C   C1736     1.0  0.76261  0.93527  0.72932  1.0000
  C   C1737     1.0  0.73249  0.93727  0.74633  1.0000
  C   C1738     1.0  0.69887  0.93849  0.73353  1.0000
  C   C1739     1.0  0.69537  0.93801  0.70428  1.0000
  H   H1388     1.0  0.78278  0.93387  0.68728  1.0000
  H   H1389     1.0  0.78867  0.93432  0.73866  1.0000
  H   H1390     1.0  0.67531  0.94004  0.74632  1.0000
  H   H1391     1.0  0.66935  0.93919  0.69492  1.0000
  C   C1740     1.0  0.68976  0.87117  0.56413  1.0000
  C   C1741     1.0  0.68505  0.85437  0.55727  1.0000
  C   C1742     1.0  0.71284  0.84244  0.56067  1.0000
  C   C1743     1.0  0.74585  0.84726  0.57065  1.0000
  C   C1744     1.0  0.75025  0.86397  0.57832  1.0000
  C   C1745     1.0  0.72234  0.87587  0.57517  1.0000
  H   H1392     1.0  0.65991  0.85060  0.54880  1.0000
  H   H1393     1.0  0.70908  0.82965  0.55461  1.0000
  H   H1394     1.0  0.77569  0.86786  0.58603  1.0000
  H   H1395     1.0  0.72634  0.88875  0.58058  1.0000
  C   C1746     1.0  0.60833  0.96169  0.90630  1.0000
  H   H1396     1.0  0.88623  0.87259  0.83753  1.0000
  C   C1747     1.0  0.77343  0.82880  0.64803  1.0000
  C   C1748     1.0  0.90553  0.74675  0.64547  1.0000
  C   C1749     1.0  0.90233  0.77637  0.65584  1.0000
  C   C1750     1.0  0.92246  0.76177  0.65040  1.0000
  P   P58       1.0  0.92358  0.79596  0.66246  1.0000
  C   C1751     1.0  0.89911  0.81207  0.64379  1.0000
  C   C1752     1.0  0.92250  0.80049  0.69918  1.0000
  C   C1753     1.0  0.54481  0.98235  0.55551  1.0000
  P   P59       1.0  0.88638  0.69975  0.96984  1.0000
  C   C1754     1.0  0.80442  0.82127  0.93799  1.0000
  C   C1755     1.0  0.86029  0.83665  0.61438  1.0000
  C   C1756     1.0  0.86944  0.83930  0.64204  1.0000
  C   C1757     1.0  0.88885  0.82709  0.65673  1.0000
  C   C1758     1.0  0.75118  0.89694  0.48564  1.0000
  C   C1759     1.0  0.74423  0.93390  0.47836  1.0000
  C   C1760     1.0  0.97783  0.68749  0.92725  1.0000
  H   H1397     1.0  0.55883  0.72745  0.55342  1.0000
  H   H1398     1.0  0.68032  0.90382  0.50767  1.0000
  H   H1399     1.0  0.52811  0.94992  0.53600  1.0000
  H   H1400     1.0  0.92116  0.73568  0.64043  1.0000
  H   H1401     1.0  0.95110  0.76192  0.64897  1.0000
  H   H1402     1.0  0.52771  0.94931  0.93032  1.0000
  C   C1761     1.0  0.97832  0.79210  0.55252  1.0000
  C   C1762     1.0  0.71676  0.96961  0.83305  1.0000
  H   H1403     1.0  0.84473  0.84597  0.60308  1.0000
  C   C1763     1.0  0.88619  0.91395  0.95408  1.0000
  C   C1764     1.0  0.97699  0.77878  0.48491  1.0000
  C   C1765     1.0  0.94717  0.81470  0.73890  1.0000
  C   C1766     1.0  0.69907  0.90222  0.91132  1.0000
  C   C1767     1.0  0.74189  0.71817  0.96707  1.0000
  H   H1404     1.0  0.86108  0.85075  0.65212  1.0000
  H   H1405     1.0  0.75837  0.95372  0.53956  1.0000
  H   H1406     1.0  0.92465  0.84784  0.82674  1.0000
  C   C1768     1.0  0.82240  0.73194  0.92506  1.0000
  H   H1407     1.0  0.84882  0.78671  0.66002  1.0000
  H   H1408     1.0  0.65406  0.94548  0.86302  1.0000
  C   C1769     1.0  0.93901  0.96493  0.90335  1.0000
  H   H1409     1.0  0.94049  0.73402  0.48721  1.0000
  H   H1410     1.0  0.75805  0.80365  0.65651  1.0000
  H   H1411     1.0  0.70801  0.88007  0.47833  1.0000
  C   C1770     1.0  0.55451  0.73394  0.51008  1.0000
  H   H1412     1.0  0.55429  0.96905  0.89667  1.0000
  H   H1413     1.0  0.65526  0.95143  0.47744  1.0000
  H   H1414     1.0  0.89041  0.75232  0.52122  1.0000
  C   C1771     1.0  0.95921  0.89225  0.81266  1.0000
  C   C1772     1.0  0.98419  0.71551  0.94446  1.0000
  C   C1773     1.0  0.55766  0.72280  0.53238  1.0000
  C   C1774     1.0  0.86842  0.74617  0.64580  1.0000
  C   C1775     1.0  0.50113  0.92487  0.48401  1.0000
  H   H1415     1.0  0.78642  0.82562  0.62862  1.0000
  C   C1776     1.0  0.73513  0.93029  0.92880  1.0000
  C   C1777     1.0  0.85596  0.70840  0.94435  1.0000
  H   H1416     1.0  0.92832  0.67581  0.93648  1.0000
  C   C1778     1.0  0.55595  0.71078  0.47783  1.0000
  H   H1417     1.0  0.75576  0.77088  0.91636  1.0000
  C   C1779     1.0  0.69213  0.96540  0.94733  1.0000
  H   H1418     1.0  0.80814  0.71798  0.54011  1.0000
  C   C1780     1.0  0.98073  0.87838  0.80561  1.0000
  C   C1781     1.0  0.95008  0.71500  0.95615  1.0000
  C   C1782     1.0  0.72094  0.97059  0.88312  1.0000
  C   C1783     1.0  0.89464  0.79489  0.71616  1.0000
  C   C1784     1.0  0.87046  0.82179  0.60139  1.0000
  H   H1419     1.0  0.50795  0.91306  0.47440  1.0000
  C   C1785     1.0  0.75420  0.84958  0.68164  1.0000
  C   C1786     1.0  0.77146  0.84537  0.65663  1.0000
  P   P60       1.0  0.74834  0.87110  0.69152  1.0000
  C   C1787     1.0  0.70426  0.87706  0.67990  1.0000
  C   C1788     1.0  0.75548  0.87422  0.72819  1.0000
  C   C1789     1.0  0.74718  0.88978  0.74000  1.0000
  C   C1790     1.0  0.75290  0.89245  0.76825  1.0000
  C   C1791     1.0  0.76794  0.87983  0.78478  1.0000
  C   C1792     1.0  0.77766  0.86454  0.77300  1.0000
  C   C1793     1.0  0.77173  0.86175  0.74477  1.0000
  C   C1794     1.0  0.67749  0.88219  0.69863  1.0000
  C   C1795     1.0  0.64331  0.88627  0.68907  1.0000
  C   C1796     1.0  0.63557  0.88515  0.66083  1.0000
  C   C1797     1.0  0.66197  0.87992  0.64209  1.0000
  C   C1798     1.0  0.69616  0.87586  0.65156  1.0000
  C   C1799     1.0  0.78139  0.88352  0.67442  1.0000
  C   C1800     1.0  0.77160  0.89755  0.65843  1.0000
  C   C1801     1.0  0.79766  0.90718  0.64574  1.0000
  C   C1802     1.0  0.83364  0.90303  0.64920  1.0000
  C   C1803     1.0  0.84364  0.88920  0.66539  1.0000
  C   C1804     1.0  0.81760  0.87950  0.67804  1.0000
  H   H1420     1.0  0.72293  0.84011  0.71587  1.0000
  H   H1421     1.0  0.78260  0.85485  0.64329  1.0000
  H   H1422     1.0  0.73635  0.89991  0.72739  1.0000
  H   H1423     1.0  0.74604  0.90440  0.77733  1.0000
  H   H1424     1.0  0.77253  0.88203  0.80663  1.0000
  H   H1425     1.0  0.78980  0.85489  0.78587  1.0000
  H   H1426     1.0  0.78020  0.84993  0.73609  1.0000
  H   H1427     1.0  0.68272  0.88310  0.72057  1.0000
  H   H1428     1.0  0.62287  0.89051  0.70350  1.0000
  H   H1429     1.0  0.60927  0.88860  0.65334  1.0000
  H   H1430     1.0  0.65605  0.87923  0.62011  1.0000
  H   H1431     1.0  0.71632  0.87188  0.63671  1.0000
  H   H1432     1.0  0.74398  0.90140  0.65611  1.0000
  H   H1433     1.0  0.78972  0.91814  0.63378  1.0000
  H   H1434     1.0  0.85368  0.91074  0.63971  1.0000
  H   H1435     1.0  0.87154  0.88618  0.66845  1.0000
  H   H1436     1.0  0.82557  0.86896  0.69090  1.0000
  C   C1805     1.0  0.94125  0.92706  0.96654  1.0000
  H   H1437     1.0  0.65442  0.91881  0.90450  1.0000
  H   H1438     1.0  0.85062  0.68524  0.92209  1.0000
  C   C1806     1.0  0.74889  0.93614  0.50696  1.0000
  C   C1807     1.0  0.55655  0.75905  0.90763  1.0000
  C   C1808     1.0  0.57092  0.74966  0.92951  1.0000
  H   H1439     1.0  0.75349  0.83375  0.93013  1.0000
  H   H1440     1.0  0.80742  0.69685  0.88830  1.0000
  C   C1809     1.0  0.94867  0.81051  0.71076  1.0000
  C   C1810     1.0  0.74934  0.86833  0.50239  1.0000
  H   H1441     1.0  0.56195  0.69702  0.54483  1.0000
  H   H1442     1.0  0.57250  0.76157  0.88929  1.0000
  H   H1443     1.0  0.59826  0.74505  0.92824  1.0000
  H   H1444     1.0  0.85728  0.73587  0.55527  1.0000
  C   C1811     1.0  0.98043  0.80373  0.62690  1.0000
  H   H1445     1.0  0.51080  0.77239  0.89203  1.0000
  C   C1812     1.0  0.80077  0.88491  0.51170  1.0000
  H   H1446     1.0  0.58304  0.85265  0.75420  1.0000
  H   H1447     1.0  0.85734  0.73366  0.95987  1.0000
  H   H1448     1.0  0.76802  0.75554  0.87321  1.0000
  H   H1449     1.0  0.96858  0.90476  0.80989  1.0000
  C   C1813     1.0  0.86243  0.74289  0.48548  1.0000
  C   C1814     1.0  0.52147  0.76510  0.90915  1.0000
  C   C1815     1.0  0.55637  0.94985  0.92812  1.0000
  H   H1450     1.0  0.88006  0.95562  0.94233  1.0000
  H   H1451     1.0  0.79892  0.94460  0.96504  1.0000
  C   C1816     1.0  0.82639  0.78682  0.86434  1.0000
  C   C1817     1.0  0.80796  0.77233  0.85878  1.0000
  C   C1818     1.0  0.78317  0.76648  0.87795  1.0000
  C   C1819     1.0  0.77634  0.77522  0.90249  1.0000
  C   C1820     1.0  0.79508  0.78966  0.90853  1.0000
  C   C1821     1.0  0.82018  0.79541  0.88914  1.0000
  H   H1452     1.0  0.73497  0.97472  0.90124  1.0000
  C   C1822     1.0  0.73947  0.80157  0.94702  1.0000
  C   C1823     1.0  0.78190  0.83505  0.93213  1.0000
  H   H1453     1.0  0.70772  0.76363  0.95369  1.0000
  H   H1454     1.0  0.55986  0.68632  0.49699  1.0000
  C   C1824     1.0  0.71627  0.80591  0.92529  1.0000
  C   C1825     1.0  0.67964  0.80729  0.93018  1.0000
  C   C1826     1.0  0.92994  0.70056  0.95403  1.0000
  H   H1455     1.0  0.50647  0.82547  0.92643  1.0000
  H   H1456     1.0  0.98274  0.84927  0.70988  1.0000
  H   H1457     1.0  0.82315  0.77103  0.48609  1.0000
  H   H1458     1.0  0.56680  0.93110  0.95941  1.0000
  H   H1459     1.0  0.84500  0.93046  0.93815  1.0000
  H   H1460     1.0  0.93961  0.72579  0.96714  1.0000
  C   C1827     1.0  0.75607  0.95192  0.51737  1.0000
  C   C1828     1.0  0.82360  0.72470  0.52486  1.0000
  H   H1461     1.0  0.84509  0.79154  0.84920  1.0000
  H   H1462     1.0  0.81208  0.76585  0.83930  1.0000
  H   H1463     1.0  0.52372  0.88518  0.69956  1.0000
  H   H1464     1.0  0.83454  0.80668  0.89260  1.0000
  H   H1465     1.0  0.96748  0.82238  0.74773  1.0000
  C   C1829     1.0  0.66574  0.80381  0.95646  1.0000
  H   H1466     1.0  0.72643  0.80856  0.90467  1.0000
  H   H1467     1.0  0.66199  0.81114  0.91353  1.0000
  C   C1830     1.0  0.96825  0.86232  0.81113  1.0000
  C   C1831     1.0  0.85117  0.73480  0.53340  1.0000
  C   C1832     1.0  0.84267  0.69826  0.92333  1.0000
  C   C1833     1.0  0.93424  0.86021  0.82250  1.0000
  H   H1468     1.0  0.48981  0.75341  0.81677  1.0000
  H   H1469     1.0  0.54498  0.92362  0.51278  1.0000
  H   H1470     1.0  0.78862  0.72660  0.89041  1.0000
  C   C1834     1.0  0.96658  0.76234  0.58070  1.0000
  H   H1471     1.0  0.85530  0.73464  0.64123  1.0000
  C   C1835     1.0  0.92093  0.91276  0.96420  1.0000
  P   P61       1.0  0.95358  0.96117  0.95966  1.0000
  C   C1836     1.0  0.87169  0.92946  0.94643  1.0000
  C   C1837     1.0  0.73779  0.83704  0.69724  1.0000
  C   C1838     1.0  0.98405  0.74965  0.49723  1.0000
  C   C1839     1.0  0.91262  0.87411  0.82869  1.0000
  P   P62       1.0  0.67824  0.95229  0.91925  1.0000
  C   C1840     1.0  0.66982  0.97597  0.48981  1.0000
  C   C1841     1.0  0.72209  0.73095  0.48740  1.0000
  C   C1842     1.0  0.88962  0.80950  0.61605  1.0000
  H   H1472     1.0  0.61949  0.97058  0.89185  1.0000
  C   C1843     1.0  0.71728  0.75099  0.95715  1.0000
  C   C1844     1.0  0.67553  0.95420  0.86162  1.0000
  C   C1845     1.0  0.73374  0.88169  0.48778  1.0000
  C   C1846     1.0  0.89313  0.79917  0.74424  1.0000
  H   H1473     1.0  0.55329  0.74724  0.51386  1.0000
  C   C1847     1.0  0.75762  0.81636  0.66390  1.0000
  C   C1848     1.0  0.94143  0.97305  0.92899  1.0000
  C   C1849     1.0  0.75821  0.96558  0.49936  1.0000
  C   C1850     1.0  0.66604  0.90856  0.48970  1.0000
  H   H1474     1.0  0.79466  0.85957  0.52585  1.0000
  C   C1851     1.0  0.66482  0.80263  0.65247  1.0000
  C   C1852     1.0  0.67731  0.81496  0.63453  1.0000
  C   C1853     1.0  0.67315  0.83173  0.64162  1.0000
  C   C1854     1.0  0.65595  0.83614  0.66643  1.0000
  C   C1855     1.0  0.64203  0.82386  0.68401  1.0000
  C   C1856     1.0  0.64783  0.80701  0.67737  1.0000
  P   P63       1.0  0.61944  0.82986  0.71577  1.0000
  C   C1857     1.0  0.59111  0.81370  0.72891  1.0000
  C   C1858     1.0  0.65356  0.83397  0.74090  1.0000
  C   C1859     1.0  0.67369  0.82064  0.75220  1.0000
  C   C1860     1.0  0.69883  0.82354  0.77279  1.0000
  C   C1861     1.0  0.70425  0.83971  0.78211  1.0000
  C   C1862     1.0  0.68532  0.85310  0.77023  1.0000
  C   C1863     1.0  0.66025  0.85027  0.74954  1.0000
  C   C1864     1.0  0.58740  0.81116  0.75766  1.0000
  C   C1865     1.0  0.56491  0.79891  0.76791  1.0000
  C   C1866     1.0  0.54558  0.78925  0.74964  1.0000
  C   C1867     1.0  0.62886  0.90903  0.49037  1.0000
  C   C1868     1.0  0.57068  0.80433  0.71068  1.0000
  C   C1869     1.0  0.58939  0.84749  0.71035  1.0000
  C   C1870     1.0  0.57754  0.85187  0.68360  1.0000
  H   H1475     1.0  0.54540  0.86892  0.65905  1.0000
  C   C1871     1.0  0.87017  0.74405  0.51389  1.0000
  H   H1476     1.0  0.86268  0.81961  0.58009  1.0000
  C   C1872     1.0  0.57569  0.85631  0.73327  1.0000
  H   H1477     1.0  0.66862  0.78962  0.64712  1.0000
  H   H1478     1.0  0.69087  0.81148  0.61541  1.0000
  H   H1479     1.0  0.68352  0.84126  0.62792  1.0000
  H   H1480     1.0  0.65328  0.84914  0.67189  1.0000
  H   H1481     1.0  0.63942  0.79721  0.69132  1.0000
  H   H1482     1.0  0.66946  0.80795  0.74562  1.0000
  H   H1483     1.0  0.71357  0.81316  0.78202  1.0000
  H   H1484     1.0  0.72295  0.84184  0.79868  1.0000
  H   H1485     1.0  0.68983  0.86565  0.77738  1.0000
  H   H1486     1.0  0.64594  0.86081  0.74067  1.0000
  H   H1487     1.0  0.60170  0.81864  0.77228  1.0000
  H   H1488     1.0  0.56248  0.79683  0.79011  1.0000
  C   C1873     1.0  0.52200  0.93078  0.50556  1.0000
  H   H1489     1.0  0.98262  0.80365  0.54147  1.0000
  H   H1490     1.0  0.57206  0.80651  0.68849  1.0000
  H   H1491     1.0  0.58594  0.84476  0.66563  1.0000
  H   H1492     1.0  0.81445  0.74496  0.92560  1.0000
  H   H1493     1.0  0.63728  0.80469  0.95999  1.0000
  C   C1874     1.0  0.57135  0.96095  0.90913  1.0000
  C   C1875     1.0  0.61539  0.94028  0.94167  1.0000
  C   C1876     1.0  0.95057  0.74654  0.48615  1.0000
  C   C1877     1.0  0.54181  0.87461  0.70260  1.0000
  C   C1878     1.0  0.89181  0.94378  0.94885  1.0000
  C   C1879     1.0  0.55414  0.86548  0.67976  1.0000
  C   C1880     1.0  0.51253  0.94569  0.51865  1.0000
  H   H1494     1.0  0.59518  0.98211  0.49679  1.0000
  H   H1495     1.0  0.78799  0.76499  0.95612  1.0000
  C   C1881     1.0  0.55344  0.72796  0.48291  1.0000
  C   C1882     1.0  0.81528  0.72369  0.49671  1.0000
  C   C1883     1.0  0.73336  0.97533  0.85690  1.0000
  C   C1884     1.0  0.51466  0.75208  0.95430  1.0000
  H   H1496     1.0  0.94573  0.95178  0.90165  1.0000
  H   H1497     1.0  0.98358  0.90557  0.75883  1.0000
  H   H1498     1.0  0.79976  0.90973  0.49486  1.0000
  H   H1499     1.0  0.98489  0.85146  0.80673  1.0000
  C   C1885     1.0  0.69932  0.93189  0.92105  1.0000
  C   C1886     1.0  0.86501  0.77562  0.65623  1.0000
  H   H1500     1.0  0.79328  0.71621  0.49012  1.0000
  C   C1887     1.0  0.50469  0.93919  0.59780  1.0000
  C   C1888     1.0  0.73465  0.90072  0.91939  1.0000
  H   H1501     1.0  0.89538  0.82937  0.67817  1.0000
  H   H1502     1.0  0.76215  0.97791  0.50764  1.0000
  H   H1503     1.0  0.78053  0.91372  0.93365  1.0000
  C   C1889     1.0  0.91937  0.80905  0.75562  1.0000
  H   H1504     1.0  0.72691  0.81083  0.70055  1.0000
  C   C1890     1.0  0.69177  0.96009  0.88571  1.0000
  H   H1505     1.0  0.81937  0.76014  0.65079  1.0000
  H   H1506     1.0  0.52841  0.77967  0.75781  1.0000
  C   C1891     1.0  0.73991  0.82046  0.68859  1.0000
  C   C1892     1.0  0.84818  0.76058  0.65118  1.0000
  H   H1507     1.0  0.56128  0.73891  0.96980  1.0000
  H   H1508     1.0  0.68544  0.89139  0.90387  1.0000
  C   C1893     1.0  0.55951  0.70565  0.52752  1.0000
  H   H1509     1.0  0.67579  0.95425  0.81681  1.0000
  H   H1510     1.0  0.59609  0.97163  0.54497  1.0000
  H   H1511     1.0  0.78798  0.79618  0.47448  1.0000
  C   C1894     1.0  0.94373  0.68693  0.93899  1.0000
  H   H1512     1.0  0.74858  0.88879  0.91798  1.0000
  P   P64       1.0  0.78694  0.80047  0.94094  1.0000
  C   C1895     1.0  0.92519  0.89010  0.82383  1.0000
  H   H1513     1.0  0.82673  0.88610  0.52098  1.0000
  C   C1896     1.0  0.78522  0.89831  0.49713  1.0000
  C   C1897     1.0  0.80041  0.95776  0.96911  1.0000
  H   H1514     1.0  0.72702  0.97284  0.81266  1.0000
  H   H1515     1.0  0.74978  0.94119  0.93438  1.0000
  H   H1516     1.0  0.92421  0.96707  0.86031  1.0000
  H   H1517     1.0  0.87139  0.79485  0.75713  1.0000
  H   H1518     1.0  0.54534  0.97760  0.57666  1.0000
  C   C1898     1.0  0.78281  0.86994  0.51436  1.0000
  C   C1899     1.0  0.75265  0.91475  0.92822  1.0000
  H   H1519     1.0  0.53292  0.78465  0.70690  1.0000
  C   C1900     1.0  0.81846  0.70482  0.90397  1.0000
  C   C1901     1.0  0.63056  0.95113  0.92220  1.0000
  C   C1902     1.0  0.96951  0.79509  0.65082  1.0000
  C   C1903     1.0  0.55236  0.86994  0.72936  1.0000
  H   H1520     1.0  0.88378  0.84118  0.93635  1.0000
  C   C1904     1.0  0.50404  0.79138  0.84448  1.0000
  H   H1521     1.0  0.87060  0.90287  0.95192  1.0000
  H   H1522     1.0  0.98264  0.91536  0.89537  1.0000
  H   H1523     1.0  0.50789  0.79557  0.93820  1.0000
  C   C1905     1.0  0.98516  0.93941  0.82554  1.0000
  C   C1906     1.0  0.57336  0.97894  0.53763  1.0000
  H   H1524     1.0  0.63217  0.93241  0.95473  1.0000
  H   H1525     1.0  0.97409  0.86498  0.75324  1.0000
  H   H1526     1.0  0.70019  0.70666  0.48035  1.0000
  C   C1907     1.0  0.92685  0.94272  0.95887  1.0000
  H   H1527     1.0  0.98597  0.94600  0.80591  1.0000
  H   H1528     1.0  0.85928  0.81317  0.94365  1.0000
  C   C1908     1.0  0.98342  0.92215  0.87590  1.0000
  C   C1909     1.0  0.50011  0.76157  0.93236  1.0000
  C   C1910     1.0  0.83454  0.73275  0.47708  1.0000
  C   C1911     1.0  0.83269  0.85301  0.92928  1.0000
  C   C1912     1.0  0.84130  0.82364  0.93970  1.0000
  C   C1913     1.0  0.93006  0.75954  0.47415  1.0000
  H   H1529     1.0  0.77862  0.86126  0.92250  1.0000
  C   C1914     1.0  0.94340  0.77575  0.47392  1.0000
  H   H1530     1.0  0.98861  0.67683  0.91610  1.0000
  C   C1915     1.0  0.66138  0.96384  0.47033  1.0000
  C   C1916     1.0  0.79605  0.85081  0.92786  1.0000
  C   C1917     1.0  0.85532  0.83946  0.93541  1.0000
  H   H1531     1.0  0.84347  0.86520  0.92511  1.0000
  H   H1532     1.0  0.98432  0.92362  0.54332  1.0000
  H   H1533     1.0  0.93233  0.90072  0.96992  1.0000
  C   C1918     1.0  0.70890  0.71804  0.47062  1.0000
  C   C1919     1.0  0.75298  0.96350  0.47092  1.0000
  H   H1534     1.0  0.98710  0.79131  0.48508  1.0000
  H   H1535     1.0  0.98705  0.77883  0.68433  1.0000
  H   H1536     1.0  0.81962  0.68112  0.96969  1.0000
  C   C1920     1.0  0.80725  0.78887  0.96933  1.0000
