data_image0
_chemical_formula_structural       CSFeSFeSFeCSFeS2FeS2FeSFeS3CH5FeSFeS3HC2H2C6H4C6H4C2H2C7H4C2H5C2H3CH2FeH2C6PC18H20CH2C6H2C3HCH2C2H4CH3CHC2HCH2CH2C5SCHCSH2SHFeH3PCHC2SH2C7PC18H10CH2C2H2C3FeHC3HPCH5CH2C4H2C3HCHCHCH2C2HC2H2C2H2CHCHC5HPHSCHCHC11HC8HCHCHCH3CHCHC3HCHCHC2HSCSHSFeSFeS2FeS2FeS2FeSFeS3HC2H2CFeSFeS4HCHC7H4C6H4C2FeH2C6H4C3H2PC7H2CH4C6PC9HC8H12C2H2CH3CHC7HCHCHC5HCHC2HCHC2HC2H3C4H2CH3C5H3C4H3C3H3CSC2FeHCHC7PC18H20C6PCH4PC7HCH2C2H3C3HCH4CHCPHCHC6PCHCH2C5HC5HCH5C2HCH4CH7C3HSH2CHCH3C2H3CH2FeC2H2CH5C2HPCH3SFeCH2C4SC2H2CSCSFeHFeS2FeS2FeS2FeSFeS3FeS2FeS2CH6C2HC7H4C6H4C3H2C2H2C3H2C6H4C2H3C7PCH3PHC8HCFeHC2HC3H3CH2CHC2H3C3H2CH2CHCHCH2CHC3SH4C2H3CH3CHC2HPC10SH4CH3CHC2H6CFeH2C2PHCH3C11HCH6C7HSC2HCH7CH2C7PC4HC13H11C3HC2H2C2HPCH2CHC10H2CH2C4H3CH3FeSCSFeSFeS2FeS2FeS2FeSFeS3FeS2FeS2H3C2H5C7H4C6H4C3H4CH4CHC6H4CHCH3C6PC18H17CFeHC2H2CH2C2HCHCHCHC2H2C2HCHC2HCH3CH2C4PC7HC6HC3FeHC2H6C2H2CHCH3SC3HC2HCH3CH3C4HC4FeCH2CSC4HC2H2C2HC3PC2HCHCHC12H4CHCHSH8SCH2C2HC3HPC3PHC5H3C4HC2H2C5H2CH2C2H3CSC2SHC2SHCHFeCH2CH2C2FeHSC3H3SHCH3CHCFeSHFeS2C2H2CHFeS2FeSCS2CHCHCH2C2HC3HC5H3C2H5SHC2SC4PH3Fe2CHC3HPC11HC2HC2H10C3H2CHFeC3H2CH3CH2CHCHC3HC2HC2SHCHCH2C3FeC2SPCHC3HCHCH4C2S2CHFeH2CSH2CH2CSHC3SC2HCHC2Fe2SCFeSC2H2CHSFeSHFeSCHC4H4C2H2SCHC4SCH2CFeCHC2H3C4H3C2HC2SHCH6CHS3HC2H2C2H2C5H2CH3C2HC2HC2HCH2C3HC3HPCH2C5H4C3SCHPSC3HCHCH2CHCH4C4SH2C2HCHCH2CHC3FeC2SHCH3C3H2CHC2HFeSHFeSFeC2SHCFeS2FeS3HC5SC2HCHCH2CH2C2HSCHCHC3HCHC2HC2H3SCHCPC4H5C4H2CHC3H3C2H4C2HCH5C3HC8HPH2C2H3CHCHC7PC8SHC8H12C2H8C4HCHCH4CSHFeSHSCH3C4HCFeH2CHCH5C2SC2HC2SFeHCSHCHSCH2SFeSCFeSH5CFeSCFeS2C2H2C6HC6H2CSC2HCHC6HC3HCH4C2H2C5HCHC8H3CH4C4H5CHCH4SCPH4CH2C2H2CH4CH4FeCHC6PC8HCHC2HC2HCHCHC2HCSC3HC4SCHCH4SC3SH3CHCH3C5HCPH2CFeHC2H2SHCH2C3HCH2FeH2C3PCHCHPHSHCHC3SC3HCH2CFeHSFeS2FeCFeHS2CHC2H2C2FeSFeS3FeS2FeS2FeSFeS3HCFeH2C6H4C6H5C2HCSC5H2C8H4CSH3CHCSC10PC17H2CH3C2H9CHC2PC3SCHC11H2CHCH10C6PC10H10CH3CHCHCHC2HC6PHCHC2H2CHC4H6C5H3C6PC3HC8HCH8CH6CHC7H7CHCHC4PHC3H3SCHC2H6CH2CH5CPC3HC2H3C3HC2H3CH2SC3HCSCHCH5CHCHCHSFeHSFeS2FeH3S2HC5HSFeSFeS3FeS2FeS2FeSFeS3C4HC6H4C6H4C2HC2H3C2H3CSC6H4C3H2CHCH2C9PC18H20C2HC3HC7PC13H4C2H7C2H5CH2SCHCFeC2H3CHC2SC2HCPHPCH2CHC3H3C6PC3HC14H6CH5CFeCH5C5HSC3HC5H3PH4C3H2CH3C2H2CHPHCH2CHSHCHC2H2C4HC4HC3H2CHC2HC2HCHC2HCHCH5C2H3C4HCFeC2FeH3SCS2C2SH4CH3CH2CHCHC3FeS2FeCSFeCFeHS2CH4CHFeSFeS3FeS2FeS2FeSFeS3PCH3C6H4C6H4SC2HCSH3CHC3HC6H4C2HC5H2C6PC17H18C9PC18H6CH13C6PC8SCHC7H11C3H3C2H2SCHCH4CHC2HCHSHC6SH2SC2H4C2H6C3HSH2C2H2CHC2HCH2CH2PCH2C2H2C2PC4HC5HCHC2HC2HC2HCHC3HCHCH2C2HPHCH2CHC3H2CH2C2PC4H6C2HCH4CHC6HCHC2H2CHCHC5HC6H2CH5CHFe2S2FeHSFeCFeCS2H2CH2C2FeSFeS3FeS2FeS2FeSFeS3HCH3C6H4C6H5SC2H2CH2CHC2H2C6H5C2H3C3H2CHCH3CHC2H2C3H2C3H2C2HC5H2C2HC2HC7PC8H2C3FeC2HCH11C2H4FeHFeC6PC10HSC6H3CH6CH4SHCHCHC4HC3PC5HC9SC2H3CH2CHCH7C2H2C6PC18H19C6PH2FeHC2SH3C4H3SHSC
_chemical_formula_sum              "C1920 S256 Fe128 H1536 P64"
_cell_length_a       55.8446
_cell_length_b       55.7867
_cell_length_c       49.2035
_cell_angle_alpha    90.6261
_cell_angle_beta     90.303
_cell_angle_gamma    88.6641

_space_group_name_H-M_alt    "P 1"
_space_group_IT_number       1

loop_
  _space_group_symop_operation_xyz
  'x, y, z'

loop_
  _atom_site_type_symbol
  _atom_site_label
  _atom_site_symmetry_multiplicity
  _atom_site_fract_x
  _atom_site_fract_y
  _atom_site_fract_z
  _atom_site_occupancy
  C   C1        1.0  0.14749  0.46948  0.11765  1.0000
  S   S1        1.0  0.27494  0.10704  0.29032  1.0000
  Fe  Fe1       1.0  0.30102  0.13229  0.22316  1.0000
  S   S2        1.0  0.26553  0.11389  0.22462  1.0000
  Fe  Fe2       1.0  0.25850  0.13522  0.26299  1.0000
  S   S3        1.0  0.22265  0.15133  0.27707  1.0000
  Fe  Fe3       1.0  0.28438  0.08651  0.25164  1.0000
  C   C2        1.0  0.98600  0.30404  0.25158  1.0000
  S   S4        1.0  0.29220  0.15577  0.25952  1.0000
  Fe  Fe4       1.0  0.12762  0.31114  0.27960  1.0000
  S   S5        1.0  0.11862  0.27215  0.28221  1.0000
  S   S6        1.0  0.14291  0.33544  0.31295  1.0000
  Fe  Fe5       1.0  0.11564  0.31296  0.21800  1.0000
  S   S7        1.0  0.10558  0.27416  0.21676  1.0000
  S   S8        1.0  0.11382  0.33781  0.18125  1.0000
  Fe  Fe6       1.0  0.08596  0.28207  0.25622  1.0000
  S   S9        1.0  0.04913  0.26627  0.26663  1.0000
  Fe  Fe7       1.0  0.13865  0.26778  0.24264  1.0000
  S   S10       1.0  0.17053  0.24434  0.22886  1.0000
  S   S11       1.0  0.09412  0.32139  0.25596  1.0000
  S   S12       1.0  0.14938  0.30631  0.24162  1.0000
  C   C3        1.0  0.20633  0.17984  0.36316  1.0000
  H   H1        1.0  0.27730  0.17093  0.15179  1.0000
  H   H2        1.0  0.22122  0.15877  0.20883  1.0000
  H   H3        1.0  0.14902  0.12247  0.21567  1.0000
  H   H4        1.0  0.25874  0.17867  0.19666  1.0000
  H   H5        1.0  0.12012  0.15290  0.23352  1.0000
  Fe  Fe8       1.0  0.18268  0.35099  0.03521  1.0000
  S   S13       1.0  0.17693  0.32819  0.07305  1.0000
  Fe  Fe9       1.0  0.18628  0.33782  0.46913  1.0000
  S   S14       1.0  0.17526  0.31234  0.43475  1.0000
  S   S15       1.0  0.21836  0.36832  0.02906  1.0000
  S   S16       1.0  0.21812  0.36188  0.47090  1.0000
  H   H6        1.0  0.12371  0.19568  0.22096  1.0000
  C   C4        1.0  0.08763  0.31690  0.35222  1.0000
  C   C5        1.0  0.18776  0.23970  0.12541  1.0000
  H   H7        1.0  0.18533  0.17802  0.17271  1.0000
  H   H8        1.0  0.12820  0.38051  0.44978  1.0000
  C   C6        1.0  0.15332  0.32815  0.34610  1.0000
  C   C7        1.0  0.15147  0.30513  0.35679  1.0000
  C   C8        1.0  0.15805  0.30081  0.38404  1.0000
  C   C9        1.0  0.16690  0.31920  0.40079  1.0000
  C   C10       1.0  0.16917  0.34209  0.38998  1.0000
  C   C11       1.0  0.16248  0.34647  0.36277  1.0000
  H   H9        1.0  0.14444  0.29083  0.34428  1.0000
  H   H10       1.0  0.15593  0.28320  0.39241  1.0000
  H   H11       1.0  0.17604  0.35641  0.40256  1.0000
  H   H12       1.0  0.16414  0.36429  0.35464  1.0000
  C   C12       1.0  0.13191  0.33508  0.15156  1.0000
  C   C13       1.0  0.12981  0.35270  0.13133  1.0000
  C   C14       1.0  0.14355  0.35107  0.10731  1.0000
  C   C15       1.0  0.15947  0.33165  0.10314  1.0000
  C   C16       1.0  0.16156  0.31403  0.12337  1.0000
  C   C17       1.0  0.14797  0.31575  0.14746  1.0000
  H   H13       1.0  0.11745  0.36770  0.13426  1.0000
  H   H14       1.0  0.14168  0.36472  0.09196  1.0000
  H   H15       1.0  0.17372  0.29887  0.12039  1.0000
  H   H16       1.0  0.14980  0.30205  0.16277  1.0000
  C   C18       1.0  0.01819  0.27580  0.26446  1.0000
  C   C19       1.0  0.01073  0.29785  0.25351  1.0000
  H   H17       1.0  0.26355  0.23889  0.14689  1.0000
  H   H18       1.0  0.02401  0.31008  0.24644  1.0000
  C   C20       1.0  0.04523  0.36854  0.44939  1.0000
  C   C21       1.0  0.20908  0.17826  0.26512  1.0000
  C   C22       1.0  0.18532  0.18394  0.27251  1.0000
  C   C23       1.0  0.17346  0.20456  0.26232  1.0000
  C   C24       1.0  0.18531  0.21971  0.24468  1.0000
  C   C25       1.0  0.20921  0.21422  0.23766  1.0000
  C   C26       1.0  0.22115  0.19377  0.24810  1.0000
  H   H19       1.0  0.17582  0.17201  0.28561  1.0000
  H   H20       1.0  0.15487  0.20818  0.26718  1.0000
  H   H21       1.0  0.21848  0.22577  0.22391  1.0000
  H   H22       1.0  0.23957  0.18979  0.24264  1.0000
  C   C27       1.0  0.28573  0.01651  0.24245  1.0000
  C   C28       1.0  0.99096  0.25226  0.09574  1.0000
  H   H23       1.0  0.15606  0.20784  0.19034  1.0000
  H   H24       1.0  0.21459  0.27484  0.43422  1.0000
  H   H25       1.0  0.16032  0.40683  0.43532  1.0000
  H   H26       1.0  0.29283  0.29892  0.09621  1.0000
  H   H27       1.0  0.17363  0.22864  0.11743  1.0000
  C   C29       1.0  0.11068  0.31906  0.44321  1.0000
  C   C30       1.0  0.27830  0.20707  0.41926  1.0000
  H   H28       1.0  0.21670  0.19368  0.47465  1.0000
  H   H29       1.0  0.00956  0.31583  0.11921  1.0000
  H   H30       1.0  0.26282  0.22550  0.06405  1.0000
  C   C31       1.0  0.25621  0.16971  0.45260  1.0000
  H   H31       1.0  0.24634  0.07910  0.14639  1.0000
  H   H32       1.0  0.22217  0.12143  0.13166  1.0000
  Fe  Fe10      1.0  0.19757  0.39667  0.00506  1.0000
  H   H33       1.0  0.26375  0.41111  0.00128  1.0000
  H   H34       1.0  0.00582  0.24325  0.28231  1.0000
  C   C32       1.0  0.20272  0.31291  0.28087  1.0000
  C   C33       1.0  0.21823  0.31099  0.25876  1.0000
  C   C34       1.0  0.23751  0.29458  0.25938  1.0000
  C   C35       1.0  0.24135  0.28015  0.28216  1.0000
  C   C36       1.0  0.22581  0.28196  0.30453  1.0000
  C   C37       1.0  0.20629  0.29831  0.30347  1.0000
  P   P1        1.0  0.22979  0.26280  0.33379  1.0000
  C   C38       1.0  0.23944  0.28042  0.36302  1.0000
  C   C39       1.0  0.20072  0.25077  0.34078  1.0000
  C   C40       1.0  0.19296  0.24816  0.36763  1.0000
  C   C41       1.0  0.17040  0.23896  0.37294  1.0000
  C   C42       1.0  0.15519  0.23284  0.35145  1.0000
  C   C43       1.0  0.16272  0.23555  0.32467  1.0000
  C   C44       1.0  0.18546  0.24427  0.31928  1.0000
  C   C45       1.0  0.25937  0.27322  0.37888  1.0000
  C   C46       1.0  0.26588  0.28641  0.40203  1.0000
  C   C47       1.0  0.25235  0.30664  0.40993  1.0000
  C   C48       1.0  0.23232  0.31371  0.39468  1.0000
  C   C49       1.0  0.22588  0.30072  0.37139  1.0000
  C   C50       1.0  0.25099  0.23852  0.32610  1.0000
  C   C51       1.0  0.27558  0.24308  0.32401  1.0000
  C   C52       1.0  0.29212  0.22429  0.31929  1.0000
  C   C53       1.0  0.28428  0.20083  0.31619  1.0000
  C   C54       1.0  0.25983  0.19623  0.31728  1.0000
  C   C55       1.0  0.24322  0.21495  0.32208  1.0000
  H   H35       1.0  0.18755  0.32542  0.28033  1.0000
  H   H36       1.0  0.21503  0.32198  0.24102  1.0000
  H   H37       1.0  0.24930  0.29283  0.24204  1.0000
  H   H38       1.0  0.25612  0.26732  0.28178  1.0000
  H   H39       1.0  0.19328  0.29943  0.31966  1.0000
  H   H40       1.0  0.20413  0.25352  0.38450  1.0000
  H   H41       1.0  0.16445  0.23725  0.39374  1.0000
  H   H42       1.0  0.13745  0.22631  0.35550  1.0000
  H   H43       1.0  0.15080  0.23119  0.30801  1.0000
  H   H44       1.0  0.19097  0.24622  0.29832  1.0000
  H   H45       1.0  0.26955  0.25702  0.37427  1.0000
  H   H46       1.0  0.28118  0.28071  0.41421  1.0000
  H   H47       1.0  0.25715  0.31663  0.42813  1.0000
  H   H48       1.0  0.22147  0.32909  0.40118  1.0000
  H   H49       1.0  0.20990  0.30634  0.36052  1.0000
  H   H50       1.0  0.28196  0.26120  0.32622  1.0000
  H   H51       1.0  0.27164  0.32297  0.02669  1.0000
  H   H52       1.0  0.29711  0.18621  0.31259  1.0000
  H   H53       1.0  0.25374  0.17809  0.31411  1.0000
  H   H54       1.0  0.22441  0.21085  0.32237  1.0000
  C   C56       1.0  0.21656  0.15895  0.35185  1.0000
  H   H55       1.0  0.26269  0.15017  0.39623  1.0000
  H   H56       1.0  0.30415  0.11637  0.09864  1.0000
  C   C57       1.0  0.10686  0.33600  0.49677  1.0000
  C   C58       1.0  0.00845  0.31196  0.17690  1.0000
  C   C59       1.0  0.03218  0.30405  0.17228  1.0000
  C   C60       1.0  0.05136  0.31728  0.18216  1.0000
  C   C61       1.0  0.04709  0.33859  0.19663  1.0000
  C   C62       1.0  0.16725  0.46185  0.07466  1.0000
  H   H57       1.0  0.04643  0.34993  0.45547  1.0000
  H   H58       1.0  0.30271  0.12374  0.35538  1.0000
  C   C63       1.0  0.02357  0.34673  0.20117  1.0000
  C   C64       1.0  0.28081  0.15196  0.48832  1.0000
  C   C65       1.0  0.01050  0.28964  0.08692  1.0000
  H   H59       1.0  0.30187  0.12758  0.40581  1.0000
  C   C66       1.0  0.27963  0.07195  0.12565  1.0000
  H   H60       1.0  0.04003  0.43516  0.42782  1.0000
  H   H61       1.0  0.24069  0.24287  0.41430  1.0000
  C   C67       1.0  0.19503  0.45675  0.49373  1.0000
  C   C68       1.0  0.00435  0.29801  0.11291  1.0000
  H   H62       1.0  0.19067  0.22573  0.49428  1.0000
  H   H63       1.0  0.03597  0.28754  0.16119  1.0000
  H   H64       1.0  0.06963  0.31100  0.17870  1.0000
  H   H65       1.0  0.06211  0.34870  0.20431  1.0000
  C   C69       1.0  0.30992  0.11630  0.00010  1.0000
  H   H66       1.0  0.13760  0.46297  0.13486  1.0000
  H   H67       1.0  0.30801  0.01586  0.16079  1.0000
  H   H68       1.0  0.23077  0.11953  0.47760  1.0000
  C   C70       1.0  0.31352  0.12996  0.11003  1.0000
  H   H69       1.0  0.02053  0.30090  0.07348  1.0000
  C   C71       1.0  0.09698  0.34943  0.47546  1.0000
  C   C72       1.0  0.23082  0.21601  0.44302  1.0000
  H   H70       1.0  0.18962  0.26643  0.47405  1.0000
  C   C73       1.0  0.15440  0.45357  0.09681  1.0000
  H   H71       1.0  0.29963  0.12477  0.01634  1.0000
  H   H72       1.0  0.01739  0.26365  0.19593  1.0000
  C   C74       1.0  0.09867  0.34099  0.44847  1.0000
  H   H73       1.0  0.22542  0.29366  0.05413  1.0000
  H   H74       1.0  0.29019  0.18329  0.46655  1.0000
  C   C75       1.0  0.14814  0.40846  0.39372  1.0000
  C   C76       1.0  0.13091  0.40104  0.37492  1.0000
  C   C77       1.0  0.11261  0.38601  0.38300  1.0000
  C   C78       1.0  0.11164  0.37798  0.40994  1.0000
  C   C79       1.0  0.12875  0.38594  0.42880  1.0000
  S   S17       1.0  0.20842  0.43629  0.01237  1.0000
  C   C80       1.0  0.99950  0.25699  0.19798  1.0000
  H   H75       1.0  0.20890  0.15109  0.33362  1.0000
  C   C81       1.0  0.29058  0.20059  0.39531  1.0000
  S   S18       1.0  0.16164  0.38028  0.01355  1.0000
  H   H76       1.0  0.13194  0.40662  0.35393  1.0000
  H   H77       1.0  0.09943  0.38053  0.36810  1.0000
  S   S19       1.0  0.18616  0.42680  0.48527  1.0000
  H   H78       1.0  0.11360  0.33416  0.37753  1.0000
  Fe  Fe11      1.0  0.19470  0.38721  0.49642  1.0000
  H   H79       1.0  0.22342  0.15116  0.44361  1.0000
  H   H80       1.0  0.14239  0.06386  0.13399  1.0000
  H   H81       1.0  0.23392  0.48020  0.02026  1.0000
  P   P2        1.0  0.25047  0.19318  0.42828  1.0000
  C   C82       1.0  0.29834  0.29416  0.02640  1.0000
  H   H82       1.0  0.25070  0.00162  0.23722  1.0000
  C   C83       1.0  0.20737  0.24506  0.10910  1.0000
  C   C84       1.0  0.25422  0.29973  0.10093  1.0000
  S   S20       1.0  0.16233  0.36365  0.49222  1.0000
  H   H83       1.0  0.19070  0.18811  0.35364  1.0000
  H   H84       1.0  0.25932  0.14193  0.11962  1.0000
  C   C85       1.0  0.27684  0.30997  0.09854  1.0000
  C   C86       1.0  0.16035  0.11550  0.10503  1.0000
  C   C87       1.0  0.14957  0.09327  0.10743  1.0000
  C   C88       1.0  0.15118  0.08086  0.13192  1.0000
  C   C89       1.0  0.16383  0.09052  0.15392  1.0000
  C   C90       1.0  0.17549  0.11241  0.15131  1.0000
  C   C91       1.0  0.17302  0.12518  0.12698  1.0000
  P   P3        1.0  0.19060  0.12580  0.17999  1.0000
  C   C92       1.0  0.16970  0.14801  0.19341  1.0000
  C   C93       1.0  0.19921  0.10395  0.20522  1.0000
  C   C94       1.0  0.19818  0.10993  0.23297  1.0000
  C   C95       1.0  0.20640  0.09362  0.25247  1.0000
  C   C96       1.0  0.21583  0.07127  0.24443  1.0000
  C   C97       1.0  0.21710  0.06522  0.21684  1.0000
  C   C98       1.0  0.20905  0.08157  0.19726  1.0000
  C   C99       1.0  0.17125  0.17216  0.18595  1.0000
  C   C100      1.0  0.15455  0.18915  0.19569  1.0000
  C   C101      1.0  0.13624  0.18226  0.21296  1.0000
  C   C102      1.0  0.13433  0.15821  0.22012  1.0000
  C   C103      1.0  0.15084  0.14107  0.21014  1.0000
  C   C104      1.0  0.21821  0.13965  0.17060  1.0000
  C   C105      1.0  0.22907  0.15542  0.18904  1.0000
  C   C106      1.0  0.25026  0.16671  0.18221  1.0000
  C   C107      1.0  0.26083  0.16219  0.15698  1.0000
  C   C108      1.0  0.25059  0.14587  0.13883  1.0000
  C   C109      1.0  0.22946  0.13441  0.14570  1.0000
  H   H85       1.0  0.15868  0.12537  0.08624  1.0000
  H   H86       1.0  0.13965  0.08582  0.09046  1.0000
  H   H87       1.0  0.16419  0.08099  0.17298  1.0000
  H   H88       1.0  0.18076  0.14272  0.12507  1.0000
  H   H89       1.0  0.19175  0.12746  0.23963  1.0000
  H   H90       1.0  0.20622  0.09869  0.27380  1.0000
  H   H91       1.0  0.22288  0.05890  0.25951  1.0000
  H   H92       1.0  0.22517  0.04813  0.21078  1.0000
  H   H93       1.0  0.21086  0.07690  0.17598  1.0000
  H   H94       1.0  0.30646  0.06195  0.19771  1.0000
  C   C110      1.0  0.20103  0.25228  0.46549  1.0000
  H   H95       1.0  0.02757  0.31808  0.36286  1.0000
  H   H96       1.0  0.14990  0.43479  0.09784  1.0000
  C   C111      1.0  0.24508  0.26052  0.06283  1.0000
  C   C112      1.0  0.25863  0.34982  0.10103  1.0000
  H   H97       1.0  0.20833  0.20639  0.39478  1.0000
  H   H98       1.0  0.29729  0.26028  0.07238  1.0000
  C   C113      1.0  0.21650  0.19026  0.38636  1.0000
  C   C114      1.0  0.27680  0.16985  0.46904  1.0000
  C   C115      1.0  0.21648  0.21125  0.46561  1.0000
  Fe  Fe12      1.0  0.30929  0.12676  0.28480  1.0000
  H   H99       1.0  0.25993  0.21828  0.01477  1.0000
  C   C116      1.0  0.29776  0.25119  0.09172  1.0000
  C   C117      1.0  0.24690  0.15858  0.38720  1.0000
  C   C118      1.0  0.27978  0.30844  0.01497  1.0000
  H   H100      1.0  0.11321  0.31253  0.42263  1.0000
  P   P4        1.0  0.08750  0.35929  0.42081  1.0000
  C   C119      1.0  0.23950  0.15156  0.45600  1.0000
  H   H101      1.0  0.13059  0.28926  0.46021  1.0000
  H   H102      1.0  0.26359  0.07157  0.19217  1.0000
  H   H103      1.0  0.20267  0.27075  0.18265  1.0000
  H   H104      1.0  0.22015  0.35119  0.10509  1.0000
  H   H105      1.0  0.10084  0.31001  0.33788  1.0000
  C   C120      1.0  0.23685  0.14834  0.36384  1.0000
  H   H106      1.0  0.29954  0.33658  0.48808  1.0000
  H   H107      1.0  0.24495  0.13230  0.35480  1.0000
  C   C121      1.0  0.23698  0.17981  0.39844  1.0000
  C   C122      1.0  0.28807  0.22450  0.43666  1.0000
  C   C123      1.0  0.09482  0.33067  0.37461  1.0000
  C   C124      1.0  0.31120  0.13117  0.13860  1.0000
  H   H108      1.0  0.16955  0.47286  0.46593  1.0000
  H   H109      1.0  0.98577  0.23454  0.08909  1.0000
  C   C125      1.0  0.27490  0.07053  0.17440  1.0000
  C   C126      1.0  0.22547  0.25980  0.11924  1.0000
  C   C127      1.0  0.23611  0.33977  0.10368  1.0000
  H   H110      1.0  0.02031  0.36318  0.21258  1.0000
  C   C128      1.0  0.20413  0.26354  0.16213  1.0000
  H   H111      1.0  0.23733  0.28065  0.15397  1.0000
  C   C129      1.0  0.07787  0.34031  0.39287  1.0000
  H   H112      1.0  0.01164  0.22822  0.22376  1.0000
  C   C130      1.0  0.06066  0.40215  0.42466  1.0000
  H   H113      1.0  0.21619  0.30753  0.10507  1.0000
  H   H114      1.0  0.30453  0.29803  0.04678  1.0000
  C   C131      1.0  0.27900  0.33492  0.09858  1.0000
  C   C132      1.0  0.23392  0.31488  0.10372  1.0000
  H   H115      1.0  0.17089  0.24507  0.16453  1.0000
  C   C133      1.0  0.18615  0.24895  0.15189  1.0000
  C   C134      1.0  0.04146  0.41655  0.43384  1.0000
  H   H116      1.0  0.03993  0.34269  0.40216  1.0000
  H   H117      1.0  0.27921  0.22967  0.45545  1.0000
  C   C135      1.0  0.22368  0.26904  0.14586  1.0000
  C   C136      1.0  0.31025  0.01076  0.24422  1.0000
  H   H118      1.0  0.16247  0.41991  0.38742  1.0000
  H   H119      1.0  0.07383  0.40992  0.41152  1.0000
  C   C137      1.0  0.04636  0.32159  0.36625  1.0000
  H   H120      1.0  0.29646  0.34269  0.09628  1.0000
  C   C138      1.0  0.31231  0.21117  0.38909  1.0000
  H   H121      1.0  0.28388  0.18714  0.38147  1.0000
  C   C139      1.0  0.14698  0.40102  0.42068  1.0000
  C   C140      1.0  0.06341  0.31236  0.34801  1.0000
  C   C141      1.0  0.26514  0.07441  0.14859  1.0000
  C   C142      1.0  0.99632  0.23664  0.21376  1.0000
  C   C143      1.0  0.20166  0.22938  0.47681  1.0000
  H   H122      1.0  0.01261  0.37554  0.47160  1.0000
  P   P5        1.0  0.25054  0.26764  0.09828  1.0000
  H   H123      1.0  0.20821  0.23796  0.08857  1.0000
  S   S21       1.0  0.27401  0.04679  0.24464  1.0000
  C   C144      1.0  0.24353  0.13368  0.47534  1.0000
  H   H124      1.0  0.05787  0.30180  0.33047  1.0000
  C   C145      1.0  0.23277  0.27694  0.04604  1.0000
  H   H125      1.0  0.26023  0.36912  0.10060  1.0000
  C   C146      1.0  0.00429  0.33353  0.19130  1.0000
  C   C147      1.0  0.23070  0.27238  0.01814  1.0000
  C   C148      1.0  0.30976  0.23505  0.43031  1.0000
  C   C149      1.0  0.12059  0.30571  0.46458  1.0000
  C   C150      1.0  0.24072  0.25140  0.00685  1.0000
  C   C151      1.0  0.05351  0.33555  0.38858  1.0000
  C   C152      1.0  0.25376  0.23876  0.05153  1.0000
  C   C153      1.0  0.22993  0.23899  0.43178  1.0000
  C   C154      1.0  0.02416  0.40699  0.45077  1.0000
  C   C155      1.0  0.27771  0.25187  0.10888  1.0000
  C   C156      1.0  0.29928  0.06498  0.17747  1.0000
  H   H126      1.0  0.08876  0.36675  0.48005  1.0000
  C   C157      1.0  0.26421  0.13387  0.49147  1.0000
  C   C158      1.0  0.27876  0.23918  0.13343  1.0000
  C   C159      1.0  0.00043  0.26031  0.27371  1.0000
  C   C160      1.0  0.06273  0.37805  0.43246  1.0000
  C   C161      1.0  0.02603  0.38298  0.45851  1.0000
  C   C162      1.0  0.25193  0.23443  0.02357  1.0000
  C   C163      1.0  0.26969  0.99757  0.23864  1.0000
  C   C164      1.0  0.21515  0.25705  0.44297  1.0000
  H   H127      1.0  0.27207  0.07472  0.10559  1.0000
  C   C165      1.0  0.29962  0.22632  0.14069  1.0000
  H   H128      1.0  0.22229  0.28572  0.00513  1.0000
  C   C166      1.0  0.18342  0.47630  0.48080  1.0000
  H   H129      1.0  0.30038  0.21638  0.15952  1.0000
  C   C167      1.0  0.11875  0.31420  0.49133  1.0000
  H   H130      1.0  0.98630  0.34014  0.19523  1.0000
  H   H131      1.0  0.31458  0.06308  0.11044  1.0000
  H   H132      1.0  0.29995  0.11877  0.14907  1.0000
  C   C168      1.0  0.99166  0.28342  0.13063  1.0000
  H   H133      1.0  0.17276  0.44954  0.05849  1.0000
  C   C169      1.0  0.30924  0.27519  0.01154  1.0000
  H   H134      1.0  0.17291  0.26716  0.00486  1.0000
  C   C170      1.0  0.30389  0.06565  0.12854  1.0000
  C   C171      1.0  0.31400  0.06258  0.15455  1.0000
  C   C172      1.0  0.20007  0.46707  0.00587  1.0000
  H   H135      1.0  0.00932  0.41819  0.45789  1.0000
  C   C173      1.0  0.30022  0.31764  0.49262  1.0000
  H   H136      1.0  0.31107  0.22786  0.31795  1.0000
  C   C174      1.0  0.00385  0.26677  0.07834  1.0000
  H   H137      1.0  0.00870  0.26028  0.05823  1.0000
  C   C175      1.0  0.31587  0.13441  0.36586  1.0000
  C   C176      1.0  0.31543  0.13664  0.39445  1.0000
  H   H138      1.0  0.31737  0.24818  0.44404  1.0000
  S   S22       1.0  0.18630  0.32826  0.99731  1.0000
  C   C177      1.0  0.14658  0.40093  0.55765  1.0000
  S   S23       1.0  0.26898  0.11951  0.78240  1.0000
  H   H139      1.0  0.30242  0.22380  0.56110  1.0000
  S   S24       1.0  0.26835  0.10831  0.71620  1.0000
  Fe  Fe13      1.0  0.26309  0.14065  0.74393  1.0000
  S   S25       1.0  0.24102  0.17506  0.73597  1.0000
  Fe  Fe14      1.0  0.27753  0.08755  0.75445  1.0000
  S   S26       1.0  0.26338  0.04985  0.76368  1.0000
  S   S27       1.0  0.30175  0.15071  0.74095  1.0000
  Fe  Fe15      1.0  0.12764  0.30328  0.78583  1.0000
  S   S28       1.0  0.10115  0.27356  0.78830  1.0000
  S   S29       1.0  0.15078  0.32031  0.81927  1.0000
  Fe  Fe16      1.0  0.12912  0.30039  0.72240  1.0000
  S   S30       1.0  0.10285  0.27027  0.72086  1.0000
  S   S31       1.0  0.15236  0.31740  0.68968  1.0000
  Fe  Fe17      1.0  0.08170  0.29118  0.75287  1.0000
  S   S32       1.0  0.04120  0.30112  0.74754  1.0000
  Fe  Fe18      1.0  0.12395  0.25490  0.75625  1.0000
  S   S33       1.0  0.13561  0.21575  0.76167  1.0000
  S   S34       1.0  0.10727  0.32236  0.75240  1.0000
  S   S35       1.0  0.15113  0.28344  0.75577  1.0000
  H   H140      1.0  0.30570  0.25070  0.51312  1.0000
  C   C178      1.0  0.17765  0.47408  0.99530  1.0000
  C   C179      1.0  0.23503  0.17465  0.87001  1.0000
  H   H141      1.0  0.28620  0.99137  0.67779  1.0000
  H   H142      1.0  0.23297  0.05475  0.71604  1.0000
  C   C180      1.0  0.22819  0.15807  0.85010  1.0000
  Fe  Fe19      1.0  0.17498  0.34548  0.53060  1.0000
  S   S36       1.0  0.14722  0.33181  0.56067  1.0000
  Fe  Fe20      1.0  0.16826  0.35846  0.97492  1.0000
  S   S37       1.0  0.13818  0.34941  0.94469  1.0000
  S   S38       1.0  0.20573  0.37045  0.53649  1.0000
  S   S39       1.0  0.20292  0.37620  0.96537  1.0000
  S   S40       1.0  0.19651  0.31795  0.50719  1.0000
  H   H143      1.0  0.13614  0.39763  0.91733  1.0000
  C   C181      1.0  0.28789  0.21859  0.79776  1.0000
  H   H144      1.0  0.13464  0.28833  0.99405  1.0000
  C   C182      1.0  0.25384  0.26938  0.80161  1.0000
  C   C183      1.0  0.14690  0.32708  0.85445  1.0000
  C   C184      1.0  0.16639  0.33613  0.86928  1.0000
  C   C185      1.0  0.16419  0.34236  0.89704  1.0000
  C   C186      1.0  0.14229  0.34010  0.91025  1.0000
  C   C187      1.0  0.12285  0.33076  0.89553  1.0000
  C   C188      1.0  0.12521  0.32394  0.86791  1.0000
  H   H145      1.0  0.18330  0.33850  0.85917  1.0000
  H   H146      1.0  0.17922  0.34961  0.90806  1.0000
  H   H147      1.0  0.10588  0.32884  0.90559  1.0000
  H   H148      1.0  0.11024  0.31654  0.85692  1.0000
  C   C189      1.0  0.15048  0.32082  0.65374  1.0000
  C   C190      1.0  0.13190  0.31134  0.63807  1.0000
  C   C191      1.0  0.13123  0.31488  0.60967  1.0000
  C   C192      1.0  0.14915  0.32776  0.59653  1.0000
  C   C193      1.0  0.16779  0.33712  0.61218  1.0000
  C   C194      1.0  0.16840  0.33365  0.64057  1.0000
  H   H149      1.0  0.11800  0.30144  0.64785  1.0000
  H   H150      1.0  0.11673  0.30756  0.59780  1.0000
  H   H151      1.0  0.18163  0.34714  0.60244  1.0000
  H   H152      1.0  0.18272  0.34117  0.65255  1.0000
  C   C195      1.0  0.01129  0.29200  0.75531  1.0000
  C   C196      1.0  0.00643  0.27023  0.76782  1.0000
  Fe  Fe21      1.0  0.30780  0.12836  0.77801  1.0000
  H   H153      1.0  0.02106  0.25812  0.77308  1.0000
  H   H154      1.0  0.29325  0.17154  0.61527  1.0000
  C   C197      1.0  0.21216  0.18618  0.74556  1.0000
  C   C198      1.0  0.19483  0.17161  0.75681  1.0000
  C   C199      1.0  0.17161  0.18104  0.76212  1.0000
  C   C200      1.0  0.16550  0.20508  0.75633  1.0000
  C   C201      1.0  0.18304  0.21974  0.74565  1.0000
  C   C202      1.0  0.20619  0.21034  0.74035  1.0000
  H   H155      1.0  0.19911  0.15296  0.76080  1.0000
  H   H156      1.0  0.15817  0.16952  0.77031  1.0000
  H   H157      1.0  0.17863  0.23818  0.74086  1.0000
  H   H158      1.0  0.21945  0.22180  0.73175  1.0000
  C   C203      1.0  0.27314  0.02012  0.75386  1.0000
  C   C204      1.0  0.29474  0.01547  0.74026  1.0000
  C   C205      1.0  0.25851  0.00055  0.75964  1.0000
  H   H159      1.0  0.22874  0.33018  0.58401  1.0000
  H   H160      1.0  0.24343  0.30282  0.78282  1.0000
  P   P6        1.0  0.22876  0.43794  0.91403  1.0000
  C   C206      1.0  0.23738  0.28591  0.79056  1.0000
  C   C207      1.0  0.26013  0.44368  0.82795  1.0000
  C   C208      1.0  0.30404  0.26919  0.50693  1.0000
  C   C209      1.0  0.29462  0.24406  0.62715  1.0000
  C   C210      1.0  0.20531  0.25858  0.79870  1.0000
  C   C211      1.0  0.29943  0.22251  0.86953  1.0000
  C   C212      1.0  0.19216  0.48155  0.59108  1.0000
  H   H161      1.0  0.25186  0.20806  0.87833  1.0000
  H   H162      1.0  0.02643  0.29262  0.68838  1.0000
  C   C213      1.0  0.31186  0.03571  0.59235  1.0000
  H   H163      1.0  0.29157  0.14236  0.84485  1.0000
  H   H164      1.0  0.28626  0.15361  0.89356  1.0000
  H   H165      1.0  0.21886  0.14208  0.85575  1.0000
  H   H166      1.0  0.23108  0.17150  0.89117  1.0000
  C   C214      1.0  0.22571  0.32742  0.90811  1.0000
  C   C215      1.0  0.23370  0.32957  0.88144  1.0000
  C   C216      1.0  0.23109  0.31055  0.86304  1.0000
  C   C217      1.0  0.22049  0.28939  0.87134  1.0000
  C   C218      1.0  0.21197  0.28730  0.89799  1.0000
  C   C219      1.0  0.21495  0.30636  0.91644  1.0000
  P   P7        1.0  0.19843  0.25991  0.90872  1.0000
  C   C220      1.0  0.17739  0.26753  0.93559  1.0000
  C   C221      1.0  0.18247  0.24755  0.87975  1.0000
  C   C222      1.0  0.18466  0.22313  0.87257  1.0000
  C   C223      1.0  0.17203  0.21401  0.85024  1.0000
  C   C224      1.0  0.15716  0.22915  0.83487  1.0000
  C   C225      1.0  0.15537  0.25354  0.84136  1.0000
  C   C226      1.0  0.16820  0.26275  0.86341  1.0000
  C   C227      1.0  0.18340  0.26303  0.96290  1.0000
  C   C228      1.0  0.30137  0.27069  0.98495  1.0000
  H   H167      1.0  0.20236  0.44380  0.59190  1.0000
  C   C229      1.0  0.16785  0.27011  0.98383  1.0000
  C   C230      1.0  0.15564  0.27963  0.92979  1.0000
  C   C231      1.0  0.22097  0.23917  0.92193  1.0000
  C   C232      1.0  0.21409  0.21725  0.93299  1.0000
  C   C233      1.0  0.23127  0.20143  0.94404  1.0000
  C   C234      1.0  0.25537  0.20759  0.94468  1.0000
  C   C235      1.0  0.26223  0.22965  0.93459  1.0000
  C   C236      1.0  0.24519  0.24538  0.92311  1.0000
  H   H168      1.0  0.22769  0.34210  0.92248  1.0000
  H   H169      1.0  0.24179  0.34602  0.87505  1.0000
  H   H170      1.0  0.23704  0.31229  0.84228  1.0000
  H   H171      1.0  0.21866  0.27482  0.85685  1.0000
  H   H172      1.0  0.20897  0.30513  0.93729  1.0000
  H   H173      1.0  0.19622  0.21101  0.88375  1.0000
  H   H174      1.0  0.17385  0.19520  0.84466  1.0000
  H   H175      1.0  0.14735  0.22207  0.81761  1.0000
  H   H176      1.0  0.14439  0.26549  0.82898  1.0000
  H   H177      1.0  0.16719  0.28186  0.86738  1.0000
  H   H178      1.0  0.20035  0.25470  0.96828  1.0000
  H   H179      1.0  0.10417  0.46218  0.66732  1.0000
  C   C237      1.0  0.26907  0.38453  0.96962  1.0000
  C   C238      1.0  0.28381  0.28333  0.51476  1.0000
  H   H180      1.0  0.15079  0.28442  0.90928  1.0000
  H   H181      1.0  0.19538  0.21253  0.93329  1.0000
  C   C239      1.0  0.26580  0.05044  0.65789  1.0000
  H   H182      1.0  0.26879  0.19545  0.95332  1.0000
  H   H183      1.0  0.28081  0.23463  0.93613  1.0000
  H   H184      1.0  0.25095  0.26251  0.91575  1.0000
  C   C240      1.0  0.29514  0.27082  0.88460  1.0000
  H   H185      1.0  0.10611  0.34282  0.51749  1.0000
  C   C241      1.0  0.27949  0.00437  0.63702  1.0000
  C   C242      1.0  0.14652  0.42058  0.54032  1.0000
  C   C243      1.0  0.27921  0.98727  0.65776  1.0000
  C   C244      1.0  0.26157  0.40691  0.97985  1.0000
  C   C245      1.0  0.31389  0.25172  0.64328  1.0000
  C   C246      1.0  0.19896  0.42615  0.91409  1.0000
  C   C247      1.0  0.24100  0.43952  0.88028  1.0000
  H   H186      1.0  0.31055  0.07527  0.91011  1.0000
  C   C248      1.0  0.25345  0.39524  0.92524  1.0000
  H   H187      1.0  0.26987  0.27426  0.85215  1.0000
  C   C249      1.0  0.22877  0.46849  0.92658  1.0000
  H   H188      1.0  0.25662  0.06903  0.62064  1.0000
  C   C250      1.0  0.18451  0.42957  0.93710  1.0000
  C   C251      1.0  0.16183  0.41955  0.93813  1.0000
  C   C252      1.0  0.15348  0.40591  0.91623  1.0000
  C   C253      1.0  0.16787  0.40218  0.89334  1.0000
  C   C254      1.0  0.19068  0.41196  0.89239  1.0000
  H   H189      1.0  0.22591  0.18451  0.95241  1.0000
  C   C255      1.0  0.12030  0.47110  0.66125  1.0000
  H   H190      1.0  0.23843  0.19990  0.52234  1.0000
  C   C256      1.0  0.26510  0.37874  0.94229  1.0000
  C   C257      1.0  0.23828  0.05798  0.69525  1.0000
  H   H191      1.0  0.28215  0.19295  0.66122  1.0000
  C   C258      1.0  0.25862  0.04628  0.68465  1.0000
  H   H192      1.0  0.00041  0.35994  0.83463  1.0000
  C   C259      1.0  0.25301  0.19911  0.83534  1.0000
  C   C260      1.0  0.31278  0.23135  0.89141  1.0000
  H   H193      1.0  0.29315  0.28946  0.89086  1.0000
  C   C261      1.0  0.28195  0.26206  0.86250  1.0000
  C   C262      1.0  0.25014  0.47848  0.93609  1.0000
  H   H194      1.0  0.16153  0.39109  0.87669  1.0000
  H   H195      1.0  0.99856  0.34894  0.88883  1.0000
  H   H196      1.0  0.29512  0.30849  0.57294  1.0000
  C   C263      1.0  0.22162  0.24220  0.81031  1.0000
  C   C264      1.0  0.01009  0.31522  0.62681  1.0000
  C   C265      1.0  0.29464  0.21362  0.74915  1.0000
  C   C266      1.0  0.26865  0.99903  0.61193  1.0000
  H   H197      1.0  0.99509  0.32424  0.73902  1.0000
  H   H198      1.0  0.14366  0.38311  0.54950  1.0000
  C   C267      1.0  0.29086  0.20945  0.65622  1.0000
  H   H199      1.0  0.20024  0.29335  0.78077  1.0000
  H   H200      1.0  0.14392  0.41793  0.51864  1.0000
  H   H201      1.0  0.26730  0.01242  0.59620  1.0000
  C   C268      1.0  0.23619  0.45016  0.83277  1.0000
  C   C269      1.0  0.31080  0.29689  0.57177  1.0000
  C   C270      1.0  0.15090  0.40419  0.58541  1.0000
  C   C271      1.0  0.15492  0.42718  0.59590  1.0000
  C   C272      1.0  0.15420  0.44717  0.57869  1.0000
  H   H202      1.0  0.24177  0.00378  0.77015  1.0000
  H   H203      1.0  0.27272  0.27347  0.80183  1.0000
  H   H204      1.0  0.21508  0.22523  0.81723  1.0000
  C   C273      1.0  0.21309  0.28057  0.78928  1.0000
  C   C274      1.0  0.20851  0.46204  0.59142  1.0000
  C   C275      1.0  0.31076  0.25554  0.89885  1.0000
  C   C276      1.0  0.30556  0.12270  0.97313  1.0000
  H   H205      1.0  0.31821  0.10486  0.59495  1.0000
  H   H206      1.0  0.24979  0.18516  0.79420  1.0000
  H   H207      1.0  0.27726  0.37134  0.98303  1.0000
  C   C277      1.0  0.23185  0.07811  0.65244  1.0000
  C   C278      1.0  0.23342  0.16212  0.82282  1.0000
  C   C279      1.0  0.31007  0.14729  0.64393  1.0000
  H   H208      1.0  0.01791  0.32122  0.60804  1.0000
  H   H209      1.0  0.15880  0.42924  0.61736  1.0000
  H   H210      1.0  0.22793  0.14945  0.80727  1.0000
  C   C280      1.0  0.14016  0.28673  0.95078  1.0000
  S   S41       1.0  0.26197  0.32736  0.52621  1.0000
  C   C281      1.0  0.15052  0.44359  0.55069  1.0000
  C   C282      1.0  0.14626  0.28202  0.97777  1.0000
  Fe  Fe22      1.0  0.22671  0.34345  0.51051  1.0000
  H   H211      1.0  0.26084  0.22399  0.76636  1.0000
  C   C283      1.0  0.12872  0.46843  0.63464  1.0000
  H   H212      1.0  0.28245  0.19701  0.52892  1.0000
  C   C284      1.0  0.27466  0.43552  0.84931  1.0000
  C   C285      1.0  0.16583  0.24631  0.57701  1.0000
  C   C286      1.0  0.17382  0.26954  0.57304  1.0000
  C   C287      1.0  0.18853  0.28024  0.59247  1.0000
  C   C288      1.0  0.19520  0.26791  0.61604  1.0000
  C   C289      1.0  0.18731  0.24453  0.62014  1.0000
  C   C290      1.0  0.17252  0.23384  0.60047  1.0000
  P   P8        1.0  0.19455  0.22850  0.65097  1.0000
  C   C291      1.0  0.21380  0.20253  0.64385  1.0000
  C   C292      1.0  0.20883  0.24814  0.67531  1.0000
  C   C293      1.0  0.23356  0.24613  0.68050  1.0000
  C   C294      1.0  0.24431  0.26097  0.69990  1.0000
  C   C295      1.0  0.23055  0.27832  0.71381  1.0000
  C   C296      1.0  0.20607  0.28086  0.70828  1.0000
  C   C297      1.0  0.19523  0.26582  0.68919  1.0000
  C   C298      1.0  0.22365  0.18909  0.66532  1.0000
  C   C299      1.0  0.23832  0.16893  0.66012  1.0000
  C   C300      1.0  0.24386  0.16235  0.63339  1.0000
  C   C301      1.0  0.23481  0.17600  0.61186  1.0000
  C   C302      1.0  0.21976  0.19594  0.61702  1.0000
  C   C303      1.0  0.16626  0.22009  0.66556  1.0000
  C   C304      1.0  0.14566  0.23462  0.66129  1.0000
  C   C305      1.0  0.12380  0.22863  0.67279  1.0000
  C   C306      1.0  0.12234  0.20843  0.68914  1.0000
  C   C307      1.0  0.14266  0.19394  0.69356  1.0000
  C   C308      1.0  0.16452  0.19967  0.68184  1.0000
  H   H213      1.0  0.15406  0.23819  0.56215  1.0000
  H   H214      1.0  0.16826  0.27956  0.55520  1.0000
  H   H215      1.0  0.19424  0.29839  0.58940  1.0000
  H   H216      1.0  0.20620  0.27684  0.63103  1.0000
  H   H217      1.0  0.16583  0.21600  0.60357  1.0000
  H   H218      1.0  0.24459  0.23301  0.66984  1.0000
  H   H219      1.0  0.26330  0.25894  0.70416  1.0000
  H   H220      1.0  0.23882  0.28986  0.72880  1.0000
  H   H221      1.0  0.19533  0.29449  0.71876  1.0000
  H   H222      1.0  0.17621  0.26815  0.68533  1.0000
  H   H223      1.0  0.22019  0.19430  0.68620  1.0000
  H   H224      1.0  0.24566  0.15865  0.67696  1.0000
  H   H225      1.0  0.25549  0.14688  0.62941  1.0000
  H   H226      1.0  0.23965  0.17123  0.59115  1.0000
  H   H227      1.0  0.21315  0.20621  0.60000  1.0000
  H   H228      1.0  0.14646  0.25090  0.64956  1.0000
  H   H229      1.0  0.10810  0.24005  0.66961  1.0000
  H   H230      1.0  0.10564  0.20433  0.69900  1.0000
  H   H231      1.0  0.14166  0.17869  0.70695  1.0000
  H   H232      1.0  0.17990  0.18834  0.68628  1.0000
  C   C309      1.0  0.23768  0.31904  0.59910  1.0000
  C   C310      1.0  0.23468  0.32395  0.62677  1.0000
  C   C311      1.0  0.24645  0.30964  0.64603  1.0000
  C   C312      1.0  0.26159  0.29065  0.63761  1.0000
  C   C313      1.0  0.26463  0.28554  0.60979  1.0000
  C   C314      1.0  0.25220  0.29966  0.59070  1.0000
  P   P9        1.0  0.28475  0.26161  0.59837  1.0000
  C   C315      1.0  0.26982  0.24210  0.57432  1.0000
  H   H233      1.0  0.12384  0.29679  0.94617  1.0000
  H   H234      1.0  0.20823  0.45381  0.86246  1.0000
  H   H235      1.0  0.15100  0.42180  0.95624  1.0000
  H   H236      1.0  0.24947  0.39004  0.90447  1.0000
  P   P10       1.0  0.29105  0.03381  0.64396  1.0000
  C   C316      1.0  0.24630  0.41796  0.93525  1.0000
  C   C317      1.0  0.24480  0.24313  0.57110  1.0000
  C   C318      1.0  0.23352  0.22817  0.55221  1.0000
  C   C319      1.0  0.24705  0.21159  0.53691  1.0000
  C   C320      1.0  0.27185  0.21004  0.54045  1.0000
  C   C321      1.0  0.28319  0.22529  0.55893  1.0000
  C   C322      1.0  0.01744  0.35137  0.92673  1.0000
  H   H237      1.0  0.29367  0.07713  0.86353  1.0000
  C   C323      1.0  0.99008  0.29918  0.67505  1.0000
  H   H238      1.0  0.22144  0.09045  0.64001  1.0000
  H   H239      1.0  0.20189  0.40799  0.87499  1.0000
  C   C324      1.0  0.28303  0.22290  0.63390  1.0000
  C   C325      1.0  0.21301  0.46168  0.51280  1.0000
  H   H240      1.0  0.22326  0.33888  0.63324  1.0000
  H   H241      1.0  0.24394  0.31339  0.66749  1.0000
  H   H242      1.0  0.27086  0.28013  0.65286  1.0000
  C   C326      1.0  0.02497  0.30708  0.64790  1.0000
  C   C327      1.0  0.22501  0.07405  0.67925  1.0000
  C   C328      1.0  0.22670  0.44830  0.85889  1.0000
  H   H243      1.0  0.15107  0.45835  0.53664  1.0000
  C   C329      1.0  0.08404  0.35870  0.82561  1.0000
  H   H244      1.0  0.24375  0.44041  0.97139  1.0000
  H   H245      1.0  0.23394  0.25550  0.58298  1.0000
  H   H246      1.0  0.21428  0.22951  0.54948  1.0000
  H   H247      1.0  0.09063  0.37069  0.78493  1.0000
  C   C330      1.0  0.14970  0.47980  0.62664  1.0000
  H   H248      1.0  0.27689  0.42784  0.89187  1.0000
  C   C331      1.0  0.30640  0.14944  0.85640  1.0000
  P   P11       1.0  0.26774  0.22613  0.82547  1.0000
  H   H249      1.0  0.27791  0.28233  0.95238  1.0000
  C   C332      1.0  0.31208  0.08198  0.86728  1.0000
  H   H250      1.0  0.26815  0.21662  0.62184  1.0000
  C   C333      1.0  0.05127  0.25284  0.82263  1.0000
  C   C334      1.0  0.04834  0.23765  0.84467  1.0000
  C   C335      1.0  0.03964  0.24690  0.86930  1.0000
  C   C336      1.0  0.03403  0.27139  0.87194  1.0000
  C   C337      1.0  0.03758  0.28691  0.85008  1.0000
  C   C338      1.0  0.04587  0.27737  0.82525  1.0000
  P   P12       1.0  0.02869  0.31818  0.85286  1.0000
  C   C339      1.0  0.04799  0.33571  0.83178  1.0000
  H   H251      1.0  0.20945  0.08335  0.68771  1.0000
  C   C340      1.0  0.25200  0.06613  0.64165  1.0000
  H   H252      1.0  0.18660  0.25413  0.79669  1.0000
  H   H253      1.0  0.15135  0.38877  0.59867  1.0000
  C   C341      1.0  0.01495  0.29898  0.67197  1.0000
  C   C342      1.0  0.28333  0.28546  0.97320  1.0000
  C   C343      1.0  0.04261  0.33855  0.80408  1.0000
  C   C344      1.0  0.05779  0.35133  0.78735  1.0000
  C   C345      1.0  0.07854  0.36135  0.79808  1.0000
  H   H254      1.0  0.30075  0.08413  0.63377  1.0000
  C   C346      1.0  0.06877  0.34610  0.84246  1.0000
  C   C347      1.0  0.03180  0.32807  0.88782  1.0000
  C   C348      1.0  0.05210  0.32098  0.90301  1.0000
  C   C349      1.0  0.05517  0.32931  0.92969  1.0000
  C   C350      1.0  0.03786  0.34451  0.94154  1.0000
  H   H255      1.0  0.04428  0.30695  0.64560  1.0000
  C   C351      1.0  0.01441  0.34324  0.89995  1.0000
  H   H256      1.0  0.05759  0.24560  0.80336  1.0000
  H   H257      1.0  0.05257  0.21867  0.84251  1.0000
  H   H258      1.0  0.03702  0.23505  0.88626  1.0000
  H   H259      1.0  0.02667  0.27810  0.89093  1.0000
  H   H260      1.0  0.04792  0.28871  0.80774  1.0000
  C   C352      1.0  0.30347  0.15579  0.88405  1.0000
  C   C353      1.0  0.30905  0.16077  0.61986  1.0000
  H   H261      1.0  0.10043  0.36599  0.83381  1.0000
  C   C354      1.0  0.24602  0.24765  0.81225  1.0000
  H   H262      1.0  0.25405  0.29589  0.56918  1.0000
  H   H263      1.0  0.02697  0.33037  0.79516  1.0000
  H   H264      1.0  0.05382  0.35274  0.76582  1.0000
  H   H265      1.0  0.31130  0.01634  0.59183  1.0000
  C   C355      1.0  0.99810  0.32172  0.84105  1.0000
  H   H266      1.0  0.07362  0.34432  0.86360  1.0000
  H   H267      1.0  0.06582  0.30938  0.89402  1.0000
  H   H268      1.0  0.07116  0.32424  0.94108  1.0000
  H   H269      1.0  0.04037  0.35109  0.96215  1.0000
  H   H270      1.0  0.29333  0.43088  0.84569  1.0000
  H   H271      1.0  0.30634  0.03016  0.73589  1.0000
  H   H272      1.0  0.26863  0.03385  0.69731  1.0000
  C   C356      1.0  0.24588  0.18246  0.81546  1.0000
  C   C357      1.0  0.28433  0.23787  0.85437  1.0000
  C   C358      1.0  0.24707  0.19528  0.86264  1.0000
  H   H273      1.0  0.27028  0.36105  0.93474  1.0000
  S   S42       1.0  0.25070  0.32315  0.97175  1.0000
  H   H274      1.0  0.19109  0.43944  0.95456  1.0000
  H   H275      1.0  0.26655  0.46778  0.93674  1.0000
  C   C359      1.0  0.26520  0.43362  0.87545  1.0000
  H   H276      1.0  0.00403  0.36318  0.93595  1.0000
  C   C360      1.0  0.25021  0.42355  0.96276  1.0000
  H   H277      1.0  0.19128  0.47598  0.91752  1.0000
  H   H278      1.0  0.31771  0.98871  0.72100  1.0000
  H   H279      1.0  0.27024  0.27560  0.52729  1.0000
  C   C361      1.0  0.98516  0.31562  0.62992  1.0000
  C   C362      1.0  0.27942  0.21950  0.77079  1.0000
  H   H280      1.0  0.31624  0.01206  0.89299  1.0000
  H   H281      1.0  0.24031  0.24857  0.98508  1.0000
  H   H282      1.0  0.29515  0.14769  0.65786  1.0000
  C   C363      1.0  0.31570  0.03233  0.66770  1.0000
  H   H283      1.0  0.29202  0.13628  0.96845  1.0000
  H   H284      1.0  0.22226  0.44701  0.52289  1.0000
  Fe  Fe23      1.0  0.22073  0.34685  0.99021  1.0000
  C   C364      1.0  0.30296  0.04881  0.61481  1.0000
  C   C365      1.0  0.99170  0.30725  0.74847  1.0000
  H   H285      1.0  0.22500  0.45682  0.81631  1.0000
  H   H286      1.0  0.24565  0.45074  0.59008  1.0000
  C   C366      1.0  0.30118  0.99185  0.73192  1.0000
  H   H287      1.0  0.28763  0.21354  0.72859  1.0000
  H   H288      1.0  0.26750  0.44522  0.80773  1.0000
  H   H289      1.0  0.11875  0.45764  0.62027  1.0000
  H   H290      1.0  0.30094  0.20360  0.86445  1.0000
  H   H291      1.0  0.98956  0.28408  0.84428  1.0000
  C   C367      1.0  0.23316  0.46590  0.59050  1.0000
  C   C368      1.0  0.98918  0.34439  0.83323  1.0000
  H   H292      1.0  0.30970  0.25630  0.97322  1.0000
  P   P13       1.0  0.16024  0.47678  0.59207  1.0000
  C   C369      1.0  0.31172  0.21109  0.80258  1.0000
  H   H293      1.0  0.12713  0.30428  0.50780  1.0000
  H   H294      1.0  0.16458  0.46060  0.99070  1.0000
  H   H295      1.0  0.26761  0.11985  0.50616  1.0000
  S   S43       1.0  0.31678  0.09529  0.75292  1.0000
  Fe  Fe24      1.0  0.30733  0.11743  0.71605  1.0000
  C   C370      1.0  0.30595  0.07376  0.61587  1.0000
  H   H296      1.0  0.30917  0.06813  0.68390  1.0000
  H   H297      1.0  0.29718  0.15186  0.50032  1.0000
  C   C371      1.0  0.31104  0.27357  0.58238  1.0000
  C   C372      1.0  0.28204  0.30782  0.50816  1.0000
  C   C373      1.0  0.31049  0.21675  0.67162  1.0000
  C   C374      1.0  0.27240  0.30437  0.98814  1.0000
  S   S44       1.0  0.31771  0.17299  0.93403  1.0000
  C   C375      1.0  0.20790  0.48300  0.92525  1.0000
  C   C376      1.0  0.31610  0.08559  0.59401  1.0000
  H   H298      1.0  0.31676  0.11895  0.93175  1.0000
  H   H299      1.0  0.31705  0.20570  0.68816  1.0000
  C   C377      1.0  0.18952  0.50030  0.48685  1.0000
  S   S45       1.0  0.27990  0.87798  0.26492  1.0000
  C   C378      1.0  0.20491  0.72607  0.08975  1.0000
  S   S46       1.0  0.28574  0.87826  0.19788  1.0000
  Fe  Fe25      1.0  0.30218  0.89753  0.23405  1.0000
  H   H300      1.0  0.29941  0.74448  0.04023  1.0000
  Fe  Fe26      1.0  0.26588  0.85665  0.22889  1.0000
  S   S47       1.0  0.22653  0.84799  0.22082  1.0000
  S   S48       1.0  0.29439  0.82821  0.23177  1.0000
  Fe  Fe27      1.0  0.13760  0.67852  0.22128  1.0000
  S   S49       1.0  0.11211  0.70969  0.21322  1.0000
  S   S50       1.0  0.15427  0.65142  0.19069  1.0000
  Fe  Fe28      1.0  0.13857  0.68852  0.28364  1.0000
  S   S51       1.0  0.11301  0.72000  0.27901  1.0000
  S   S52       1.0  0.15689  0.68546  0.32552  1.0000
  Fe  Fe29      1.0  0.09146  0.69733  0.24990  1.0000
  S   S53       1.0  0.05088  0.68923  0.25450  1.0000
  Fe  Fe30      1.0  0.13568  0.72990  0.24312  1.0000
  S   S54       1.0  0.14649  0.76927  0.24006  1.0000
  S   S55       1.0  0.11607  0.66499  0.25666  1.0000
  S   S56       1.0  0.16203  0.69954  0.24897  1.0000
  Fe  Fe31      1.0  0.17934  0.60950  0.46460  1.0000
  S   S57       1.0  0.21754  0.59701  0.47294  1.0000
  S   S58       1.0  0.16329  0.60893  0.42154  1.0000
  Fe  Fe32      1.0  0.17910  0.63421  0.02540  1.0000
  S   S59       1.0  0.20995  0.60744  0.02601  1.0000
  S   S60       1.0  0.16017  0.65491  0.06025  1.0000
  C   C379      1.0  0.25384  0.70999  0.44858  1.0000
  H   H301      1.0  0.27218  0.53447  0.05695  1.0000
  H   H302      1.0  0.17345  0.82285  0.32110  1.0000
  H   H303      1.0  0.06915  0.65412  0.20577  1.0000
  H   H304      1.0  0.04489  0.74027  0.27188  1.0000
  H   H305      1.0  0.15136  0.75309  0.30603  1.0000
  H   H306      1.0  0.26714  0.71364  0.05727  1.0000
  C   C380      1.0  0.30238  0.96756  0.23863  1.0000
  C   C381      1.0  0.26715  0.78176  0.05701  1.0000
  H   H307      1.0  0.25336  0.86228  0.38566  1.0000
  C   C382      1.0  0.27475  0.80070  0.11956  1.0000
  C   C383      1.0  0.15630  0.65312  0.15445  1.0000
  C   C384      1.0  0.14429  0.67100  0.13958  1.0000
  C   C385      1.0  0.14581  0.67121  0.11090  1.0000
  C   C386      1.0  0.15944  0.65370  0.09657  1.0000
  C   C387      1.0  0.17175  0.63600  0.11143  1.0000
  C   C388      1.0  0.17008  0.63568  0.14013  1.0000
  H   H308      1.0  0.13361  0.68454  0.15014  1.0000
  H   H309      1.0  0.13622  0.68501  0.09971  1.0000
  H   H310      1.0  0.18252  0.62256  0.10086  1.0000
  H   H311      1.0  0.17964  0.62189  0.15131  1.0000
  C   C389      1.0  0.15788  0.66401  0.35210  1.0000
  C   C390      1.0  0.16856  0.67033  0.37711  1.0000
  C   C391      1.0  0.17005  0.65393  0.39877  1.0000
  C   C392      1.0  0.16080  0.63095  0.39567  1.0000
  C   C393      1.0  0.15007  0.62469  0.37068  1.0000
  C   C394      1.0  0.14863  0.64107  0.34904  1.0000
  H   H312      1.0  0.17572  0.68804  0.37977  1.0000
  H   H313      1.0  0.17837  0.65902  0.41780  1.0000
  H   H314      1.0  0.14302  0.60691  0.36796  1.0000
  H   H315      1.0  0.14041  0.63591  0.32999  1.0000
  C   C395      1.0  0.01984  0.69822  0.25053  1.0000
  C   C396      1.0  0.01251  0.71930  0.23729  1.0000
  C   C397      1.0  0.00193  0.68384  0.26156  1.0000
  H   H316      1.0  0.02579  0.73051  0.22830  1.0000
  H   H317      1.0  0.00718  0.66753  0.27192  1.0000
  C   C398      1.0  0.27946  0.76430  0.43520  1.0000
  C   C399      1.0  0.15557  0.59452  0.29050  1.0000
  H   H318      1.0  0.21780  0.71033  0.27341  1.0000
  H   H319      1.0  0.22396  0.87919  0.27105  1.0000
  C   C400      1.0  0.17082  0.58355  0.30947  1.0000
  C   C401      1.0  0.21931  0.70064  0.29232  1.0000
  C   C402      1.0  0.27235  0.81335  0.14414  1.0000
  H   H320      1.0  0.17631  0.74663  0.04514  1.0000
  H   H321      1.0  0.13649  0.60658  0.05609  1.0000
  C   C403      1.0  0.20616  0.82456  0.22769  1.0000
  C   C404      1.0  0.21264  0.80005  0.22905  1.0000
  C   C405      1.0  0.19478  0.78248  0.23249  1.0000
  C   C406      1.0  0.17048  0.78946  0.23516  1.0000
  C   C407      1.0  0.16441  0.81393  0.23420  1.0000
  C   C408      1.0  0.18191  0.83115  0.23014  1.0000
  H   H322      1.0  0.23123  0.79467  0.22675  1.0000
  H   H323      1.0  0.19972  0.76364  0.23285  1.0000
  H   H324      1.0  0.14586  0.81968  0.23612  1.0000
  H   H325      1.0  0.17655  0.84986  0.22884  1.0000
  C   C409      1.0  0.05793  0.75399  0.27525  1.0000
  C   C410      1.0  0.25288  0.77953  0.16399  1.0000
  H   H326      1.0  0.18602  0.74589  0.38377  1.0000
  H   H327      1.0  0.24188  0.84137  0.28759  1.0000
  H   H328      1.0  0.15415  0.73409  0.35129  1.0000
  C   C411      1.0  0.30309  0.67463  0.47687  1.0000
  C   C412      1.0  0.12957  0.55047  0.02980  1.0000
  C   C413      1.0  0.12648  0.57526  0.03301  1.0000
  C   C414      1.0  0.28286  0.66196  0.48539  1.0000
  C   C415      1.0  0.15324  0.57441  0.07183  1.0000
  C   C416      1.0  0.15602  0.54937  0.06916  1.0000
  C   C417      1.0  0.14431  0.53754  0.04774  1.0000
  P   P14       1.0  0.17530  0.53305  0.09251  1.0000
  C   C418      1.0  0.17267  0.54790  0.12527  1.0000
  H   H329      1.0  0.30369  0.79348  0.06197  1.0000
  H   H330      1.0  0.18347  0.78433  0.02046  1.0000
  H   H331      1.0  0.23042  0.58890  0.27847  1.0000
  P   P15       1.0  0.29162  0.73502  0.42659  1.0000
  H   H332      1.0  0.18025  0.51496  0.47676  1.0000
  C   C419      1.0  0.26595  0.77737  0.11684  1.0000
  C   C420      1.0  0.15005  0.55589  0.13452  1.0000
  C   C421      1.0  0.14802  0.56964  0.15837  1.0000
  C   C422      1.0  0.16848  0.57532  0.17333  1.0000
  C   C423      1.0  0.19100  0.56706  0.16457  1.0000
  C   C424      1.0  0.19313  0.55341  0.14062  1.0000
  C   C425      1.0  0.20595  0.53344  0.08102  1.0000
  C   C426      1.0  0.22239  0.51543  0.08917  1.0000
  H   H333      1.0  0.26521  0.95917  0.23391  1.0000
  C   C427      1.0  0.21373  0.55188  0.06433  1.0000
  Fe  Fe33      1.0  0.31005  0.85028  0.26599  1.0000
  H   H334      1.0  0.22400  0.84726  0.35252  1.0000
  C   C428      1.0  0.28636  0.80601  0.44689  1.0000
  C   C429      1.0  0.31374  0.72564  0.45112  1.0000
  H   H335      1.0  0.14682  0.51848  0.04437  1.0000
  C   C430      1.0  0.27788  0.97335  0.23682  1.0000
  C   C431      1.0  0.18735  0.72385  0.01173  1.0000
  C   C432      1.0  0.00532  0.72489  0.33660  1.0000
  H   H336      1.0  0.13406  0.55215  0.12280  1.0000
  H   H337      1.0  0.13064  0.57649  0.16492  1.0000
  H   H338      1.0  0.16690  0.58662  0.19136  1.0000
  C   C433      1.0  0.21654  0.48518  0.01202  1.0000
  H   H339      1.0  0.21080  0.54776  0.13387  1.0000
  H   H340      1.0  0.18325  0.49210  0.05608  1.0000
  C   C434      1.0  0.01425  0.65978  0.17582  1.0000
  H   H341      1.0  0.20133  0.56574  0.05755  1.0000
  C   C435      1.0  0.24997  0.71742  0.06664  1.0000
  C   C436      1.0  0.30883  0.73826  0.10830  1.0000
  H   H342      1.0  0.24433  0.77145  0.18123  1.0000
  H   H343      1.0  0.13912  0.58602  0.28439  1.0000
  H   H344      1.0  0.28904  0.74450  0.32685  1.0000
  C   C437      1.0  0.23218  0.70025  0.06423  1.0000
  C   C438      1.0  0.25508  0.84406  0.37796  1.0000
  C   C439      1.0  0.28713  0.79541  0.05056  1.0000
  H   H345      1.0  0.22606  0.68954  0.46711  1.0000
  H   H346      1.0  0.18746  0.72926  0.09882  1.0000
  C   C440      1.0  0.22252  0.74347  0.09180  1.0000
  H   H347      1.0  0.05199  0.73896  0.38862  1.0000
  H   H348      1.0  0.04209  0.69911  0.31058  1.0000
  C   C441      1.0  0.24780  0.62188  0.29005  1.0000
  H   H349      1.0  0.23582  0.68358  0.05327  1.0000
  C   C442      1.0  0.05062  0.65039  0.20093  1.0000
  H   H350      1.0  0.06620  0.66211  0.31617  1.0000
  C   C443      1.0  0.16645  0.50212  0.09424  1.0000
  H   H351      1.0  0.28793  0.83666  0.39973  1.0000
  H   H352      1.0  0.18039  0.78329  0.29285  1.0000
  C   C444      1.0  0.30801  0.73932  0.05911  1.0000
  H   H353      1.0  0.01461  0.71421  0.35177  1.0000
  C   C445      1.0  0.28586  0.81189  0.02940  1.0000
  C   C446      1.0  0.27457  0.82961  0.38594  1.0000
  C   C447      1.0  0.25465  0.76899  0.43589  1.0000
  S   S61       1.0  0.18033  0.64053  0.49414  1.0000
  H   H354      1.0  0.12118  0.54134  0.01284  1.0000
  H   H355      1.0  0.16618  0.56650  0.31814  1.0000
  H   H356      1.0  0.22668  0.79551  0.44338  1.0000
  H   H357      1.0  0.09731  0.78711  0.23998  1.0000
  C   C448      1.0  0.25379  0.53425  0.06385  1.0000
  C   C449      1.0  0.24582  0.79196  0.44266  1.0000
  H   H358      1.0  0.11545  0.58531  0.01877  1.0000
  H   H359      1.0  0.21652  0.70991  0.36064  1.0000
  H   H360      1.0  0.04088  0.82683  0.37729  1.0000
  C   C450      1.0  0.03836  0.66402  0.18146  1.0000
  H   H361      1.0  0.04540  0.80965  0.42341  1.0000
  H   H362      1.0  0.21578  0.77573  0.37074  1.0000
  H   H363      1.0  0.26005  0.57758  0.24348  1.0000
  C   C451      1.0  0.29519  0.78313  0.43991  1.0000
  H   H364      1.0  0.25866  0.50162  0.08644  1.0000
  C   C452      1.0  0.00205  0.64218  0.19012  1.0000
  C   C453      1.0  0.18300  0.74598  0.02451  1.0000
  H   H365      1.0  0.29939  0.64115  0.26150  1.0000
  P   P16       1.0  0.04840  0.74844  0.33013  1.0000
  C   C454      1.0  0.06511  0.72090  0.33582  1.0000
  C   C455      1.0  0.08658  0.72107  0.35081  1.0000
  C   C456      1.0  0.10010  0.69987  0.35414  1.0000
  C   C457      1.0  0.09257  0.67855  0.34201  1.0000
  C   C458      1.0  0.07160  0.67841  0.32645  1.0000
  C   C459      1.0  0.05792  0.69949  0.32335  1.0000
  C   C460      1.0  0.06328  0.76170  0.30174  1.0000
  C   C461      1.0  0.09380  0.78737  0.28359  1.0000
  C   C462      1.0  0.08174  0.77806  0.30587  1.0000
  C   C463      1.0  0.04615  0.79800  0.40565  1.0000
  S   S62       1.0  0.16338  0.58464  0.49543  1.0000
  H   H366      1.0  0.09310  0.73760  0.35950  1.0000
  H   H367      1.0  0.11678  0.69998  0.36549  1.0000
  H   H368      1.0  0.10328  0.66227  0.34417  1.0000
  H   H369      1.0  0.06586  0.75704  0.23265  1.0000
  C   C464      1.0  0.04927  0.77324  0.40873  1.0000
  H   H370      1.0  0.27895  0.64468  0.47639  1.0000
  H   H371      1.0  0.10837  0.79962  0.28666  1.0000
  H   H372      1.0  0.08721  0.78322  0.32619  1.0000
  C   C465      1.0  0.20979  0.70443  0.07610  1.0000
  H   H373      1.0  0.31270  0.66423  0.46164  1.0000
  C   C466      1.0  0.04365  0.80768  0.37967  1.0000
  C   C467      1.0  0.24532  0.60054  0.27500  1.0000
  H   H374      1.0  0.04756  0.67810  0.17101  1.0000
  H   H375      1.0  0.30556  0.75611  0.48631  1.0000
  H   H376      1.0  0.15572  0.86012  0.30296  1.0000
  H   H377      1.0  0.14985  0.62495  0.26452  1.0000
  H   H378      1.0  0.25440  0.72279  0.46528  1.0000
  H   H379      1.0  0.22309  0.66636  0.27248  1.0000
  C   C468      1.0  0.13838  0.58724  0.05398  1.0000
  Fe  Fe34      1.0  0.31518  0.85039  0.20263  1.0000
  H   H380      1.0  0.26994  0.65279  0.29677  1.0000
  H   H381      1.0  0.21827  0.76028  0.10211  1.0000
  C   C469      1.0  0.25561  0.76665  0.13957  1.0000
  C   C470      1.0  0.26215  0.59401  0.25513  1.0000
  P   P17       1.0  0.26872  0.76095  0.08491  1.0000
  H   H382      1.0  0.23054  0.77401  0.04580  1.0000
  C   C471      1.0  0.24610  0.78447  0.04149  1.0000
  H   H383      1.0  0.25892  0.81298  0.18508  1.0000
  H   H384      1.0  0.16267  0.58415  0.08757  1.0000
  H   H385      1.0  0.29245  0.79523  0.38167  1.0000
  C   C472      1.0  0.26484  0.81460  0.01417  1.0000
  C   C473      1.0  0.26167  0.81040  0.44844  1.0000
  C   C474      1.0  0.22205  0.67567  0.29189  1.0000
  C   C475      1.0  0.26112  0.80292  0.16621  1.0000
  C   C476      1.0  0.30492  0.73861  0.39362  1.0000
  C   C477      1.0  0.26852  0.60808  0.37943  1.0000
  C   C478      1.0  0.25194  0.60575  0.40038  1.0000
  C   C479      1.0  0.22770  0.61080  0.39553  1.0000
  C   C480      1.0  0.22002  0.61810  0.36980  1.0000
  C   C481      1.0  0.23642  0.62018  0.34853  1.0000
  C   C482      1.0  0.26084  0.61536  0.35359  1.0000
  H   H386      1.0  0.18095  0.88860  0.27817  1.0000
  C   C483      1.0  0.19209  0.59451  0.31727  1.0000
  H   H387      1.0  0.28732  0.60412  0.38323  1.0000
  H   H388      1.0  0.25779  0.59996  0.42038  1.0000
  H   H389      1.0  0.21474  0.60891  0.41167  1.0000
  H   H390      1.0  0.20121  0.62206  0.36640  1.0000
  H   H391      1.0  0.27398  0.61705  0.33771  1.0000
  H   H392      1.0  0.20387  0.58536  0.33151  1.0000
  C   C484      1.0  0.24546  0.73900  0.08096  1.0000
  C   C485      1.0  0.30032  0.74379  0.34484  1.0000
  C   C486      1.0  0.23783  0.69110  0.44977  1.0000
  C   C487      1.0  0.23781  0.67351  0.42935  1.0000
  C   C488      1.0  0.25398  0.67468  0.40785  1.0000
  C   C489      1.0  0.26996  0.69359  0.40655  1.0000
  C   C490      1.0  0.26957  0.71179  0.42654  1.0000
  H   H393      1.0  0.24208  0.75509  0.43108  1.0000
  S   S63       1.0  0.31409  0.93728  0.23561  1.0000
  C   C491      1.0  0.00456  0.75694  0.30373  1.0000
  C   C492      1.0  0.29037  0.73919  0.37025  1.0000
  H   H394      1.0  0.00515  0.67039  0.16046  1.0000
  C   C493      1.0  0.17323  0.48600  0.07337  1.0000
  H   H395      1.0  0.28365  0.80929  0.10297  1.0000
  H   H396      1.0  0.29876  0.82040  0.45066  1.0000
  H   H397      1.0  0.18634  0.64505  0.27909  1.0000
  H   H398      1.0  0.22572  0.65863  0.43066  1.0000
  H   H399      1.0  0.25450  0.66059  0.39256  1.0000
  H   H400      1.0  0.28294  0.69359  0.39032  1.0000
  H   H401      1.0  0.21499  0.73221  0.31740  1.0000
  C   C494      1.0  0.06989  0.76337  0.25303  1.0000
  H   H402      1.0  0.18400  0.70735  0.02243  1.0000
  H   H403      1.0  0.24344  0.56654  0.04279  1.0000
  C   C495      1.0  0.01473  0.62798  0.20897  1.0000
  C   C496      1.0  0.25111  0.75601  0.26213  1.0000
  C   C497      1.0  0.27460  0.76370  0.25968  1.0000
  C   C498      1.0  0.28224  0.78326  0.27504  1.0000
  C   C499      1.0  0.26637  0.79546  0.29250  1.0000
  C   C500      1.0  0.24282  0.78755  0.29564  1.0000
  C   C501      1.0  0.23533  0.76780  0.28007  1.0000
  P   P18       1.0  0.22289  0.80243  0.31987  1.0000
  C   C502      1.0  0.20047  0.78169  0.33071  1.0000
  C   C503      1.0  0.24129  0.81217  0.34810  1.0000
  C   C504      1.0  0.26033  0.79742  0.35721  1.0000
  C   C505      1.0  0.27706  0.80621  0.37580  1.0000
  H   H404      1.0  0.00604  0.61368  0.21950  1.0000
  C   C506      1.0  0.26752  0.63639  0.28519  1.0000
  C   C507      1.0  0.23846  0.83541  0.35912  1.0000
  C   C508      1.0  0.18185  0.77537  0.31284  1.0000
  C   C509      1.0  0.16524  0.75832  0.32030  1.0000
  C   C510      1.0  0.16682  0.74766  0.34582  1.0000
  C   C511      1.0  0.18491  0.75422  0.36400  1.0000
  C   C512      1.0  0.20175  0.77113  0.35650  1.0000
  C   C513      1.0  0.20897  0.82883  0.30508  1.0000
  C   C514      1.0  0.22309  0.84522  0.29134  1.0000
  C   C515      1.0  0.21304  0.86687  0.28217  1.0000
  C   C516      1.0  0.18875  0.87214  0.28612  1.0000
  C   C517      1.0  0.17456  0.85602  0.29991  1.0000
  C   C518      1.0  0.18467  0.83461  0.30973  1.0000
  H   H405      1.0  0.24496  0.74121  0.24970  1.0000
  H   H406      1.0  0.28677  0.75484  0.24552  1.0000
  H   H407      1.0  0.30042  0.78941  0.27299  1.0000
  H   H408      1.0  0.27268  0.81098  0.30363  1.0000
  H   H409      1.0  0.21722  0.76162  0.28112  1.0000
  H   H410      1.0  0.26289  0.77958  0.34883  1.0000
  H   H411      1.0  0.04208  0.80032  0.33675  1.0000
  H   H412      1.0  0.24143  0.68712  0.99883  1.0000
  H   H413      1.0  0.04841  0.62192  0.22981  1.0000
  H   H414      1.0  0.27128  0.73652  0.37176  1.0000
  H   H415      1.0  0.29455  0.60360  0.23475  1.0000
  C   C519      1.0  0.22087  0.67543  0.34110  1.0000
  C   C520      1.0  0.21855  0.70042  0.34147  1.0000
  C   C521      1.0  0.21766  0.71299  0.31710  1.0000
  H   H416      1.0  0.22046  0.66608  0.36018  1.0000
  C   C522      1.0  0.23760  0.55235  0.05591  1.0000
  C   C523      1.0  0.22275  0.66283  0.31631  1.0000
  H   H417      1.0  0.14813  0.50560  0.13288  1.0000
  H   H418      1.0  0.24956  0.74838  0.13852  1.0000
  C   C524      1.0  0.01737  0.74268  0.32244  1.0000
  C   C525      1.0  0.28430  0.62981  0.26530  1.0000
  H   H419      1.0  0.05085  0.76568  0.42888  1.0000
  P   P19       1.0  0.22611  0.63052  0.31567  1.0000
  C   C526      1.0  0.19798  0.61692  0.30668  1.0000
  H   H420      1.0  0.27935  0.83126  0.14619  1.0000
  H   H421      1.0  0.22879  0.80285  0.00816  1.0000
  C   C527      1.0  0.28159  0.60865  0.25023  1.0000
  H   H422      1.0  0.19616  0.69091  0.07457  1.0000
  C   C528      1.0  0.18246  0.62784  0.28769  1.0000
  C   C529      1.0  0.16152  0.61653  0.27944  1.0000
  C   C530      1.0  0.04449  0.79263  0.35674  1.0000
  C   C531      1.0  0.04820  0.76782  0.35967  1.0000
  C   C532      1.0  0.05010  0.75815  0.38584  1.0000
  C   C533      1.0  0.29757  0.74567  0.08413  1.0000
  C   C534      1.0  0.08767  0.78022  0.25719  1.0000
  C   C535      1.0  0.24617  0.51577  0.08045  1.0000
  C   C536      1.0  0.31053  0.69879  0.48687  1.0000
  C   C537      1.0  0.24501  0.80080  0.02010  1.0000
  H   H423      1.0  0.01315  0.77128  0.29317  1.0000
  H   H424      1.0  0.25486  0.82820  0.45362  1.0000
  C   C538      1.0  0.03885  0.63230  0.21458  1.0000
  H   H425      1.0  0.20686  0.57176  0.17601  1.0000
  H   H426      1.0  0.30125  0.82259  0.02487  1.0000
  C   C539      1.0  0.98793  0.72612  0.23585  1.0000
  C   C540      1.0  0.18701  0.76718  0.01056  1.0000
  C   C541      1.0  0.21087  0.50972  0.00748  1.0000
  C   C542      1.0  0.31608  0.74004  0.48204  1.0000
  H   H427      1.0  0.30108  0.74277  0.12787  1.0000
  H   H428      1.0  0.30972  0.97382  0.17513  1.0000
  H   H429      1.0  0.31437  0.78007  0.43815  1.0000
  C   C543      1.0  0.15349  0.49368  0.11643  1.0000
  H   H430      1.0  0.21681  0.50105  0.10215  1.0000
  H   H431      1.0  0.22400  0.52316  0.01179  1.0000
  H   H432      1.0  0.26401  0.82735  0.99773  1.0000
  Fe  Fe35      1.0  0.28840  0.86066  0.77069  1.0000
  S   S64       1.0  0.25787  0.88539  0.75760  1.0000
  C   C544      1.0  0.30230  0.83161  0.86453  1.0000
  S   S65       1.0  0.27750  0.87920  0.69531  1.0000
  Fe  Fe36      1.0  0.28492  0.90369  0.73132  1.0000
  S   S66       1.0  0.29470  0.94326  0.72397  1.0000
  Fe  Fe37      1.0  0.25325  0.85881  0.72322  1.0000
  S   S67       1.0  0.21790  0.84340  0.70804  1.0000
  S   S68       1.0  0.28235  0.83348  0.73732  1.0000
  Fe  Fe38      1.0  0.13356  0.68997  0.70824  1.0000
  S   S69       1.0  0.11605  0.72653  0.71421  1.0000
  S   S70       1.0  0.15577  0.67871  0.67078  1.0000
  Fe  Fe39      1.0  0.12940  0.67853  0.76976  1.0000
  S   S71       1.0  0.11151  0.71404  0.77918  1.0000
  S   S72       1.0  0.14250  0.65001  0.79997  1.0000
  Fe  Fe40      1.0  0.08944  0.70750  0.74104  1.0000
  S   S73       1.0  0.04927  0.71933  0.73844  1.0000
  Fe  Fe41      1.0  0.13910  0.73007  0.75170  1.0000
  S   S74       1.0  0.16407  0.75895  0.76818  1.0000
  S   S75       1.0  0.10608  0.67067  0.73291  1.0000
  S   S76       1.0  0.15779  0.69473  0.74449  1.0000
  Fe  Fe42      1.0  0.17775  0.63509  0.96177  1.0000
  S   S77       1.0  0.20839  0.60818  0.95853  1.0000
  S   S78       1.0  0.15869  0.65781  0.92887  1.0000
  Fe  Fe43      1.0  0.16783  0.61492  0.52583  1.0000
  S   S79       1.0  0.20477  0.60235  0.53753  1.0000
  S   S80       1.0  0.13855  0.62477  0.55685  1.0000
  H   H433      1.0  0.22990  0.92993  0.81074  1.0000
  H   H434      1.0  0.25327  0.96221  0.75549  1.0000
  H   H435      1.0  0.19807  0.66770  0.83864  1.0000
  C   C545      1.0  0.27361  0.75362  0.87511  1.0000
  C   C546      1.0  0.20721  0.77923  0.83706  1.0000
  H   H436      1.0  0.18705  0.63714  0.67248  1.0000
  H   H437      1.0  0.21235  0.56865  0.70243  1.0000
  H   H438      1.0  0.31371  0.81843  0.90392  1.0000
  H   H439      1.0  0.25724  0.65218  0.92254  1.0000
  H   H440      1.0  0.17557  0.55978  0.56694  1.0000
  C   C547      1.0  0.18942  0.62442  0.68876  1.0000
  C   C548      1.0  0.15016  0.66323  0.63955  1.0000
  C   C549      1.0  0.12723  0.65652  0.63127  1.0000
  C   C550      1.0  0.12391  0.64486  0.60589  1.0000
  C   C551      1.0  0.14342  0.63970  0.58856  1.0000
  C   C552      1.0  0.16631  0.64619  0.59703  1.0000
  C   C553      1.0  0.16964  0.65779  0.62235  1.0000
  H   H441      1.0  0.11205  0.66056  0.64422  1.0000
  H   H442      1.0  0.10611  0.63989  0.59957  1.0000
  H   H443      1.0  0.18138  0.64247  0.58384  1.0000
  H   H444      1.0  0.18747  0.66277  0.62854  1.0000
  C   C554      1.0  0.14778  0.65301  0.83564  1.0000
  C   C555      1.0  0.15779  0.63340  0.84989  1.0000
  C   C556      1.0  0.16193  0.63472  0.87823  1.0000
  C   C557      1.0  0.15590  0.65566  0.89277  1.0000
  C   C558      1.0  0.14625  0.67542  0.87844  1.0000
  C   C559      1.0  0.14225  0.67416  0.85008  1.0000
  H   H445      1.0  0.16215  0.61695  0.83899  1.0000
  H   H446      1.0  0.16924  0.61933  0.88890  1.0000
  H   H447      1.0  0.14148  0.69170  0.88947  1.0000
  H   H448      1.0  0.13458  0.68942  0.83949  1.0000
  C   C560      1.0  0.01918  0.70944  0.74363  1.0000
  C   C561      1.0  0.00005  0.72638  0.74261  1.0000
  C   C562      1.0  0.01369  0.68544  0.74823  1.0000
  H   H449      1.0  0.00388  0.74501  0.73911  1.0000
  H   H450      1.0  0.02803  0.67211  0.74887  1.0000
  H   H451      1.0  0.20639  0.73550  0.79997  1.0000
  H   H452      1.0  0.15882  0.60290  0.65375  1.0000
  C   C563      1.0  0.27385  0.69271  0.51730  1.0000
  H   H453      1.0  0.06504  0.75815  0.87517  1.0000
  H   H454      1.0  0.15467  0.50364  0.98240  1.0000
  H   H455      1.0  0.19683  0.57948  0.74790  1.0000
  H   H456      1.0  0.26272  0.69973  0.53352  1.0000
  C   C564      1.0  0.26818  0.67096  0.50567  1.0000
  H   H457      1.0  0.30919  0.92904  0.64857  1.0000
  C   C565      1.0  0.20333  0.81952  0.72450  1.0000
  C   C566      1.0  0.21036  0.81195  0.75036  1.0000
  C   C567      1.0  0.19823  0.79329  0.76312  1.0000
  C   C568      1.0  0.17905  0.78179  0.75031  1.0000
  C   C569      1.0  0.17205  0.78925  0.72435  1.0000
  C   C570      1.0  0.18407  0.80808  0.71157  1.0000
  H   H458      1.0  0.22484  0.82084  0.76075  1.0000
  H   H459      1.0  0.20369  0.78780  0.78314  1.0000
  H   H460      1.0  0.15703  0.78090  0.71445  1.0000
  H   H461      1.0  0.17826  0.81396  0.69169  1.0000
  C   C571      1.0  0.31480  0.76516  0.88180  1.0000
  H   H462      1.0  0.31189  0.65843  0.98235  1.0000
  C   C572      1.0  0.19479  0.59199  0.73131  1.0000
  H   H463      1.0  0.05131  0.70499  0.79536  1.0000
  H   H464      1.0  0.06390  0.74644  0.78867  1.0000
  H   H465      1.0  0.27172  0.82134  0.92084  1.0000
  C   C573      1.0  0.16585  0.79873  0.63423  1.0000
  C   C574      1.0  0.14515  0.78986  0.64596  1.0000
  C   C575      1.0  0.14619  0.76817  0.65988  1.0000
  C   C576      1.0  0.16799  0.75558  0.66265  1.0000
  C   C577      1.0  0.18900  0.76474  0.65160  1.0000
  C   C578      1.0  0.18763  0.78603  0.63666  1.0000
  P   P20       1.0  0.21668  0.74751  0.65305  1.0000
  C   C579      1.0  0.21602  0.72839  0.68233  1.0000
  C   C580      1.0  0.21808  0.73153  0.62092  1.0000
  C   C581      1.0  0.20067  0.71460  0.61435  1.0000
  C   C582      1.0  0.20089  0.70311  0.58891  1.0000
  C   C583      1.0  0.21824  0.70859  0.56977  1.0000
  C   C584      1.0  0.23501  0.72610  0.57577  1.0000
  C   C585      1.0  0.23483  0.73768  0.60111  1.0000
  C   C586      1.0  0.21729  0.70330  0.67994  1.0000
  C   C587      1.0  0.21721  0.68913  0.70324  1.0000
  C   C588      1.0  0.21603  0.69992  0.72900  1.0000
  C   C589      1.0  0.21461  0.72487  0.73146  1.0000
  C   C590      1.0  0.21466  0.73905  0.70826  1.0000
  C   C591      1.0  0.24265  0.76568  0.65889  1.0000
  C   C592      1.0  0.24033  0.78933  0.66874  1.0000
  C   C593      1.0  0.26069  0.80288  0.67366  1.0000
  C   C594      1.0  0.28350  0.79279  0.66950  1.0000
  C   C595      1.0  0.28602  0.76907  0.66040  1.0000
  C   C596      1.0  0.26569  0.75546  0.65540  1.0000
  H   H466      1.0  0.16502  0.81546  0.62327  1.0000
  H   H467      1.0  0.12828  0.79972  0.64417  1.0000
  H   H468      1.0  0.13010  0.76112  0.66871  1.0000
  H   H469      1.0  0.16830  0.73866  0.67332  1.0000
  H   H470      1.0  0.20341  0.79287  0.62697  1.0000
  H   H471      1.0  0.18673  0.71047  0.62873  1.0000
  H   H472      1.0  0.18737  0.69018  0.58381  1.0000
  H   H473      1.0  0.21837  0.69953  0.55012  1.0000
  H   H474      1.0  0.24793  0.73108  0.56063  1.0000
  H   H475      1.0  0.24741  0.75181  0.60474  1.0000
  H   H476      1.0  0.21797  0.69455  0.66028  1.0000
  H   H477      1.0  0.21743  0.66979  0.70129  1.0000
  H   H478      1.0  0.21548  0.68896  0.74703  1.0000
  H   H479      1.0  0.21303  0.73336  0.75129  1.0000
  H   H480      1.0  0.21348  0.75839  0.71057  1.0000
  H   H481      1.0  0.22293  0.79740  0.67299  1.0000
  H   H482      1.0  0.25877  0.82124  0.68090  1.0000
  C   C597      1.0  0.26911  0.71312  0.99338  1.0000
  Fe  Fe44      1.0  0.30686  0.85525  0.71157  1.0000
  H   H483      1.0  0.26792  0.73698  0.64875  1.0000
  C   C598      1.0  0.16288  0.59276  0.63545  1.0000
  C   C599      1.0  0.14473  0.49915  0.57173  1.0000
  H   H484      1.0  0.29923  0.80332  0.67353  1.0000
  H   H485      1.0  0.25839  0.71047  0.85924  1.0000
  C   C600      1.0  0.99944  0.68539  0.67379  1.0000
  H   H486      1.0  0.25676  0.67694  0.60778  1.0000
  H   H487      1.0  0.26411  0.58993  0.64712  1.0000
  C   C601      1.0  0.23858  0.52606  0.65274  1.0000
  C   C602      1.0  0.14854  0.57468  0.59364  1.0000
  H   H488      1.0  0.30056  0.84659  0.64334  1.0000
  C   C603      1.0  0.22945  0.51654  0.94413  1.0000
  H   H489      1.0  0.28360  0.82815  0.86797  1.0000
  C   C604      1.0  0.25673  0.57225  0.64888  1.0000
  H   H490      1.0  0.24043  0.63216  0.67538  1.0000
  C   C605      1.0  0.25039  0.50236  0.94508  1.0000
  H   H491      1.0  0.26127  0.80440  0.82577  1.0000
  C   C606      1.0  0.24841  0.66119  0.61585  1.0000
  C   C607      1.0  0.17201  0.56837  0.58646  1.0000
  H   H492      1.0  0.22941  0.53490  0.95163  1.0000
  H   H493      1.0  0.19200  0.51789  0.93382  1.0000
  C   C608      1.0  0.23178  0.78040  0.83130  1.0000
  C   C609      1.0  0.20387  0.82261  0.83808  1.0000
  H   H494      1.0  0.21536  0.61431  0.59471  1.0000
  C   C610      1.0  0.31297  0.88273  0.55752  1.0000
  H   H495      1.0  0.27791  0.79379  0.95974  1.0000
  C   C611      1.0  0.24835  0.66966  0.92336  1.0000
  C   C612      1.0  0.25009  0.65605  0.64355  1.0000
  H   H496      1.0  0.25986  0.66782  0.65704  1.0000
  C   C613      1.0  0.14396  0.58666  0.61819  1.0000
  H   H497      1.0  0.26920  0.95179  0.66936  1.0000
  H   H498      1.0  0.29386  0.72276  0.51974  1.0000
  H   H499      1.0  0.29145  0.55464  0.64687  1.0000
  C   C614      1.0  0.20355  0.58592  0.70543  1.0000
  H   H500      1.0  0.28113  0.68879  0.92829  1.0000
  H   H501      1.0  0.23156  0.50815  0.65392  1.0000
  C   C615      1.0  0.29333  0.71700  0.98736  1.0000
  C   C616      1.0  0.01883  0.65982  0.62967  1.0000
  C   C617      1.0  0.00842  0.68213  0.84808  1.0000
  C   C618      1.0  0.05465  0.71623  0.81300  1.0000
  P   P21       1.0  0.04039  0.67781  0.84421  1.0000
  C   C619      1.0  0.05153  0.70749  0.83933  1.0000
  C   C620      1.0  0.05469  0.66291  0.87262  1.0000
  C   C621      1.0  0.07721  0.67010  0.88219  1.0000
  C   C622      1.0  0.08861  0.65774  0.90339  1.0000
  C   C623      1.0  0.07801  0.63776  0.91467  1.0000
  C   C624      1.0  0.05600  0.63000  0.90467  1.0000
  C   C625      1.0  0.04448  0.64239  0.88355  1.0000
  H   H502      1.0  0.27537  0.51369  0.65024  1.0000
  C   C626      1.0  0.29327  0.70603  0.50849  1.0000
  C   C627      1.0  0.06575  0.75484  0.83152  1.0000
  C   C628      1.0  0.06233  0.74638  0.85783  1.0000
  C   C629      1.0  0.05495  0.72287  0.86173  1.0000
  C   C630      1.0  0.04733  0.65849  0.81554  1.0000
  C   C631      1.0  0.02959  0.64477  0.80284  1.0000
  H   H503      1.0  0.02174  0.61898  0.77132  1.0000
  C   C632      1.0  0.05931  0.62685  0.77271  1.0000
  C   C633      1.0  0.07711  0.63995  0.78573  1.0000
  C   C634      1.0  0.07119  0.65581  0.80697  1.0000
  Fe  Fe45      1.0  0.19047  0.58774  0.99222  1.0000
  H   H504      1.0  0.30378  0.76131  0.65726  1.0000
  C   C635      1.0  0.12239  0.50898  0.57963  1.0000
  C   C636      1.0  0.26019  0.68973  0.99481  1.0000
  H   H505      1.0  0.07126  0.77310  0.82837  1.0000
  H   H506      1.0  0.08634  0.68484  0.87299  1.0000
  H   H507      1.0  0.10593  0.66335  0.91086  1.0000
  H   H508      1.0  0.08714  0.62808  0.93084  1.0000
  H   H509      1.0  0.04805  0.61419  0.91304  1.0000
  H   H510      1.0  0.02776  0.63577  0.87549  1.0000
  C   C637      1.0  0.18854  0.51672  0.99672  1.0000
  C   C638      1.0  0.30931  0.84145  0.83964  1.0000
  H   H511      1.0  0.19873  0.70556  0.97551  1.0000
  H   H512      1.0  0.15259  0.53130  0.51402  1.0000
  C   C639      1.0  0.16183  0.49425  0.64551  1.0000
  H   H513      1.0  0.01116  0.64587  0.80947  1.0000
  C   C640      1.0  0.29988  0.67369  0.98552  1.0000
  H   H514      1.0  0.25601  0.89402  0.81872  1.0000
  H   H515      1.0  0.09561  0.63774  0.77947  1.0000
  H   H516      1.0  0.08531  0.66573  0.81688  1.0000
  S   S81       1.0  0.26488  0.63994  0.99080  1.0000
  C   C641      1.0  0.22905  0.68753  0.85103  1.0000
  C   C642      1.0  0.15523  0.50713  0.54778  1.0000
  C   C643      1.0  0.26922  0.73024  0.77956  1.0000
  H   H517      1.0  0.00763  0.67503  0.89132  1.0000
  C   C644      1.0  0.12191  0.53479  0.54027  1.0000
  C   C645      1.0  0.14401  0.52499  0.53224  1.0000
  H   H518      1.0  0.24908  0.78838  0.77931  1.0000
  C   C646      1.0  0.26268  0.76917  0.74482  1.0000
  H   H519      1.0  0.99224  0.69538  0.69106  1.0000
  H   H520      1.0  0.09389  0.53436  0.57010  1.0000
  H   H521      1.0  0.18394  0.69832  0.80575  1.0000
  C   C647      1.0  0.06169  0.73983  0.80915  1.0000
  H   H522      1.0  0.28323  0.71135  0.74442  1.0000
  H   H523      1.0  0.23323  0.48911  0.53328  1.0000
  H   H524      1.0  0.11369  0.50314  0.59788  1.0000
  C   C648      1.0  0.27580  0.75661  0.84693  1.0000
  C   C649      1.0  0.23191  0.56925  0.65092  1.0000
  C   C650      1.0  0.23899  0.63585  0.65387  1.0000
  C   C651      1.0  0.99729  0.67962  0.87340  1.0000
  H   H525      1.0  0.20384  0.54333  0.65423  1.0000
  C   C652      1.0  0.20807  0.68396  0.83608  1.0000
  C   C653      1.0  0.20735  0.50524  0.50612  1.0000
  C   C654      1.0  0.22550  0.50872  0.58867  1.0000
  C   C655      1.0  0.27231  0.55224  0.64870  1.0000
  Fe  Fe46      1.0  0.20139  0.57349  0.50509  1.0000
  C   C656      1.0  0.22838  0.82395  0.83302  1.0000
  H   H526      1.0  0.30119  0.83903  0.59351  1.0000
  H   H527      1.0  0.27723  0.74592  0.71360  1.0000
  C   C657      1.0  0.22609  0.62063  0.63651  1.0000
  S   S82       1.0  0.24300  0.65593  0.51849  1.0000
  C   C658      1.0  0.25941  0.95928  0.62774  1.0000
  C   C659      1.0  0.21284  0.72232  0.81449  1.0000
  C   C660      1.0  0.11104  0.52670  0.56389  1.0000
  C   C661      1.0  0.31697  0.76877  0.85387  1.0000
  H   H528      1.0  0.23471  0.64983  0.57688  1.0000
  C   C662      1.0  0.18322  0.61417  0.73584  1.0000
  C   C663      1.0  0.18057  0.63035  0.71454  1.0000
  H   H529      1.0  0.17617  0.61885  0.75580  1.0000
  H   H530      1.0  0.17140  0.64747  0.71787  1.0000
  C   C664      1.0  0.22339  0.67150  0.92217  1.0000
  C   C665      1.0  0.25930  0.75187  0.78976  1.0000
  H   H531      1.0  0.21285  0.65550  0.91996  1.0000
  C   C666      1.0  0.25030  0.71272  0.92962  1.0000
  C   C667      1.0  0.22518  0.71469  0.92894  1.0000
  C   C668      1.0  0.21188  0.69390  0.92477  1.0000
  P   P22       1.0  0.20962  0.74295  0.93582  1.0000
  C   C669      1.0  0.18390  0.74519  0.91336  1.0000
  C   C670      1.0  0.19977  0.74404  0.97078  1.0000
  H   H532      1.0  0.23202  0.52676  0.58650  1.0000
  C   C671      1.0  0.27575  0.72812  0.75220  1.0000
  H   H533      1.0  0.28999  0.97537  0.82259  1.0000
  C   C672      1.0  0.28774  0.91440  0.82556  1.0000
  H   H534      1.0  0.23543  0.67384  0.86492  1.0000
  C   C673      1.0  0.16240  0.75622  0.92216  1.0000
  C   C674      1.0  0.14247  0.75742  0.90481  1.0000
  C   C675      1.0  0.14383  0.74760  0.87859  1.0000
  C   C676      1.0  0.16515  0.73668  0.86966  1.0000
  C   C677      1.0  0.18515  0.73557  0.88689  1.0000
  C   C678      1.0  0.22906  0.76798  0.93086  1.0000
  C   C679      1.0  0.22555  0.78368  0.90901  1.0000
  C   C680      1.0  0.24085  0.80292  0.90552  1.0000
  C   C681      1.0  0.25970  0.80662  0.92376  1.0000
  C   C682      1.0  0.26311  0.79126  0.94573  1.0000
  C   C683      1.0  0.24770  0.77222  0.94946  1.0000
  C   C684      1.0  0.25636  0.77141  0.77220  1.0000
  H   H535      1.0  0.19843  0.76233  0.83841  1.0000
  H   H536      1.0  0.12582  0.59238  0.62315  1.0000
  H   H537      1.0  0.26119  0.72811  0.93349  1.0000
  H   H538      1.0  0.19248  0.69488  0.92452  1.0000
  C   C685      1.0  0.30878  0.69713  0.98388  1.0000
  H   H539      1.0  0.29903  0.89847  0.82784  1.0000
  C   C686      1.0  0.29693  0.86983  0.54141  1.0000
  H   H540      1.0  0.25673  0.74849  0.88373  1.0000
  S   S83       1.0  0.28690  0.84846  0.81501  1.0000
  H   H541      1.0  0.16081  0.76367  0.94247  1.0000
  H   H542      1.0  0.12586  0.76572  0.91182  1.0000
  H   H543      1.0  0.12833  0.74826  0.86522  1.0000
  H   H544      1.0  0.16605  0.72884  0.84942  1.0000
  H   H545      1.0  0.20147  0.72692  0.87966  1.0000
  H   H546      1.0  0.21112  0.78113  0.89463  1.0000
  H   H547      1.0  0.23822  0.81492  0.88858  1.0000
  H   H548      1.0  0.25064  0.76056  0.96667  1.0000
  S   S84       1.0  0.15862  0.61382  0.99332  1.0000
  C   C687      1.0  0.20081  0.60211  0.68388  1.0000
  H   H549      1.0  0.29151  0.75513  0.91417  1.0000
  H   H550      1.0  0.17425  0.79916  0.84384  1.0000
  C   C688      1.0  0.99407  0.66428  0.63095  1.0000
  C   C689      1.0  0.20010  0.70124  0.81760  1.0000
  H   H551      1.0  0.27178  0.71496  0.79274  1.0000
  C   C690      1.0  0.18657  0.58645  0.62845  1.0000
  C   C691      1.0  0.19096  0.57407  0.60385  1.0000
  C   C692      1.0  0.22498  0.62568  0.60865  1.0000
  H   H552      1.0  0.20909  0.56948  0.59762  1.0000
  P   P23       1.0  0.21142  0.59476  0.65003  1.0000
  C   C693      1.0  0.23597  0.64593  0.59842  1.0000
  C   C694      1.0  0.22294  0.54601  0.65285  1.0000
  C   C695      1.0  0.24232  0.80297  0.82998  1.0000
  P   P24       1.0  0.24998  0.75368  0.82490  1.0000
  H   H553      1.0  0.19300  0.83889  0.83989  1.0000
  C   C696      1.0  0.19333  0.80025  0.84033  1.0000
  C   C697      1.0  0.02413  0.68093  0.67244  1.0000
  C   C698      1.0  0.03556  0.62920  0.78132  1.0000
  C   C699      1.0  0.29315  0.75755  0.89241  1.0000
  C   C700      1.0  0.24867  0.93203  0.81570  1.0000
  H   H554      1.0  0.26676  0.50987  0.95300  1.0000
  H   H555      1.0  0.30509  0.91131  0.87623  1.0000
  H   H556      1.0  0.19808  0.78284  0.97313  1.0000
  C   C701      1.0  0.26179  0.69031  0.92661  1.0000
  C   C702      1.0  0.27240  0.74757  0.73482  1.0000
  C   C703      1.0  0.29759  0.76451  0.83647  1.0000
  C   C704      1.0  0.20088  0.50493  0.58989  1.0000
  H   H557      1.0  0.23662  0.84125  0.83102  1.0000
  C   C705      1.0  0.23349  0.72652  0.83019  1.0000
  C   C706      1.0  0.24187  0.70858  0.84796  1.0000
  H   H558      1.0  0.06398  0.61479  0.75607  1.0000
  H   H559      1.0  0.11335  0.54878  0.52825  1.0000
  C   C707      1.0  0.21917  0.48567  0.51874  1.0000
  C   C708      1.0  0.26335  0.91182  0.82015  1.0000
  C   C709      1.0  0.20828  0.50689  0.93408  1.0000
  C   C710      1.0  0.03385  0.66816  0.65037  1.0000
  C   C711      1.0  0.28272  0.95756  0.82272  1.0000
  H   H560      1.0  0.13399  0.57139  0.57958  1.0000
  H   H561      1.0  0.02644  0.65002  0.61251  1.0000
  C   C712      1.0  0.31702  0.83498  0.60551  1.0000
  H   H562      1.0  0.05304  0.66486  0.64930  1.0000
  H   H563      1.0  0.27995  0.86458  0.54975  1.0000
  C   C713      1.0  0.29745  0.93732  0.82781  1.0000
  C   C714      1.0  0.28633  0.97235  0.73717  1.0000
  H   H564      1.0  0.25987  0.78423  0.73131  1.0000
  H   H565      1.0  0.18866  0.52021  0.58928  1.0000
  H   H566      1.0  0.05170  0.71674  0.88217  1.0000
  C   C715      1.0  0.26938  0.96479  0.65308  1.0000
  S   S85       1.0  0.31568  0.88029  0.74646  1.0000
  C   C716      1.0  0.25838  0.95488  0.81686  1.0000
  C   C717      1.0  0.19570  0.72288  0.98500  1.0000
  S   S86       1.0  0.21432  0.53520  0.51689  1.0000
  H   H567      1.0  0.25161  0.94188  0.62427  1.0000
  C   C718      1.0  0.26326  0.52917  0.65059  1.0000
  C   C719      1.0  0.19537  0.76625  0.98379  1.0000
  S   S87       1.0  0.30276  0.74694  0.98266  1.0000
  H   H568      1.0  0.17223  0.49957  0.54122  1.0000
  C   C720      1.0  0.99462  0.68986  0.82574  1.0000
  H   H569      1.0  0.03574  0.68755  0.68849  1.0000
  Fe  Fe47      1.0  0.22548  0.62969  0.99245  1.0000
  C   C721      1.0  0.98957  0.67862  0.75167  1.0000
  H   H570      1.0  0.24717  0.97053  0.81258  1.0000
  H   H571      1.0  0.29951  0.76812  0.81502  1.0000
  C   C722      1.0  0.27547  0.66982  0.99054  1.0000
  H   H572      1.0  0.30790  0.97091  0.87683  1.0000
  H   H573      1.0  0.00297  0.69302  0.80632  1.0000
  C   C723      1.0  0.26503  0.97687  0.75140  1.0000
  C   C724      1.0  0.24166  0.48923  0.58913  1.0000
  Fe  Fe48      1.0  0.21748  0.62671  0.50459  1.0000
  H   H574      1.0  0.29108  0.85217  0.50284  1.0000
  S   S88       1.0  0.18059  0.54744  0.98928  1.0000
  C   C725      1.0  0.30320  0.86277  0.51499  1.0000
  C   C726      1.0  0.17200  0.49863  0.99076  1.0000
  C   C727      1.0  0.31657  0.83922  0.63383  1.0000
  H   H575      1.0  0.30798  0.88723  0.57816  1.0000
  H   H576      1.0  0.25060  0.97237  0.58782  1.0000
  H   H577      1.0  0.25700  0.72826  0.99660  1.0000
  S   S89       1.0  0.19600  0.65732  0.99392  1.0000
  H   H578      1.0  0.17775  0.50357  0.63976  1.0000
  C   C728      1.0  0.25892  0.97644  0.60722  1.0000
  H   H579      1.0  0.16269  0.50815  0.68656  1.0000
  H   H580      1.0  0.98571  0.66001  0.75518  1.0000
  H   H581      1.0  0.26070  0.49217  0.58750  1.0000
  C   C729      1.0  0.15330  0.49695  0.67208  1.0000
  H   H582      1.0  0.12600  0.48743  0.70057  1.0000
  C   C730      1.0  0.13259  0.48533  0.67997  1.0000
  Fe  Fe49      1.0  0.34720  0.17005  0.03079  1.0000
  S   S90       1.0  0.37268  0.19996  0.03881  1.0000
  H   H583      1.0  0.38325  0.13630  0.44366  1.0000
  Fe  Fe50      1.0  0.35318  0.17398  0.47446  1.0000
  S   S91       1.0  0.38106  0.20166  0.46763  1.0000
  S   S92       1.0  0.33216  0.15077  0.44461  1.0000
  C   C731      1.0  0.50289  0.16782  0.42394  1.0000
  C   C732      1.0  0.46768  0.19497  0.06382  1.0000
  H   H584      1.0  0.33231  0.09580  0.02735  1.0000
  H   H585      1.0  0.52020  0.16237  0.00130  1.0000
  C   C733      1.0  0.46657  0.23822  0.06083  1.0000
  H   H586      1.0  0.52644  0.13240  0.36095  1.0000
  Fe  Fe51      1.0  0.62433  0.17418  0.03112  1.0000
  S   S93       1.0  0.60157  0.20731  0.03859  1.0000
  S   S94       1.0  0.63572  0.14480  0.06113  1.0000
  Fe  Fe52      1.0  0.63537  0.18927  0.45921  1.0000
  S   S95       1.0  0.61199  0.22261  0.46312  1.0000
  C   C734      1.0  0.34016  0.16345  0.11113  1.0000
  S   S96       1.0  0.32044  0.15201  0.18937  1.0000
  S   S97       1.0  0.33687  0.14095  0.31532  1.0000
  C   C735      1.0  0.45538  0.21625  0.05737  1.0000
  H   H587      1.0  0.41465  0.24319  0.44449  1.0000
  C   C736      1.0  0.32803  0.14607  0.09613  1.0000
  H   H588      1.0  0.33903  0.23615  0.40213  1.0000
  C   C737      1.0  0.32195  0.22832  0.40663  1.0000
  H   H589      1.0  0.49852  0.25609  0.07322  1.0000
  H   H590      1.0  0.43561  0.13045  0.37651  1.0000
  C   C738      1.0  0.41480  0.12644  0.46670  1.0000
  C   C739      1.0  0.37133  0.08800  0.09245  1.0000
  H   H591      1.0  0.35153  0.17582  0.10078  1.0000
  C   C740      1.0  0.54462  0.24710  0.04541  1.0000
  C   C741      1.0  0.54726  0.17861  0.05910  1.0000
  C   C742      1.0  0.50632  0.17596  0.99850  1.0000
  H   H592      1.0  0.40502  0.16058  0.41100  1.0000
  C   C743      1.0  0.35736  0.06962  0.18725  1.0000
  C   C744      1.0  0.33271  0.14999  0.40851  1.0000
  C   C745      1.0  0.35028  0.16147  0.39363  1.0000
  C   C746      1.0  0.35106  0.15879  0.36509  1.0000
  C   C747      1.0  0.45407  0.20281  0.41579  1.0000
  H   H593      1.0  0.45824  0.21952  0.48515  1.0000
  H   H594      1.0  0.36346  0.17205  0.40415  1.0000
  H   H595      1.0  0.36509  0.16722  0.35384  1.0000
  C   C748      1.0  0.58679  0.26356  0.06924  1.0000
  C   C749      1.0  0.58073  0.27015  0.04272  1.0000
  H   H596      1.0  0.44895  0.12058  0.48629  1.0000
  H   H597      1.0  0.35642  0.03998  0.21556  1.0000
  H   H598      1.0  0.50038  0.17884  0.07838  1.0000
  H   H599      1.0  0.48719  0.25343  0.41908  1.0000
  H   H600      1.0  0.44223  0.20626  0.36221  1.0000
  S   S98       1.0  0.64523  0.26093  0.03390  1.0000
  H   H601      1.0  0.62175  0.15083  0.39877  1.0000
  C   C750      1.0  0.43956  0.12871  0.46929  1.0000
  C   C751      1.0  0.36801  0.01030  0.17378  1.0000
  S   S99       1.0  0.33342  0.25856  0.02649  1.0000
  C   C752      1.0  0.36876  0.98627  0.18170  1.0000
  C   C753      1.0  0.43582  0.18877  0.35637  1.0000
  C   C754      1.0  0.37688  0.04266  0.11574  1.0000
  C   C755      1.0  0.43214  0.14621  0.36428  1.0000
  P   P25       1.0  0.45585  0.17171  0.40497  1.0000
  H   H602      1.0  0.55896  0.14843  0.03453  1.0000
  H   H603      1.0  0.37905  0.02488  0.12394  1.0000
  H   H604      1.0  0.48367  0.14427  0.36361  1.0000
  Fe  Fe53      1.0  0.58687  0.20039  0.48811  1.0000
  Fe  Fe54      1.0  0.62970  0.22679  0.01515  1.0000
  C   C756      1.0  0.55966  0.26189  0.03082  1.0000
  H   H605      1.0  0.40189  0.16266  0.30695  1.0000
  C   C757      1.0  0.49126  0.19556  0.07347  1.0000
  C   C758      1.0  0.57183  0.24864  0.08385  1.0000
  C   C759      1.0  0.55042  0.24059  0.07216  1.0000
  H   H606      1.0  0.53933  0.16616  0.43847  1.0000
  P   P26       1.0  0.53308  0.21862  0.08950  1.0000
  C   C760      1.0  0.50283  0.21754  0.07643  1.0000
  C   C761      1.0  0.54918  0.19058  0.08419  1.0000
  C   C762      1.0  0.57814  0.16017  0.09895  1.0000
  C   C763      1.0  0.56517  0.18153  0.10391  1.0000
  C   C764      1.0  0.49013  0.23891  0.07056  1.0000
  C   C765      1.0  0.52967  0.22591  0.12507  1.0000
  C   C766      1.0  0.53123  0.24971  0.13436  1.0000
  C   C767      1.0  0.52776  0.25528  0.16188  1.0000
  C   C768      1.0  0.52242  0.23720  0.18018  1.0000
  C   C769      1.0  0.52031  0.21356  0.17094  1.0000
  C   C770      1.0  0.52371  0.20795  0.14344  1.0000
  H   H607      1.0  0.60368  0.26915  0.07787  1.0000
  C   C771      1.0  0.47191  0.24197  0.42112  1.0000
  C   C772      1.0  0.41827  0.14410  0.34065  1.0000
  H   H608      1.0  0.59067  0.15326  0.11401  1.0000
  C   C773      1.0  0.44051  0.16868  0.37268  1.0000
  C   C774      1.0  0.32330  0.14863  0.15355  1.0000
  H   H609      1.0  0.56803  0.19106  0.12286  1.0000
  H   H610      1.0  0.63198  0.18445  0.10067  1.0000
  H   H611      1.0  0.53480  0.26401  0.12035  1.0000
  H   H612      1.0  0.52898  0.27367  0.16896  1.0000
  H   H613      1.0  0.51963  0.24153  0.20148  1.0000
  H   H614      1.0  0.51585  0.19957  0.18505  1.0000
  H   H615      1.0  0.52156  0.18962  0.13646  1.0000
  H   H616      1.0  0.40504  0.11626  0.48144  1.0000
  H   H617      1.0  0.52904  0.23996  0.03527  1.0000
  H   H618      1.0  0.64463  0.18752  0.14912  1.0000
  C   C775      1.0  0.47311  0.20751  0.48987  1.0000
  C   C776      1.0  0.42212  0.18654  0.33260  1.0000
  C   C777      1.0  0.34619  0.02140  0.16603  1.0000
  H   H619      1.0  0.43733  0.21559  0.04917  1.0000
  H   H620      1.0  0.45902  0.17796  0.06061  1.0000
  C   C778      1.0  0.52712  0.16117  0.42222  1.0000
  H   H621      1.0  0.55544  0.26604  0.00983  1.0000
  Fe  Fe55      1.0  0.34817  0.22218  0.01154  1.0000
  C   C779      1.0  0.57558  0.14802  0.07415  1.0000
  C   C780      1.0  0.36205  0.09418  0.18514  1.0000
  C   C781      1.0  0.33399  0.14511  0.35105  1.0000
  H   H622      1.0  0.37488  0.12584  0.20533  1.0000
  H   H623      1.0  0.47113  0.14432  0.45373  1.0000
  C   C782      1.0  0.51980  0.14227  0.37855  1.0000
  H   H624      1.0  0.39646  0.07524  0.06233  1.0000
  H   H625      1.0  0.49001  0.21154  0.40317  1.0000
  H   H626      1.0  0.44959  0.26948  0.43984  1.0000
  C   C783      1.0  0.35890  0.08254  0.11607  1.0000
  H   H627      1.0  0.35763  0.10402  0.16700  1.0000
  H   H628      1.0  0.38422  0.10500  0.24853  1.0000
  C   C784      1.0  0.38945  0.04821  0.09215  1.0000
  H   H629      1.0  0.40129  0.03489  0.08282  1.0000
  C   C785      1.0  0.33786  0.16461  0.13965  1.0000
  H   H630      1.0  0.34747  0.17801  0.15108  1.0000
  C   C786      1.0  0.45210  0.14246  0.45077  1.0000
  C   C787      1.0  0.49553  0.14902  0.38017  1.0000
  C   C788      1.0  0.63652  0.13652  0.36105  1.0000
  H   H631      1.0  0.33379  0.23784  0.08543  1.0000
  C   C789      1.0  0.63703  0.15033  0.38535  1.0000
  C   C790      1.0  0.36144  0.05833  0.21237  1.0000
  H   H632      1.0  0.45701  0.25467  0.05563  1.0000
  C   C791      1.0  0.43111  0.23621  0.43546  1.0000
  C   C792      1.0  0.41313  0.16428  0.32491  1.0000
  S   S100      1.0  0.33131  0.14302  0.06030  1.0000
  H   H633      1.0  0.57737  0.24268  0.10383  1.0000
  C   C793      1.0  0.45076  0.25102  0.43280  1.0000
  H   H634      1.0  0.32289  0.02493  0.24719  1.0000
  C   C794      1.0  0.43274  0.21225  0.42685  1.0000
  H   H635      1.0  0.41737  0.20110  0.42882  1.0000
  H   H636      1.0  0.62078  0.12641  0.35603  1.0000
  C   C795      1.0  0.37196  0.10676  0.20703  1.0000
  C   C796      1.0  0.43993  0.15403  0.42938  1.0000
  C   C797      1.0  0.41498  0.15165  0.42703  1.0000
  Fe  Fe56      1.0  0.58410  0.19956  0.99785  1.0000
  C   C798      1.0  0.36163  0.05990  0.12814  1.0000
  C   C799      1.0  0.37710  0.09505  0.23138  1.0000
  S   S101      1.0  0.32188  0.19293  0.00609  1.0000
  P   P27       1.0  0.34494  0.05320  0.15862  1.0000
  C   C800      1.0  0.40252  0.13786  0.44553  1.0000
  H   H637      1.0  0.59284  0.28088  0.03104  1.0000
  C   C801      1.0  0.53560  0.14840  0.39953  1.0000
  C   C802      1.0  0.64511  0.14818  0.09562  1.0000
  C   C803      1.0  0.48691  0.16194  0.40288  1.0000
  H   H638      1.0  0.53601  0.18601  0.04319  1.0000
  C   C804      1.0  0.32522  0.00790  0.16610  1.0000
  H   H639      1.0  0.34679  0.09594  0.12457  1.0000
  C   C805      1.0  0.47352  0.21803  0.41239  1.0000
  H   H640      1.0  0.38429  0.02048  0.17450  1.0000
  H   H641      1.0  0.37450  0.06213  0.25345  1.0000
  H   H642      1.0  0.58602  0.13175  0.07014  1.0000
  H   H643      1.0  0.33565  0.21609  0.12913  1.0000
  C   C806      1.0  0.38673  0.07089  0.08056  1.0000
  C   C807      1.0  0.51667  0.19886  0.48984  1.0000
  S   S102      1.0  0.60931  0.16638  0.48158  1.0000
  S   S103      1.0  0.32018  0.10418  0.24822  1.0000
  C   C808      1.0  0.37162  0.07090  0.23413  1.0000
  H   H644      1.0  0.49985  0.23098  0.47397  1.0000
  Fe  Fe57      1.0  0.39169  0.18830  0.00008  1.0000
  H   H645      1.0  0.41807  0.20217  0.32037  1.0000
  H   H646      1.0  0.55443  0.14337  0.39817  1.0000
  C   C809      1.0  0.64818  0.17109  0.13786  1.0000
  S   S104      1.0  0.54621  0.20797  0.48070  1.0000
  H   H647      1.0  0.47735  0.15149  0.00450  1.0000
  H   H648      1.0  0.49665  0.17781  0.44161  1.0000
  C   C810      1.0  0.56030  0.15735  0.05414  1.0000
  H   H649      1.0  0.41101  0.12692  0.33483  1.0000
  H   H650      1.0  0.36891  0.10557  0.08337  1.0000
  C   C811      1.0  0.48186  0.16979  0.00018  1.0000
  S   S105      1.0  0.43248  0.17803  0.99965  1.0000
  H   H651      1.0  0.32195  0.20558  0.37095  1.0000
  C   C812      1.0  0.64098  0.16942  0.11037  1.0000
  C   C813      1.0  0.32836  0.09988  0.00628  1.0000
  C   C814      1.0  0.49684  0.21401  0.48364  1.0000
  S   S106      1.0  0.35009  0.26379  0.48514  1.0000
  C   C815      1.0  0.31951  0.22602  0.12355  1.0000
  C   C816      1.0  0.31853  0.23836  0.09903  1.0000
  H   H652      1.0  0.64951  0.20933  0.35974  1.0000
  C   C817      1.0  0.31844  0.98654  0.24231  1.0000
  H   H653      1.0  0.33463  0.31174  0.47372  1.0000
  C   C818      1.0  0.32032  0.30357  0.48479  1.0000
  C   C819      1.0  0.32276  0.27951  0.49259  1.0000
  Fe  Fe58      1.0  0.35894  0.22505  0.49622  1.0000
  Fe  Fe59      1.0  0.35115  0.18431  0.53636  1.0000
  S   S107      1.0  0.37891  0.21297  0.53383  1.0000
  C   C820      1.0  0.35652  0.03203  0.70122  1.0000
  Fe  Fe60      1.0  0.34339  0.18220  0.96913  1.0000
  S   S108      1.0  0.36888  0.21297  0.97324  1.0000
  C   C821      1.0  0.63906  0.23870  0.91204  1.0000
  C   C822      1.0  0.35169  0.01212  0.68478  1.0000
  H   H654      1.0  0.36368  0.99659  0.68502  1.0000
  H   H655      1.0  0.58680  0.28032  0.52788  1.0000
  C   C823      1.0  0.55936  0.25398  0.53111  1.0000
  H   H656      1.0  0.36362  0.14595  0.59357  1.0000
  S   S109      1.0  0.64314  0.26793  0.51418  1.0000
  Fe  Fe61      1.0  0.62926  0.17772  0.51979  1.0000
  S   S110      1.0  0.60560  0.21014  0.52739  1.0000
  H   H657      1.0  0.52885  0.22045  0.68859  1.0000
  Fe  Fe62      1.0  0.63329  0.18696  0.97102  1.0000
  S   S111      1.0  0.61125  0.22142  0.97480  1.0000
  C   C824      1.0  0.33076  0.30534  0.55817  1.0000
  H   H658      1.0  0.57253  0.14936  0.51788  1.0000
  C   C825      1.0  0.35883  0.00665  0.84404  1.0000
  C   C826      1.0  0.47857  0.22580  0.57886  1.0000
  C   C827      1.0  0.32836  0.16057  0.60163  1.0000
  C   C828      1.0  0.54995  0.23580  0.54689  1.0000
  H   H659      1.0  0.57055  0.21317  0.70475  1.0000
  H   H660      1.0  0.36527  0.12152  0.63564  1.0000
  H   H661      1.0  0.53512  0.22574  0.53876  1.0000
  H   H662      1.0  0.32095  0.26229  0.91603  1.0000
  C   C829      1.0  0.31962  0.11270  0.95229  1.0000
  C   C830      1.0  0.36486  0.05364  0.93520  1.0000
  H   H663      1.0  0.33720  0.24361  0.67719  1.0000
  H   H664      1.0  0.33283  0.24120  0.58782  1.0000
  S   S112      1.0  0.36696  0.15690  0.99343  1.0000
  C   C831      1.0  0.34866  0.14636  0.60746  1.0000
  H   H665      1.0  0.34494  0.19852  0.78488  1.0000
  C   C832      1.0  0.42372  0.10970  0.95584  1.0000
  C   C833      1.0  0.38469  0.04351  0.92148  1.0000
  C   C834      1.0  0.34465  0.16798  0.88674  1.0000
  C   C835      1.0  0.34763  0.16149  0.85917  1.0000
  S   S113      1.0  0.33202  0.11491  0.67920  1.0000
  C   C836      1.0  0.53748  0.21458  0.64634  1.0000
  H   H666      1.0  0.35941  0.17540  0.89814  1.0000
  H   H667      1.0  0.36484  0.16371  0.84964  1.0000
  C   C837      1.0  0.46754  0.20404  0.57338  1.0000
  Fe  Fe63      1.0  0.39929  0.18754  0.50562  1.0000
  C   C838      1.0  0.55560  0.20895  0.62747  1.0000
  H   H668      1.0  0.37357  0.99050  0.58314  1.0000
  C   C839      1.0  0.34992  0.09574  0.85039  1.0000
  C   C840      1.0  0.46322  0.18701  0.99649  1.0000
  H   H669      1.0  0.35958  0.00299  0.53737  1.0000
  H   H670      1.0  0.49862  0.23509  0.98490  1.0000
  H   H671      1.0  0.46823  0.24243  0.57762  1.0000
  C   C841      1.0  0.32073  0.05226  0.68419  1.0000
  C   C842      1.0  0.32685  0.00402  0.87677  1.0000
  C   C843      1.0  0.51225  0.17688  0.50215  1.0000
  C   C844      1.0  0.57922  0.20524  0.63683  1.0000
  H   H672      1.0  0.62029  0.16528  0.84853  1.0000
  H   H673      1.0  0.62109  0.17558  0.89782  1.0000
  H   H674      1.0  0.37298  0.01674  0.83487  1.0000
  C   C845      1.0  0.35946  0.09521  0.87670  1.0000
  C   C846      1.0  0.32262  0.16493  0.89943  1.0000
  H   H675      1.0  0.61499  0.03256  0.77114  1.0000
  C   C847      1.0  0.51276  0.19958  0.99299  1.0000
  C   C848      1.0  0.46874  0.18566  0.50246  1.0000
  S   S114      1.0  0.37232  0.15795  0.51068  1.0000
  H   H676      1.0  0.62664  0.22403  0.91148  1.0000
  C   C849      1.0  0.56232  0.17368  0.55024  1.0000
  H   H677      1.0  0.55194  0.25747  0.51109  1.0000
  H   H678      1.0  0.61266  0.26485  0.92561  1.0000
  H   H679      1.0  0.36795  0.25670  0.56428  1.0000
  H   H680      1.0  0.32448  0.21932  0.90286  1.0000
  H   H681      1.0  0.64141  0.29814  0.92764  1.0000
  H   H682      1.0  0.40122  0.16116  0.92828  1.0000
  C   C850      1.0  0.50531  0.18282  0.58096  1.0000
  H   H683      1.0  0.44877  0.20375  0.56760  1.0000
  S   S115      1.0  0.33025  0.19837  0.50047  1.0000
  S   S116      1.0  0.33381  0.14356  0.80944  1.0000
  S   S117      1.0  0.32576  0.17822  0.57189  1.0000
  H   H684      1.0  0.37229  0.03205  0.71414  1.0000
  C   C851      1.0  0.40231  0.14244  0.93396  1.0000
  C   C852      1.0  0.38893  0.01870  0.92162  1.0000
  H   H685      1.0  0.58960  0.12576  0.59853  1.0000
  H   H686      1.0  0.36065  0.10188  0.83364  1.0000
  C   C853      1.0  0.34508  0.01702  0.86491  1.0000
  C   C854      1.0  0.63287  0.01520  0.66967  1.0000
  H   H687      1.0  0.33279  0.04580  0.95776  1.0000
  H   H688      1.0  0.34072  0.00213  0.95837  1.0000
  C   C855      1.0  0.32622  0.08929  0.84569  1.0000
  C   C856      1.0  0.34879  0.03852  0.94809  1.0000
  C   C857      1.0  0.58455  0.20668  0.66458  1.0000
  C   C858      1.0  0.34528  0.08818  0.89856  1.0000
  C   C859      1.0  0.56013  0.23015  0.57230  1.0000
  H   H689      1.0  0.32846  0.99711  0.65456  1.0000
  H   H690      1.0  0.57014  0.16196  0.61763  1.0000
  C   C860      1.0  0.32199  0.04762  0.57046  1.0000
  H   H691      1.0  0.36698  0.13484  0.91940  1.0000
  H   H692      1.0  0.51532  0.16599  0.58131  1.0000
  H   H693      1.0  0.43738  0.14536  0.95198  1.0000
  C   C861      1.0  0.56641  0.21223  0.68321  1.0000
  C   C862      1.0  0.42268  0.13354  0.94741  1.0000
  H   H694      1.0  0.32296  0.26811  0.63858  1.0000
  C   C863      1.0  0.32163  0.08121  0.89361  1.0000
  C   C864      1.0  0.49411  0.21677  0.98920  1.0000
  H   H695      1.0  0.36643  0.29706  0.54394  1.0000
  C   C865      1.0  0.33799  0.09596  0.95830  1.0000
  C   C866      1.0  0.35130  0.29081  0.55536  1.0000
  H   H696      1.0  0.37786  0.10033  0.87982  1.0000
  C   C867      1.0  0.32397  0.07257  0.57123  1.0000
  H   H697      1.0  0.51139  0.24319  0.58898  1.0000
  H   H698      1.0  0.59099  0.11923  0.54867  1.0000
  C   C868      1.0  0.62801  0.04157  0.78375  1.0000
  C   C869      1.0  0.35202  0.26793  0.56654  1.0000
  C   C870      1.0  0.40444  0.09467  0.95072  1.0000
  H   H699      1.0  0.40433  0.01101  0.91110  1.0000
  C   C871      1.0  0.34955  0.13257  0.63136  1.0000
  C   C872      1.0  0.63122  0.26167  0.92000  1.0000
  C   C873      1.0  0.64742  0.28040  0.92111  1.0000
  H   H700      1.0  0.48553  0.15338  0.51793  1.0000
  P   P28       1.0  0.35808  0.08523  0.93210  1.0000
  C   C874      1.0  0.57894  0.26683  0.54055  1.0000
  H   H701      1.0  0.52700  0.16465  0.50653  1.0000
  H   H702      1.0  0.58798  0.23968  0.60115  1.0000
  C   C875      1.0  0.57959  0.24348  0.58184  1.0000
  C   C876      1.0  0.56197  0.17790  0.57839  1.0000
  C   C877      1.0  0.57103  0.15997  0.59580  1.0000
  C   C878      1.0  0.58161  0.13898  0.58508  1.0000
  C   C879      1.0  0.32189  0.23799  0.66530  1.0000
  H   H703      1.0  0.43930  0.10314  0.96694  1.0000
  H   H704      1.0  0.60271  0.20312  0.67169  1.0000
  H   H705      1.0  0.61751  0.02694  0.67354  1.0000
  H   H706      1.0  0.59345  0.20062  0.62268  1.0000
  C   C880      1.0  0.63690  0.16340  0.85980  1.0000
  C   C881      1.0  0.33035  0.13308  0.64980  1.0000
  C   C882      1.0  0.48855  0.17040  0.50838  1.0000
  S   S118      1.0  0.43927  0.17655  0.51184  1.0000
  C   C883      1.0  0.34118  0.05215  0.70069  1.0000
  H   H707      1.0  0.39672  0.05480  0.91041  1.0000
  P   P29       1.0  0.54864  0.20549  0.59168  1.0000
  S   S119      1.0  0.54353  0.20873  0.99071  1.0000
  C   C884      1.0  0.58230  0.13523  0.55700  1.0000
  C   C885      1.0  0.58892  0.26171  0.56598  1.0000
  C   C886      1.0  0.38410  0.10341  0.93675  1.0000
  H   H708      1.0  0.45576  0.22419  0.98809  1.0000
  C   C887      1.0  0.54292  0.21627  0.67409  1.0000
  H   H709      1.0  0.63786  0.19453  0.63894  1.0000
  C   C888      1.0  0.51668  0.20468  0.58574  1.0000
  H   H710      1.0  0.60433  0.27150  0.57297  1.0000
  H   H711      1.0  0.47223  0.16579  0.57004  1.0000
  C   C889      1.0  0.57227  0.15238  0.53963  1.0000
  H   H712      1.0  0.40525  0.07655  0.95831  1.0000
  C   C890      1.0  0.38303  0.12748  0.92883  1.0000
  H   H713      1.0  0.51912  0.21742  0.63979  1.0000
  H   H714      1.0  0.55501  0.18686  0.53635  1.0000
  H   H715      1.0  0.61606  0.07701  0.77190  1.0000
  H   H716      1.0  0.64657  0.09765  0.79963  1.0000
  C   C891      1.0  0.48084  0.18257  0.57473  1.0000
  C   C892      1.0  0.50301  0.22615  0.58522  1.0000
  C   C893      1.0  0.64320  0.17804  0.62870  1.0000
  C   C894      1.0  0.37317  0.00380  0.93505  1.0000
  S   S120      1.0  0.60541  0.16476  0.99169  1.0000
  H   H717      1.0  0.34853  0.03514  0.87184  1.0000
  H   H718      1.0  0.31873  0.09046  0.82533  1.0000
  C   C895      1.0  0.33153  0.01238  0.66776  1.0000
  C   C896      1.0  0.64635  0.15445  0.58686  1.0000
  H   H719      1.0  0.32994  0.32288  0.54890  1.0000
  C   C897      1.0  0.33199  0.25925  0.57987  1.0000
  H   H720      1.0  0.34530  0.06792  0.71274  1.0000
  C   C898      1.0  0.46964  0.21062  0.99095  1.0000
  H   H721      1.0  0.32855  0.03754  0.55300  1.0000
  H   H722      1.0  0.65009  0.98592  0.84900  1.0000
  C   C899      1.0  0.32860  0.15211  0.84385  1.0000
  H   H723      1.0  0.33006  0.20128  0.73755  1.0000
  C   C900      1.0  0.31842  0.20662  0.75419  1.0000
  C   C901      1.0  0.35309  0.01371  0.94822  1.0000
  C   C902      1.0  0.62864  0.06659  0.78407  1.0000
  Fe  Fe64      1.0  0.63205  0.22997  0.50197  1.0000
  C   C903      1.0  0.32686  0.20512  0.78088  1.0000
  C   C904      1.0  0.63729  0.16928  0.88783  1.0000
  S   S121      1.0  0.64164  0.15016  0.55134  1.0000
  H   H724      1.0  0.63130  0.19022  0.58905  1.0000
  C   C905      1.0  0.63960  0.17572  0.60037  1.0000
  H   H725      1.0  0.31880  0.20920  0.82288  1.0000
  H   H726      1.0  0.64950  0.27034  0.58167  1.0000
  H   H727      1.0  0.35735  0.07795  0.99072  1.0000
  C   C906      1.0  0.34246  0.08983  0.98549  1.0000
  C   C907      1.0  0.64457  0.02815  0.79909  1.0000
  C   C908      1.0  0.62975  0.99087  0.66381  1.0000
  H   H728      1.0  0.64401  0.00882  0.79804  1.0000
  H   H729      1.0  0.33200  0.08184  0.55442  1.0000
  C   C909      1.0  0.64596  0.07824  0.79955  1.0000
  H   H730      1.0  0.64198  0.22981  0.56334  1.0000
  C   C910      1.0  0.33569  0.83090  0.13388  1.0000
  C   C911      1.0  0.32476  0.74824  0.34270  1.0000
  H   H731      1.0  0.42600  0.90531  0.06960  1.0000
  Fe  Fe65      1.0  0.63735  0.81642  0.46039  1.0000
  S   S122      1.0  0.62508  0.77832  0.45807  1.0000
  H   H732      1.0  0.34265  0.79647  0.34335  1.0000
  Fe  Fe66      1.0  0.62778  0.80817  0.01219  1.0000
  S   S123      1.0  0.60440  0.77966  0.02841  1.0000
  Fe  Fe67      1.0  0.36779  0.76727  0.48021  1.0000
  C   C912      1.0  0.42220  0.88719  0.06303  1.0000
  C   C913      1.0  0.34204  0.81090  0.11752  1.0000
  S   S124      1.0  0.33315  0.87039  0.23694  1.0000
  H   H733      1.0  0.45189  0.82086  0.43817  1.0000
  C   C914      1.0  0.61122  0.83711  0.19301  1.0000
  Fe  Fe68      1.0  0.35683  0.81105  0.00949  1.0000
  S   S125      1.0  0.36414  0.77188  0.01660  1.0000
  S   S126      1.0  0.34744  0.83966  0.04161  1.0000
  Fe  Fe69      1.0  0.36357  0.81864  0.45988  1.0000
  S   S127      1.0  0.39087  0.78920  0.45255  1.0000
  S   S128      1.0  0.34576  0.84400  0.42894  1.0000
  S   S129      1.0  0.33407  0.82735  0.16976  1.0000
  H   H734      1.0  0.43834  0.73939  0.48022  1.0000
  C   C915      1.0  0.63423  0.72559  0.13565  1.0000
  C   C916      1.0  0.60097  0.86006  0.19717  1.0000
  C   C917      1.0  0.33065  0.85805  0.37788  1.0000
  C   C918      1.0  0.46619  0.76062  0.30686  1.0000
  C   C919      1.0  0.34854  0.68788  0.47005  1.0000
  S   S130      1.0  0.32425  0.82746  0.30186  1.0000
  C   C920      1.0  0.33929  0.74792  0.36593  1.0000
  C   C921      1.0  0.59742  0.86855  0.22387  1.0000
  H   H735      1.0  0.33339  0.87287  0.08398  1.0000
  C   C922      1.0  0.52978  0.78687  0.49515  1.0000
  H   H736      1.0  0.34464  0.79356  0.12686  1.0000
  C   C923      1.0  0.54233  0.92987  0.15735  1.0000
  H   H737      1.0  0.34809  0.95475  0.18903  1.0000
  H   H738      1.0  0.40177  0.89839  0.02792  1.0000
  C   C924      1.0  0.46525  0.74326  0.32708  1.0000
  H   H739      1.0  0.33233  0.75247  0.32312  1.0000
  H   H740      1.0  0.38548  0.97795  0.18830  1.0000
  C   C925      1.0  0.34392  0.81666  0.38103  1.0000
  C   C926      1.0  0.33985  0.83898  0.39366  1.0000
  H   H741      1.0  0.33051  0.86285  0.48425  1.0000
  S   S131      1.0  0.35608  0.73058  0.46423  1.0000
  C   C927      1.0  0.64399  0.81728  0.37683  1.0000
  H   H742      1.0  0.35100  0.80181  0.39280  1.0000
  C   C928      1.0  0.45907  0.77453  0.36127  1.0000
  H   H743      1.0  0.59781  0.74165  0.07075  1.0000
  C   C929      1.0  0.44052  0.76107  0.41576  1.0000
  C   C930      1.0  0.34519  0.81314  0.08921  1.0000
  C   C931      1.0  0.34239  0.83553  0.07695  1.0000
  H   H744      1.0  0.57664  0.73095  0.11296  1.0000
  C   C932      1.0  0.64584  0.81545  0.34825  1.0000
  H   H745      1.0  0.64573  0.87201  0.15358  1.0000
  C   C933      1.0  0.53233  0.79622  0.42679  1.0000
  C   C934      1.0  0.56412  0.91706  0.15580  1.0000
  H   H746      1.0  0.35647  0.70712  0.08158  1.0000
  C   C935      1.0  0.61293  0.83091  0.24165  1.0000
  C   C936      1.0  0.56812  0.89662  0.17172  1.0000
  H   H747      1.0  0.64156  0.74259  0.06983  1.0000
  H   H748      1.0  0.41530  0.80314  0.36343  1.0000
  H   H749      1.0  0.53727  0.82413  0.48968  1.0000
  S   S132      1.0  0.56033  0.77578  0.49423  1.0000
  C   C937      1.0  0.59603  0.73135  0.11279  1.0000
  H   H750      1.0  0.53946  0.94578  0.14519  1.0000
  C   C938      1.0  0.49525  0.81148  0.40704  1.0000
  P   P30       1.0  0.45532  0.78353  0.39632  1.0000
  C   C939      1.0  0.61707  0.82258  0.21516  1.0000
  C   C940      1.0  0.63635  0.91698  0.28099  1.0000
  C   C941      1.0  0.51862  0.81526  0.41628  1.0000
  C   C942      1.0  0.40510  0.84958  0.40726  1.0000
  H   H751      1.0  0.53339  0.75873  0.43649  1.0000
  H   H752      1.0  0.39263  0.86454  0.41043  1.0000
  H   H753      1.0  0.39226  0.85713  0.01360  1.0000
  H   H754      1.0  0.40622  0.71534  0.45921  1.0000
  H   H755      1.0  0.61519  0.88857  0.11407  1.0000
  C   C943      1.0  0.41814  0.81492  0.38069  1.0000
  C   C944      1.0  0.40281  0.83486  0.38429  1.0000
  C   C945      1.0  0.44614  0.75809  0.44335  1.0000
  C   C946      1.0  0.42180  0.74794  0.40419  1.0000
  H   H756      1.0  0.35904  0.67173  0.46609  1.0000
  H   H757      1.0  0.33692  0.72062  0.03866  1.0000
  C   C947      1.0  0.57988  0.84329  0.13511  1.0000
  H   H758      1.0  0.42415  0.85538  0.44488  1.0000
  C   C948      1.0  0.52278  0.77334  0.42789  1.0000
  C   C949      1.0  0.49945  0.76947  0.41863  1.0000
  C   C950      1.0  0.42286  0.84448  0.42659  1.0000
  H   H759      1.0  0.64412  0.72043  0.15372  1.0000
  H   H760      1.0  0.57091  0.83664  0.15286  1.0000
  H   H761      1.0  0.46166  0.73652  0.36971  1.0000
  C   C951      1.0  0.43411  0.74136  0.45884  1.0000
  C   C952      1.0  0.32990  0.83269  0.33718  1.0000
  H   H762      1.0  0.46879  0.75525  0.28583  1.0000
  H   H763      1.0  0.46727  0.72442  0.32173  1.0000
  H   H764      1.0  0.61813  0.81991  0.25883  1.0000
  H   H765      1.0  0.56711  0.81497  0.10895  1.0000
  C   C953      1.0  0.52425  0.92211  0.17446  1.0000
  C   C954      1.0  0.33223  0.85317  0.12150  1.0000
  H   H766      1.0  0.49242  0.75158  0.41953  1.0000
  C   C955      1.0  0.59388  0.86385  0.13701  1.0000
  H   H767      1.0  0.45953  0.81082  0.34611  1.0000
  H   H768      1.0  0.45934  0.76919  0.45306  1.0000
  H   H769      1.0  0.55191  0.87230  0.19996  1.0000
  H   H770      1.0  0.51372  0.89524  0.20285  1.0000
  H   H771      1.0  0.61561  0.83070  0.17275  1.0000
  C   C956      1.0  0.46074  0.79189  0.34097  1.0000
  C   C957      1.0  0.46405  0.78493  0.31383  1.0000
  C   C958      1.0  0.62150  0.89940  0.16931  1.0000
  H   H772      1.0  0.39485  0.72155  0.41114  1.0000
  C   C959      1.0  0.60223  0.86030  0.08867  1.0000
  C   C960      1.0  0.40867  0.88332  0.03951  1.0000
  C   C961      1.0  0.61972  0.92284  0.17993  1.0000
  C   C962      1.0  0.54965  0.88856  0.18833  1.0000
  C   C963      1.0  0.34777  0.97313  0.18197  1.0000
  C   C964      1.0  0.43854  0.82486  0.42275  1.0000
  C   C965      1.0  0.48034  0.80213  0.49481  1.0000
  C   C966      1.0  0.41599  0.72786  0.44701  1.0000
  H   H773      1.0  0.62570  0.80522  0.21175  1.0000
  P   P31       1.0  0.59611  0.88000  0.16894  1.0000
  H   H774      1.0  0.48497  0.82640  0.39876  1.0000
  H   H775      1.0  0.46504  0.79842  0.29822  1.0000
  C   C967      1.0  0.32564  0.85494  0.34987  1.0000
  C   C968      1.0  0.40967  0.73131  0.41978  1.0000
  H   H776      1.0  0.59084  0.88670  0.22758  1.0000
  H   H777      1.0  0.63379  0.80441  0.38794  1.0000
  H   H778      1.0  0.34085  0.74373  0.40919  1.0000
  C   C969      1.0  0.64381  0.89041  0.16047  1.0000
  H   H779      1.0  0.52608  0.83298  0.41550  1.0000
  C   C970      1.0  0.60312  0.85389  0.24601  1.0000
  H   H780      1.0  0.38867  0.83861  0.36963  1.0000
  C   C971      1.0  0.57753  0.83107  0.11026  1.0000
  C   C972      1.0  0.38896  0.76329  0.09067  1.0000
  C   C973      1.0  0.39824  0.74837  0.07015  1.0000
  C   C974      1.0  0.41829  0.75524  0.05564  1.0000
  C   C975      1.0  0.42897  0.77715  0.06136  1.0000
  C   C976      1.0  0.42017  0.79200  0.08245  1.0000
  C   C977      1.0  0.39992  0.78496  0.09692  1.0000
  P   P32       1.0  0.43527  0.81944  0.09102  1.0000
  C   C978      1.0  0.42511  0.84416  0.07028  1.0000
  C   C979      1.0  0.42830  0.82773  0.12576  1.0000
  C   C980      1.0  0.44461  0.82325  0.14702  1.0000
  C   C981      1.0  0.43836  0.82908  0.17387  1.0000
  C   C982      1.0  0.41584  0.83934  0.17963  1.0000
  C   C983      1.0  0.39962  0.84404  0.15855  1.0000
  C   C984      1.0  0.40586  0.83845  0.13172  1.0000
  C   C985      1.0  0.43037  0.86770  0.07840  1.0000
  S   S133      1.0  0.34011  0.79642  0.48576  1.0000
  H   H781      1.0  0.50737  0.93206  0.17566  1.0000
  C   C986      1.0  0.40348  0.85998  0.03128  1.0000
  C   C987      1.0  0.41166  0.84038  0.04655  1.0000
  C   C988      1.0  0.46703  0.81371  0.08615  1.0000
  C   C989      1.0  0.47760  0.79224  0.09561  1.0000
  C   C990      1.0  0.50142  0.78624  0.08934  1.0000
  C   C991      1.0  0.51491  0.80163  0.07363  1.0000
  C   C992      1.0  0.50471  0.82319  0.06456  1.0000
  C   C993      1.0  0.48085  0.82921  0.07064  1.0000
  H   H782      1.0  0.37312  0.75823  0.10165  1.0000
  H   H783      1.0  0.38976  0.73165  0.06508  1.0000
  H   H784      1.0  0.42542  0.74366  0.03967  1.0000
  H   H785      1.0  0.44425  0.78227  0.04944  1.0000
  H   H786      1.0  0.39241  0.79601  0.11301  1.0000
  H   H787      1.0  0.46202  0.81515  0.14305  1.0000
  H   H788      1.0  0.45087  0.82543  0.19028  1.0000
  H   H789      1.0  0.41076  0.84350  0.20043  1.0000
  H   H790      1.0  0.38197  0.85162  0.16303  1.0000
  H   H791      1.0  0.39282  0.84190  0.11571  1.0000
  H   H792      1.0  0.44059  0.87097  0.09678  1.0000
  H   H793      1.0  0.60079  0.86058  0.26661  1.0000
  C   C994      1.0  0.60474  0.87248  0.11347  1.0000
  C   C995      1.0  0.34026  0.71814  0.08232  1.0000
  H   H794      1.0  0.40691  0.82246  0.04015  1.0000
  H   H795      1.0  0.46714  0.77973  0.10702  1.0000
  H   H796      1.0  0.50922  0.76929  0.09589  1.0000
  H   H797      1.0  0.53305  0.79659  0.06774  1.0000
  H   H798      1.0  0.51508  0.83471  0.05174  1.0000
  H   H799      1.0  0.47316  0.84551  0.06231  1.0000
  H   H800      1.0  0.35813  0.75192  0.36438  1.0000
  H   H801      1.0  0.61117  0.86665  0.07067  1.0000
  C   C996      1.0  0.32927  0.72564  0.05820  1.0000
  C   C997      1.0  0.60791  0.73752  0.08905  1.0000
  C   C998      1.0  0.58878  0.83954  0.08707  1.0000
  C   C999      1.0  0.52786  0.90140  0.18984  1.0000
  H   H802      1.0  0.58738  0.82992  0.06786  1.0000
  C   C1000     1.0  0.43659  0.81018  0.39954  1.0000
  H   H803      1.0  0.35005  0.79762  0.07691  1.0000
  C   C1001     1.0  0.64323  0.81223  0.08951  1.0000
  H   H804      1.0  0.63195  0.79948  0.07922  1.0000
  H   H805      1.0  0.32900  0.69103  0.42530  1.0000
  H   H806      1.0  0.33870  0.71885  0.12607  1.0000
  H   H807      1.0  0.59997  0.72038  0.15442  1.0000
  C   C1002     1.0  0.49891  0.81868  0.49206  1.0000
  S   S134      1.0  0.44961  0.81284  0.49473  1.0000
  H   H808      1.0  0.41623  0.75095  0.38338  1.0000
  Fe  Fe70      1.0  0.62418  0.75542  0.99854  1.0000
  S   S135      1.0  0.63989  0.72011  0.01446  1.0000
  H   H809      1.0  0.65050  0.75643  0.38041  1.0000
  S   S136      1.0  0.53855  0.79878  0.00119  1.0000
  C   C1003     1.0  0.33571  0.85546  0.09324  1.0000
  H   H810      1.0  0.60309  0.92982  0.18835  1.0000
  H   H811      1.0  0.62214  0.90760  0.27064  1.0000
  H   H812      1.0  0.55027  0.79919  0.43452  1.0000
  C   C1004     1.0  0.33017  0.72463  0.10736  1.0000
  C   C1005     1.0  0.64740  0.81042  0.11771  1.0000
  C   C1006     1.0  0.46188  0.75017  0.35423  1.0000
  C   C1007     1.0  0.48532  0.78863  0.40865  1.0000
  H   H813      1.0  0.57788  0.92309  0.14216  1.0000
  C   C1008     1.0  0.33910  0.81364  0.35299  1.0000
  Fe  Fe71      1.0  0.40970  0.80150  0.49107  1.0000
  H   H814      1.0  0.63897  0.79633  0.12883  1.0000
  H   H815      1.0  0.62367  0.95200  0.26869  1.0000
  C   C1009     1.0  0.63292  0.73797  0.08861  1.0000
  H   H816      1.0  0.63700  0.80105  0.33761  1.0000
  C   C1010     1.0  0.60918  0.72539  0.13609  1.0000
  H   H817      1.0  0.49434  0.83747  0.48954  1.0000
  H   H818      1.0  0.32742  0.86873  0.13378  1.0000
  H   H819      1.0  0.33743  0.98246  0.24373  1.0000
  H   H820      1.0  0.31861  0.86980  0.33808  1.0000
  H   H821      1.0  0.45017  0.80640  0.00064  1.0000
  C   C1011     1.0  0.64631  0.73219  0.11199  1.0000
  C   C1012     1.0  0.63979  0.93740  0.18035  1.0000
  S   S137      1.0  0.64762  0.83461  0.03950  1.0000
  C   C1013     1.0  0.32943  0.74320  0.39133  1.0000
  C   C1014     1.0  0.33029  0.69994  0.44483  1.0000
  H   H822      1.0  0.32739  0.87540  0.38735  1.0000
  C   C1015     1.0  0.63720  0.94197  0.27993  1.0000
  C   C1016     1.0  0.52338  0.81117  0.49224  1.0000
  S   S138      1.0  0.65138  0.84061  0.42666  1.0000
  Fe  Fe72      1.0  0.59944  0.78903  0.49228  1.0000
  H   H823      1.0  0.63865  0.95534  0.18902  1.0000
  C   C1017     1.0  0.32607  0.98391  0.17407  1.0000
  S   S139      1.0  0.61020  0.82773  0.49236  1.0000
  H   H824      1.0  0.49169  0.82091  0.00655  1.0000
  C   C1018     1.0  0.48894  0.80243  0.00081  1.0000
  H   H825      1.0  0.57856  0.88803  0.49365  1.0000
  S   S140      1.0  0.38338  0.83282  0.49649  1.0000
  C   C1019     1.0  0.46528  0.79425  0.99739  1.0000
  H   H826      1.0  0.63033  0.89563  0.67283  1.0000
  H   H827      1.0  0.44647  0.85953  0.54156  1.0000
  S   S141      1.0  0.38748  0.81488  0.98020  1.0000
  Fe  Fe73      1.0  0.62018  0.79183  0.95255  1.0000
  S   S142      1.0  0.59649  0.76160  0.96553  1.0000
  C   C1020     1.0  0.61713  0.93955  0.73256  1.0000
  Fe  Fe74      1.0  0.63751  0.81647  0.52420  1.0000
  S   S143      1.0  0.62610  0.77809  0.52552  1.0000
  H   H828      1.0  0.44602  0.81836  0.79272  1.0000
  H   H829      1.0  0.65058  0.87506  0.88316  1.0000
  H   H830      1.0  0.51319  0.75957  0.89515  1.0000
  H   H831      1.0  0.45710  0.77713  0.80734  1.0000
  H   H832      1.0  0.62212  0.81626  0.64931  1.0000
  C   C1021     1.0  0.54540  0.88271  0.61529  1.0000
  Fe  Fe75      1.0  0.36172  0.80811  0.52206  1.0000
  S   S144      1.0  0.38850  0.77718  0.51838  1.0000
  C   C1022     1.0  0.46125  0.77035  0.99007  1.0000
  Fe  Fe76      1.0  0.36152  0.80528  0.94676  1.0000
  S   S145      1.0  0.36863  0.76558  0.95017  1.0000
  S   S146      1.0  0.36567  0.82429  0.90606  1.0000
  C   C1023     1.0  0.50502  0.76325  0.98898  1.0000
  C   C1024     1.0  0.33544  0.88873  0.54722  1.0000
  H   H833      1.0  0.61182  0.98389  0.66382  1.0000
  H   H834      1.0  0.58211  0.82095  0.90616  1.0000
  C   C1025     1.0  0.33357  0.84577  0.83542  1.0000
  C   C1026     1.0  0.36662  0.97731  0.56901  1.0000
  C   C1027     1.0  0.47840  0.81675  0.56719  1.0000
  C   C1028     1.0  0.55554  0.85350  0.55622  1.0000
  C   C1029     1.0  0.35686  0.93598  0.55822  1.0000
  C   C1030     1.0  0.58824  0.87048  0.53102  1.0000
  H   H835      1.0  0.34724  0.95515  0.73821  1.0000
  C   C1031     1.0  0.36584  0.95320  0.57643  1.0000
  C   C1032     1.0  0.45593  0.76420  0.91881  1.0000
  C   C1033     1.0  0.62864  0.94779  0.70940  1.0000
  C   C1034     1.0  0.34155  0.88157  0.52061  1.0000
  C   C1035     1.0  0.34337  0.93338  0.80248  1.0000
  C   C1036     1.0  0.61320  0.95243  0.61280  1.0000
  H   H836      1.0  0.58855  0.95897  0.57968  1.0000
  H   H837      1.0  0.54584  0.91686  0.63622  1.0000
  C   C1037     1.0  0.36484  0.91764  0.86488  1.0000
  S   S147      1.0  0.60119  0.81906  0.97946  1.0000
  C   C1038     1.0  0.34993  0.96732  0.52494  1.0000
  C   C1039     1.0  0.51349  0.83537  0.58694  1.0000
  H   H838      1.0  0.61445  0.95143  0.74991  1.0000
  C   C1040     1.0  0.33681  0.90321  0.65876  1.0000
  H   H839      1.0  0.47164  0.85739  0.97908  1.0000
  C   C1041     1.0  0.35567  0.91138  0.79838  1.0000
  C   C1042     1.0  0.35739  0.82420  0.63690  1.0000
  C   C1043     1.0  0.35791  0.82018  0.60849  1.0000
  C   C1044     1.0  0.33763  0.82543  0.59261  1.0000
  C   C1045     1.0  0.36322  0.92177  0.75156  1.0000
  C   C1046     1.0  0.35028  0.70183  0.50119  1.0000
  H   H840      1.0  0.37388  0.81278  0.59894  1.0000
  C   C1047     1.0  0.62571  0.74593  0.79076  1.0000
  C   C1048     1.0  0.34356  0.83038  0.88076  1.0000
  C   C1049     1.0  0.63460  0.82706  0.63836  1.0000
  H   H841      1.0  0.37308  0.81986  0.64901  1.0000
  C   C1050     1.0  0.49620  0.75444  0.90355  1.0000
  H   H842      1.0  0.60876  0.76941  0.76153  1.0000
  H   H843      1.0  0.47039  0.80569  0.55149  1.0000
  H   H844      1.0  0.35685  0.89815  0.81428  1.0000
  H   H845      1.0  0.33184  0.90258  0.68004  1.0000
  C   C1051     1.0  0.57267  0.89237  0.65201  1.0000
  C   C1052     1.0  0.63903  0.81088  0.85657  1.0000
  H   H846      1.0  0.62346  0.81371  0.59879  1.0000
  H   H847      1.0  0.58709  0.91616  0.56555  1.0000
  C   C1053     1.0  0.56305  0.81770  0.90487  1.0000
  C   C1054     1.0  0.45245  0.74000  0.92432  1.0000
  C   C1055     1.0  0.64335  0.78199  0.77384  1.0000
  C   C1056     1.0  0.36168  0.88884  0.62147  1.0000
  C   C1057     1.0  0.63632  0.81593  0.88454  1.0000
  H   H848      1.0  0.49521  0.83106  0.94866  1.0000
  C   C1058     1.0  0.52519  0.82124  0.88070  1.0000
  H   H849      1.0  0.64234  0.79769  0.76103  1.0000
  C   C1059     1.0  0.34887  0.90367  0.60338  1.0000
  C   C1060     1.0  0.56630  0.79721  0.56591  1.0000
  C   C1061     1.0  0.50297  0.82103  0.56672  1.0000
  C   C1062     1.0  0.57207  0.87868  0.51125  1.0000
  C   C1063     1.0  0.35578  0.88883  0.64907  1.0000
  C   C1064     1.0  0.38593  0.89087  0.56157  1.0000
  C   C1065     1.0  0.55806  0.79760  0.61421  1.0000
  C   C1066     1.0  0.54763  0.87438  0.51393  1.0000
  H   H850      1.0  0.57972  0.76367  0.54935  1.0000
  H   H851      1.0  0.46709  0.84599  0.87081  1.0000
  H   H852      1.0  0.40455  0.92400  0.55510  1.0000
  C   C1067     1.0  0.64059  0.83921  0.89397  1.0000
  H   H853      1.0  0.60123  0.90935  0.75185  1.0000
  H   H854      1.0  0.61404  0.97125  0.61788  1.0000
  H   H855      1.0  0.36927  0.84385  0.85253  1.0000
  H   H856      1.0  0.55102  0.80649  0.63224  1.0000
  C   C1068     1.0  0.33553  0.97043  0.84616  1.0000
  C   C1069     1.0  0.64969  0.97545  0.65946  1.0000
  C   C1070     1.0  0.42980  0.86833  0.54773  1.0000
  C   C1071     1.0  0.62443  0.76607  0.77413  1.0000
  H   H857      1.0  0.59842  0.86453  0.66260  1.0000
  H   H858      1.0  0.51888  0.79170  0.94048  1.0000
  H   H859      1.0  0.56193  0.79960  0.94326  1.0000
  H   H860      1.0  0.46824  0.70446  0.92481  1.0000
  H   H861      1.0  0.57916  0.90505  0.66699  1.0000
  C   C1072     1.0  0.35033  0.94331  0.75525  1.0000
  H   H862      1.0  0.53513  0.88054  0.49846  1.0000
  C   C1073     1.0  0.53930  0.86205  0.53649  1.0000
  H   H863      1.0  0.37033  0.91704  0.73172  1.0000
  H   H864      1.0  0.41158  0.83516  0.55338  1.0000
  H   H865      1.0  0.37730  0.92707  0.85228  1.0000
  H   H866      1.0  0.64904  0.94224  0.83933  1.0000
  S   S148      1.0  0.33679  0.82045  0.55675  1.0000
  C   C1074     1.0  0.37373  0.90189  0.88465  1.0000
  P   P33       1.0  0.35686  0.90478  0.56781  1.0000
  H   H867      1.0  0.43124  0.81695  0.90176  1.0000
  H   H868      1.0  0.33921  0.85338  0.81644  1.0000
  H   H869      1.0  0.40813  0.84370  0.93230  1.0000
  H   H870      1.0  0.44149  0.77692  0.92306  1.0000
  C   C1075     1.0  0.54978  0.82552  0.88236  1.0000
  H   H871      1.0  0.46352  0.84767  0.62479  1.0000
  H   H872      1.0  0.61184  0.88566  0.59002  1.0000
  C   C1076     1.0  0.61178  0.90427  0.59658  1.0000
  C   C1077     1.0  0.33671  0.83368  0.64978  1.0000
  H   H873      1.0  0.37496  0.88864  0.76991  1.0000
  H   H874      1.0  0.45120  0.85272  0.82450  1.0000
  C   C1078     1.0  0.38834  0.86576  0.56126  1.0000
  H   H875      1.0  0.37603  0.87704  0.61446  1.0000
  H   H876      1.0  0.47292  0.77004  0.85343  1.0000
  H   H877      1.0  0.51534  0.82738  0.86304  1.0000
  H   H878      1.0  0.43559  0.73450  0.93285  1.0000
  C   C1079     1.0  0.47789  0.77166  0.90845  1.0000
  H   H879      1.0  0.59296  0.85085  0.56797  1.0000
  H   H880      1.0  0.55868  0.83483  0.86619  1.0000
  H   H881      1.0  0.53108  0.88825  0.60163  1.0000
  H   H882      1.0  0.50684  0.85492  0.62464  1.0000
  Fe  Fe77      1.0  0.39352  0.77537  0.98502  1.0000
  C   C1080     1.0  0.40587  0.90464  0.55529  1.0000
  H   H883      1.0  0.58083  0.74321  0.59379  1.0000
  C   C1081     1.0  0.45934  0.79213  0.82123  1.0000
  C   C1082     1.0  0.45312  0.81536  0.81298  1.0000
  C   C1083     1.0  0.45600  0.83471  0.83089  1.0000
  C   C1084     1.0  0.46494  0.83083  0.85713  1.0000
  C   C1085     1.0  0.47084  0.80749  0.86572  1.0000
  C   C1086     1.0  0.46827  0.78818  0.84745  1.0000
  P   P34       1.0  0.48216  0.80268  0.89973  1.0000
  C   C1087     1.0  0.51375  0.80902  0.90163  1.0000
  C   C1088     1.0  0.46513  0.82201  0.92266  1.0000
  C   C1089     1.0  0.47630  0.83373  0.94456  1.0000
  C   C1090     1.0  0.46295  0.84882  0.96194  1.0000
  C   C1091     1.0  0.43841  0.85242  0.95756  1.0000
  C   C1092     1.0  0.42721  0.84108  0.93565  1.0000
  C   C1093     1.0  0.44044  0.82587  0.91834  1.0000
  C   C1094     1.0  0.55174  0.80560  0.92573  1.0000
  H   H884      1.0  0.47301  0.76493  0.50112  1.0000
  C   C1095     1.0  0.61434  0.90023  0.71188  1.0000
  H   H885      1.0  0.36545  0.87705  0.66288  1.0000
  C   C1096     1.0  0.52726  0.80121  0.92412  1.0000
  C   C1097     1.0  0.35423  0.98337  0.83480  1.0000
  H   H886      1.0  0.33354  0.77547  0.84583  1.0000
  C   C1098     1.0  0.47088  0.72309  0.91988  1.0000
  C   C1099     1.0  0.41016  0.85457  0.55440  1.0000
  H   H887      1.0  0.58430  0.83613  0.62798  1.0000
  C   C1100     1.0  0.60966  0.91587  0.73366  1.0000
  H   H888      1.0  0.35891  0.88559  0.51231  1.0000
  C   C1101     1.0  0.62595  0.91106  0.61870  1.0000
  H   H889      1.0  0.37311  0.85483  0.56566  1.0000
  C   C1102     1.0  0.55851  0.80966  0.58931  1.0000
  C   C1103     1.0  0.34905  0.94321  0.53233  1.0000
  H   H890      1.0  0.44292  0.90401  0.54302  1.0000
  C   C1104     1.0  0.35793  0.88942  0.90090  1.0000
  S   S149      1.0  0.64873  0.78362  0.98393  1.0000
  C   C1105     1.0  0.42772  0.89336  0.54840  1.0000
  C   C1106     1.0  0.32214  0.98077  0.86752  1.0000
  C   C1107     1.0  0.34003  0.92073  0.86094  1.0000
  H   H891      1.0  0.37237  0.94796  0.59633  1.0000
  C   C1108     1.0  0.49275  0.73031  0.90948  1.0000
  C   C1109     1.0  0.51122  0.77042  0.49832  1.0000
  C   C1110     1.0  0.55380  0.89900  0.63472  1.0000
  C   C1111     1.0  0.58008  0.85760  0.55318  1.0000
  S   S150      1.0  0.33053  0.80521  0.97545  1.0000
  C   C1112     1.0  0.57425  0.77333  0.56761  1.0000
  H   H892      1.0  0.42800  0.86377  0.97130  1.0000
  C   C1113     1.0  0.34024  0.94902  0.78051  1.0000
  H   H893      1.0  0.34233  0.93037  0.51771  1.0000
  H   H894      1.0  0.33635  0.73734  0.52651  1.0000
  H   H895      1.0  0.52028  0.85929  0.53835  1.0000
  H   H896      1.0  0.60971  0.88152  0.71328  1.0000
  S   S151      1.0  0.43171  0.75854  0.98646  1.0000
  C   C1114     1.0  0.57463  0.76173  0.59262  1.0000
  C   C1115     1.0  0.62664  0.93516  0.62731  1.0000
  C   C1116     1.0  0.46419  0.82647  0.58801  1.0000
  S   S152      1.0  0.33700  0.83837  0.68572  1.0000
  H   H897      1.0  0.60728  0.87344  0.52882  1.0000
  H   H898      1.0  0.56575  0.80563  0.54615  1.0000
  H   H899      1.0  0.31980  0.92989  0.59978  1.0000
  C   C1117     1.0  0.63535  0.82553  0.60967  1.0000
  H   H900      1.0  0.36193  0.69450  0.51677  1.0000
  C   C1118     1.0  0.36586  0.90580  0.77311  1.0000
  H   H901      1.0  0.32947  0.96534  0.78266  1.0000
  H   H902      1.0  0.50710  0.71722  0.90616  1.0000
  H   H903      1.0  0.32976  0.76879  0.89527  1.0000
  C   C1119     1.0  0.58341  0.86957  0.64961  1.0000
  C   C1120     1.0  0.59801  0.92146  0.58277  1.0000
  C   C1121     1.0  0.57510  0.85329  0.63012  1.0000
  C   C1122     1.0  0.35057  0.84032  0.85592  1.0000
  C   C1123     1.0  0.55560  0.85951  0.61329  1.0000
  H   H904      1.0  0.39286  0.89901  0.88713  1.0000
  C   C1124     1.0  0.47454  0.84045  0.60845  1.0000
  P   P35       1.0  0.54549  0.83943  0.58677  1.0000
  H   H905      1.0  0.44520  0.82291  0.58843  1.0000
  H   H906      1.0  0.47860  0.73641  0.98045  1.0000
  C   C1125     1.0  0.49914  0.84474  0.60809  1.0000
  Fe  Fe78      1.0  0.33887  0.76579  0.98124  1.0000
  H   H907      1.0  0.51380  0.81294  0.55069  1.0000
  C   C1126     1.0  0.56651  0.77385  0.61593  1.0000
  C   C1127     1.0  0.33459  0.72811  0.50718  1.0000
  H   H908      1.0  0.52012  0.75111  0.98561  1.0000
  H   H909      1.0  0.56637  0.76471  0.63523  1.0000
  S   S153      1.0  0.62793  0.79245  0.90665  1.0000
  H   H910      1.0  0.63849  0.84347  0.91534  1.0000
  C   C1128     1.0  0.64581  0.74181  0.80728  1.0000
  H   H911      1.0  0.63534  0.79317  0.84879  1.0000
  H   H912      1.0  0.63693  0.89746  0.62847  1.0000
  C   C1129     1.0  0.62610  0.90836  0.68882  1.0000
  C   C1130     1.0  0.63265  0.93242  0.68691  1.0000
  C   C1131     1.0  0.59881  0.94554  0.59080  1.0000
  H   H913      1.0  0.61102  0.73359  0.79102  1.0000
  C   C1132     1.0  0.32999  0.91836  0.61336  1.0000
  H   H914      1.0  0.36476  0.87676  0.91578  1.0000
  H   H915      1.0  0.64645  0.72605  0.81993  1.0000
  Fe  Fe79      1.0  0.57865  0.78851  0.99407  1.0000
  H   H916      1.0  0.36524  0.97564  0.81879  1.0000
  H   H917      1.0  0.63468  0.96605  0.70955  1.0000
  C   C1133     1.0  0.33324  0.89293  0.89768  1.0000
  C   C1134     1.0  0.65075  0.85186  0.84782  1.0000
  C   C1135     1.0  0.64650  0.82860  0.83841  1.0000
  P   P36       1.0  0.64567  0.94338  0.65583  1.0000
  C   C1136     1.0  0.64754  0.85708  0.87566  1.0000
  H   H918      1.0  0.37640  0.98456  0.93504  1.0000
  C   C1137     1.0  0.48135  0.75495  0.98602  1.0000
  H   H919      1.0  0.32744  0.69977  0.97927  1.0000
  P   P37       1.0  0.32903  0.94044  0.83447  1.0000
  H   H920      1.0  0.51577  0.75161  0.50073  1.0000
  S   S154      1.0  0.64576  0.84586  0.68883  1.0000
  H   H921      1.0  0.63866  0.73505  0.90706  1.0000
  C   C1138     1.0  0.48681  0.77793  0.49831  1.0000
  H   H922      1.0  0.34394  0.97276  0.50488  1.0000
  C   C1139     1.0  0.64949  0.84275  0.65295  1.0000
  C   C1140     1.0  0.32395  0.91802  0.64093  1.0000
  C   C1141     1.0  0.32547  0.86871  0.50457  1.0000
  S   S155      1.0  0.65084  0.84092  0.55892  1.0000
  C   C1142     1.0  0.65086  0.83994  0.59516  1.0000
  C   C1143     1.0  0.35870  0.98436  0.54325  1.0000
  C   C1144     1.0  0.31931  0.82607  0.88495  1.0000
  H   H923      1.0  0.64857  0.82439  0.81704  1.0000
  C   C1145     1.0  0.32428  0.90875  0.87803  1.0000
  H   H924      1.0  0.65054  0.75771  0.86702  1.0000
  H   H925      1.0  0.32105  0.88299  0.91013  1.0000
  C   C1146     1.0  0.50905  0.78708  0.99659  1.0000
  Fe  Fe80      1.0  0.70746  0.08151  0.23775  1.0000
  H   H926      1.0  0.70955  0.23532  0.45907  1.0000
  S   S156      1.0  0.72004  0.04237  0.22861  1.0000
  Fe  Fe81      1.0  0.73071  0.12969  0.25406  1.0000
  S   S157      1.0  0.69491  0.14883  0.25592  1.0000
  S   S158      1.0  0.76551  0.14767  0.26776  1.0000
  Fe  Fe82      1.0  0.68130  0.11654  0.27705  1.0000
  C   C1147     1.0  0.86813  0.42363  0.47373  1.0000
  Fe  Fe83      1.0  0.68668  0.12969  0.21632  1.0000
  H   H927      1.0  0.70240  0.33155  0.14140  1.0000
  S   S159      1.0  0.71762  0.09823  0.27809  1.0000
  S   S160      1.0  0.72335  0.11191  0.21373  1.0000
  C   C1148     1.0  0.74230  0.27331  0.07592  1.0000
  H   H928      1.0  0.86547  0.46216  0.00611  1.0000
  C   C1149     1.0  0.69449  0.28544  0.11450  1.0000
  C   C1150     1.0  0.79853  0.25325  0.46119  1.0000
  H   H929      1.0  0.75642  0.16055  0.02698  1.0000
  H   H930      1.0  0.72854  0.31755  0.17867  1.0000
  C   C1151     1.0  0.71351  0.27036  0.15546  1.0000
  C   C1152     1.0  0.70406  0.34235  0.15972  1.0000
  Fe  Fe84      1.0  0.79778  0.35081  0.03261  1.0000
  S   S161      1.0  0.81310  0.32647  0.06603  1.0000
  Fe  Fe85      1.0  0.81178  0.36260  0.47447  1.0000
  S   S162      1.0  0.83865  0.35557  0.43992  1.0000
  S   S163      1.0  0.76122  0.36881  0.03157  1.0000
  S   S164      1.0  0.77232  0.37051  0.47073  1.0000
  Fe  Fe86      1.0  0.89583  0.29193  0.25508  1.0000
  S   S165      1.0  0.87545  0.32739  0.25885  1.0000
  S   S166      1.0  0.93706  0.29633  0.25567  1.0000
  Fe  Fe87      1.0  0.84913  0.26494  0.24182  1.0000
  S   S167      1.0  0.82714  0.29893  0.24491  1.0000
  S   S168      1.0  0.82694  0.23448  0.22345  1.0000
  Fe  Fe88      1.0  0.85580  0.31611  0.22091  1.0000
  S   S169      1.0  0.84665  0.34429  0.18883  1.0000
  Fe  Fe89      1.0  0.84822  0.30746  0.28279  1.0000
  S   S170      1.0  0.82304  0.32333  0.31572  1.0000
  S   S171      1.0  0.87725  0.28197  0.21564  1.0000
  S   S172      1.0  0.86914  0.27215  0.28127  1.0000
  H   H931      1.0  0.94110  0.26810  0.18051  1.0000
  C   C1153     1.0  0.96823  0.28821  0.26008  1.0000
  Fe  Fe90      1.0  0.77860  0.39661  0.00474  1.0000
  H   H932      1.0  0.66579  0.22659  0.07023  1.0000
  H   H933      1.0  0.96247  0.25393  0.27813  1.0000
  C   C1154     1.0  0.82320  0.33226  0.09975  1.0000
  C   C1155     1.0  0.82302  0.35529  0.11129  1.0000
  C   C1156     1.0  0.83049  0.35867  0.13850  1.0000
  C   C1157     1.0  0.83799  0.33909  0.15451  1.0000
  C   C1158     1.0  0.83847  0.31612  0.14286  1.0000
  C   C1159     1.0  0.83141  0.31283  0.11555  1.0000
  H   H934      1.0  0.81698  0.37043  0.09932  1.0000
  H   H935      1.0  0.83023  0.37654  0.14727  1.0000
  H   H936      1.0  0.84453  0.30096  0.15480  1.0000
  H   H937      1.0  0.83241  0.29509  0.10652  1.0000
  C   C1160     1.0  0.83366  0.34568  0.40582  1.0000
  C   C1161     1.0  0.81080  0.34548  0.39400  1.0000
  C   C1162     1.0  0.80793  0.33844  0.36652  1.0000
  C   C1163     1.0  0.82778  0.33127  0.35054  1.0000
  C   C1164     1.0  0.85055  0.33104  0.36251  1.0000
  C   C1165     1.0  0.85344  0.33828  0.38992  1.0000
  H   H938      1.0  0.79539  0.35101  0.40594  1.0000
  H   H939      1.0  0.79020  0.33861  0.35758  1.0000
  H   H940      1.0  0.86599  0.32555  0.35060  1.0000
  H   H941      1.0  0.87119  0.33833  0.39882  1.0000
  H   H942      1.0  0.82474  0.35730  0.25888  1.0000
  C   C1166     1.0  0.71895  0.33450  0.18092  1.0000
  C   C1167     1.0  0.95609  0.31167  0.16243  1.0000
  H   H943      1.0  0.76685  0.19991  0.15098  1.0000
  C   C1168     1.0  0.67170  0.23479  0.38044  1.0000
  S   S173      1.0  0.67021  0.09834  0.23764  1.0000
  C   C1169     1.0  0.73836  0.31554  0.37299  1.0000
  C   C1170     1.0  0.78952  0.26095  0.12583  1.0000
  C   C1171     1.0  0.76004  0.28203  0.05879  1.0000
  C   C1172     1.0  0.87651  0.47927  0.41535  1.0000
  C   C1173     1.0  0.69317  0.24714  0.37996  1.0000
  H   H944      1.0  0.71521  0.29585  0.24426  1.0000
  H   H945      1.0  0.69163  0.14795  0.33682  1.0000
  C   C1174     1.0  0.83090  0.29077  0.46036  1.0000
  C   C1175     1.0  0.97337  0.22796  0.21783  1.0000
  C   C1176     1.0  0.78189  0.17227  0.25539  1.0000
  C   C1177     1.0  0.79919  0.18293  0.27231  1.0000
  C   C1178     1.0  0.81271  0.20239  0.26330  1.0000
  C   C1179     1.0  0.80948  0.21107  0.23693  1.0000
  C   C1180     1.0  0.79233  0.20026  0.22000  1.0000
  C   C1181     1.0  0.77839  0.18124  0.22921  1.0000
  H   H946      1.0  0.80226  0.17594  0.29246  1.0000
  H   H947      1.0  0.82604  0.21023  0.27647  1.0000
  H   H948      1.0  0.78984  0.20661  0.19955  1.0000
  H   H949      1.0  0.76536  0.17310  0.21588  1.0000
  C   C1182     1.0  0.79942  0.26817  0.43843  1.0000
  S   S174      1.0  0.81558  0.37919  0.00795  1.0000
  H   H950      1.0  0.71102  0.25123  0.07774  1.0000
  H   H951      1.0  0.90028  0.46027  0.47559  1.0000
  H   H952      1.0  0.67173  0.13966  0.00966  1.0000
  C   C1183     1.0  0.98483  0.26054  0.12178  1.0000
  H   H953      1.0  0.73001  0.31833  0.35338  1.0000
  C   C1184     1.0  0.72367  0.25397  0.03695  1.0000
  S   S175      1.0  0.67037  0.15589  0.18496  1.0000
  C   C1185     1.0  0.68105  0.21698  0.33653  1.0000
  C   C1186     1.0  0.70916  0.01234  0.22946  1.0000
  C   C1187     1.0  0.75922  0.27721  0.03086  1.0000
  C   C1188     1.0  0.68510  0.00716  0.23416  1.0000
  C   C1189     1.0  0.78251  0.21445  0.07110  1.0000
  C   C1190     1.0  0.80361  0.20098  0.07505  1.0000
  C   C1191     1.0  0.80255  0.17637  0.07989  1.0000
  C   C1192     1.0  0.78037  0.16528  0.08111  1.0000
  C   C1193     1.0  0.75905  0.17889  0.07817  1.0000
  C   C1194     1.0  0.76032  0.20342  0.07253  1.0000
  P   P38       1.0  0.73032  0.16474  0.07922  1.0000
  C   C1195     1.0  0.70862  0.18658  0.09216  1.0000
  C   C1196     1.0  0.72163  0.15558  0.04522  1.0000
  C   C1197     1.0  0.73794  0.15594  0.02357  1.0000
  C   C1198     1.0  0.69631  0.31071  0.02094  1.0000
  C   C1199     1.0  0.89668  0.47141  0.45813  1.0000
  C   C1200     1.0  0.82394  0.47052  0.36203  1.0000
  C   C1201     1.0  0.69785  0.14941  0.03993  1.0000
  C   C1202     1.0  0.70633  0.19068  0.12027  1.0000
  C   C1203     1.0  0.68998  0.20797  0.13016  1.0000
  C   C1204     1.0  0.67741  0.21687  0.08421  1.0000
  C   C1205     1.0  0.69425  0.20015  0.07419  1.0000
  C   C1206     1.0  0.73149  0.13966  0.10235  1.0000
  C   C1207     1.0  0.74521  0.14098  0.12636  1.0000
  C   C1208     1.0  0.74552  0.12208  0.14480  1.0000
  C   C1209     1.0  0.73211  0.10172  0.13953  1.0000
  C   C1210     1.0  0.71850  0.10018  0.11571  1.0000
  C   C1211     1.0  0.71816  0.11903  0.09718  1.0000
  H   H954      1.0  0.78333  0.23349  0.06713  1.0000
  H   H955      1.0  0.82079  0.20960  0.07425  1.0000
  C   C1212     1.0  0.72543  0.99297  0.22517  1.0000
  H   H956      1.0  0.77987  0.14612  0.08442  1.0000
  H   H957      1.0  0.74418  0.21403  0.06931  1.0000
  H   H958      1.0  0.95450  0.31333  0.11839  1.0000
  C   C1213     1.0  0.72232  0.23140  0.44306  1.0000
  C   C1214     1.0  0.81590  0.28677  0.43804  1.0000
  H   H959      1.0  0.67225  0.02172  0.23731  1.0000
  H   H960      1.0  0.68496  0.14931  0.05626  1.0000
  H   H961      1.0  0.71672  0.18031  0.13474  1.0000
  H   H962      1.0  0.69572  0.19774  0.05242  1.0000
  H   H963      1.0  0.75537  0.15677  0.13113  1.0000
  H   H964      1.0  0.75585  0.12332  0.16347  1.0000
  H   H965      1.0  0.73200  0.08725  0.15411  1.0000
  H   H966      1.0  0.70778  0.08454  0.11188  1.0000
  H   H967      1.0  0.70710  0.11745  0.07922  1.0000
  C   C1215     1.0  0.65617  0.13577  0.34318  1.0000
  H   H968      1.0  0.67183  0.30149  0.05287  1.0000
  C   C1216     1.0  0.70241  0.22977  0.33556  1.0000
  C   C1217     1.0  0.70869  0.24426  0.35788  1.0000
  P   P39       1.0  0.72360  0.22373  0.30860  1.0000
  C   C1218     1.0  0.74031  0.19757  0.31973  1.0000
  C   C1219     1.0  0.70889  0.21808  0.27653  1.0000
  C   C1220     1.0  0.68644  0.22870  0.27059  1.0000
  S   S176      1.0  0.65322  0.19410  0.01022  1.0000
  C   C1221     1.0  0.97573  0.26634  0.27137  1.0000
  H   H969      1.0  0.76259  0.45729  0.43862  1.0000
  C   C1222     1.0  0.76285  0.19963  0.33224  1.0000
  C   C1223     1.0  0.77483  0.17930  0.34241  1.0000
  C   C1224     1.0  0.76429  0.15687  0.34039  1.0000
  C   C1225     1.0  0.74176  0.15479  0.32829  1.0000
  C   C1226     1.0  0.72986  0.17504  0.31788  1.0000
  C   C1227     1.0  0.74333  0.24798  0.30154  1.0000
  C   C1228     1.0  0.73675  0.27186  0.30768  1.0000
  C   C1229     1.0  0.75256  0.29028  0.30225  1.0000
  C   C1230     1.0  0.77459  0.28505  0.28998  1.0000
  C   C1231     1.0  0.78070  0.26149  0.28258  1.0000
  C   C1232     1.0  0.76503  0.24306  0.28809  1.0000
  H   H970      1.0  0.65322  0.27688  0.16392  1.0000
  H   H971      1.0  0.72590  0.25262  0.35874  1.0000
  C   C1233     1.0  0.81365  0.25725  0.48346  1.0000
  H   H972      1.0  0.75543  0.28219  0.36118  1.0000
  C   C1234     1.0  0.82111  0.47550  0.05115  1.0000
  H   H973      1.0  0.77122  0.21684  0.33431  1.0000
  H   H974      1.0  0.79242  0.18081  0.35150  1.0000
  H   H975      1.0  0.77375  0.14099  0.34761  1.0000
  H   H976      1.0  0.73388  0.13729  0.32603  1.0000
  H   H977      1.0  0.71259  0.17306  0.30813  1.0000
  H   H978      1.0  0.71955  0.27626  0.31668  1.0000
  H   H979      1.0  0.74788  0.30862  0.30760  1.0000
  H   H980      1.0  0.78691  0.29923  0.28599  1.0000
  H   H981      1.0  0.79755  0.25748  0.27242  1.0000
  H   H982      1.0  0.76986  0.22493  0.28187  1.0000
  C   C1235     1.0  0.73656  0.26618  0.22981  1.0000
  C   C1236     1.0  0.75792  0.25866  0.21745  1.0000
  C   C1237     1.0  0.77453  0.27554  0.20965  1.0000
  C   C1238     1.0  0.76987  0.29998  0.21433  1.0000
  C   C1239     1.0  0.74864  0.30771  0.22732  1.0000
  C   C1240     1.0  0.73188  0.29057  0.23470  1.0000
  P   P40       1.0  0.74170  0.33939  0.23145  1.0000
  C   C1241     1.0  0.76909  0.35605  0.22993  1.0000
  C   C1242     1.0  0.78844  0.34992  0.24704  1.0000
  C   C1243     1.0  0.80980  0.36237  0.24581  1.0000
  C   C1244     1.0  0.81225  0.38076  0.22708  1.0000
  C   C1245     1.0  0.79328  0.38677  0.20963  1.0000
  C   C1246     1.0  0.77173  0.37456  0.21107  1.0000
  C   C1247     1.0  0.72161  0.34868  0.20445  1.0000
  C   C1248     1.0  0.69161  0.36429  0.16191  1.0000
  C   C1249     1.0  0.69400  0.37841  0.18537  1.0000
  C   C1250     1.0  0.70896  0.37066  0.20658  1.0000
  H   H983      1.0  0.72375  0.25303  0.23587  1.0000
  H   H984      1.0  0.76171  0.23974  0.21412  1.0000
  H   H985      1.0  0.79124  0.26962  0.20025  1.0000
  H   H986      1.0  0.78296  0.31269  0.20776  1.0000
  H   H987      1.0  0.78715  0.33538  0.26128  1.0000
  H   H988      1.0  0.77255  0.28455  0.01764  1.0000
  H   H989      1.0  0.82921  0.38969  0.22540  1.0000
  H   H990      1.0  0.79554  0.40058  0.19460  1.0000
  H   H991      1.0  0.75752  0.37936  0.19703  1.0000
  H   H992      1.0  0.75731  0.35938  0.28514  1.0000
  C   C1251     1.0  0.72066  0.20425  0.25650  1.0000
  H   H993      1.0  0.71092  0.38196  0.22448  1.0000
  H   H994      1.0  0.74404  0.99662  0.22129  1.0000
  H   H995      1.0  0.71864  0.18890  0.21618  1.0000
  C   C1252     1.0  0.66567  0.21973  0.35873  1.0000
  H   H996      1.0  0.81547  0.45345  0.36499  1.0000
  C   C1253     1.0  0.66018  0.15185  0.15082  1.0000
  H   H997      1.0  0.69426  0.03922  0.28849  1.0000
  C   C1254     1.0  0.70988  0.20049  0.23113  1.0000
  H   H998      1.0  0.69815  0.25818  0.39725  1.0000
  C   C1255     1.0  0.92335  0.32985  0.13644  1.0000
  C   C1256     1.0  0.67698  0.16256  0.37429  1.0000
  H   H999      1.0  0.93572  0.23309  0.20947  1.0000
  C   C1257     1.0  0.86467  0.39524  0.37216  1.0000
  C   C1258     1.0  0.88858  0.38737  0.37128  1.0000
  C   C1259     1.0  0.90472  0.39513  0.39112  1.0000
  C   C1260     1.0  0.89688  0.41051  0.41207  1.0000
  C   C1261     1.0  0.87276  0.41808  0.41348  1.0000
  C   C1262     1.0  0.85679  0.41068  0.39301  1.0000
  P   P41       1.0  0.86312  0.43757  0.44115  1.0000
  H   H1000     1.0  0.72225  0.17853  0.47762  1.0000
  C   C1263     1.0  0.87992  0.46474  0.43821  1.0000
  H   H1001     1.0  0.66190  0.23346  0.11979  1.0000
  C   C1264     1.0  0.69032  0.14400  0.01349  1.0000
  C   C1265     1.0  0.85479  0.47251  0.02051  1.0000
  H   H1002     1.0  0.74213  0.26350  0.45000  1.0000
  H   H1003     1.0  0.73793  0.19591  0.26071  1.0000
  C   C1266     1.0  0.67820  0.29697  0.03273  1.0000
  H   H1004     1.0  0.69277  0.17261  0.37921  1.0000
  C   C1267     1.0  0.68712  0.21026  0.22573  1.0000
  C   C1268     1.0  0.83130  0.44411  0.43942  1.0000
  C   C1269     1.0  0.81513  0.42521  0.43904  1.0000
  C   C1270     1.0  0.79047  0.43001  0.43788  1.0000
  H   H1005     1.0  0.85209  0.38880  0.35704  1.0000
  H   H1006     1.0  0.89449  0.37500  0.35539  1.0000
  H   H1007     1.0  0.92324  0.38894  0.39044  1.0000
  H   H1008     1.0  0.90953  0.41619  0.42748  1.0000
  H   H1009     1.0  0.83820  0.41637  0.39312  1.0000
  H   H1010     1.0  0.68442  0.39549  0.18699  1.0000
  C   C1271     1.0  0.66804  0.27767  0.01843  1.0000
  C   C1272     1.0  0.65731  0.16349  0.39208  1.0000
  C   C1273     1.0  0.69121  0.27002  0.16823  1.0000
  C   C1274     1.0  0.79751  0.22206  0.14569  1.0000
  C   C1275     1.0  0.84444  0.47174  0.34600  1.0000
  H   H1011     1.0  0.87843  0.38852  0.45759  1.0000
  H   H1012     1.0  0.82159  0.40675  0.43993  1.0000
  H   H1013     1.0  0.77805  0.41541  0.43823  1.0000
  C   C1276     1.0  0.82582  0.22306  0.36217  1.0000
  C   C1277     1.0  0.83013  0.23786  0.34011  1.0000
  C   C1278     1.0  0.81987  0.26090  0.33941  1.0000
  C   C1279     1.0  0.80487  0.26904  0.36041  1.0000
  C   C1280     1.0  0.79943  0.25383  0.38199  1.0000
  C   C1281     1.0  0.81080  0.23112  0.38321  1.0000
  P   P42       1.0  0.78005  0.26371  0.40952  1.0000
  C   C1282     1.0  0.76370  0.29136  0.40285  1.0000
  C   C1283     1.0  0.75702  0.24241  0.41667  1.0000
  C   C1284     1.0  0.74073  0.24728  0.43778  1.0000
  H   H1014     1.0  0.70551  0.19853  0.43116  1.0000
  C   C1285     1.0  0.71995  0.21065  0.42724  1.0000
  C   C1286     1.0  0.73584  0.20583  0.40596  1.0000
  C   C1287     1.0  0.75421  0.22168  0.40062  1.0000
  C   C1288     1.0  0.75283  0.29514  0.37744  1.0000
  C   C1289     1.0  0.73432  0.33213  0.39406  1.0000
  C   C1290     1.0  0.74469  0.32825  0.41957  1.0000
  C   C1291     1.0  0.75935  0.30802  0.42399  1.0000
  C   C1292     1.0  0.95358  0.23947  0.20583  1.0000
  H   H1015     1.0  0.68023  0.37042  0.14534  1.0000
  C   C1293     1.0  0.71523  0.27752  0.12827  1.0000
  H   H1016     1.0  0.81696  0.29838  0.42059  1.0000
  H   H1017     1.0  0.83436  0.20544  0.36308  1.0000
  H   H1018     1.0  0.84188  0.23174  0.32384  1.0000
  H   H1019     1.0  0.82391  0.27265  0.32274  1.0000
  H   H1020     1.0  0.79806  0.28732  0.35981  1.0000
  H   H1021     1.0  0.80801  0.21961  0.40045  1.0000
  H   H1022     1.0  0.81894  0.16587  0.08267  1.0000
  H   H1023     1.0  0.70930  0.24348  0.02839  1.0000
  C   C1294     1.0  0.67639  0.14881  0.35007  1.0000
  H   H1024     1.0  0.73359  0.18998  0.39332  1.0000
  H   H1025     1.0  0.76583  0.21781  0.38373  1.0000
  H   H1026     1.0  0.72290  0.34781  0.39085  1.0000
  H   H1027     1.0  0.74103  0.34068  0.43621  1.0000
  H   H1028     1.0  0.76671  0.30521  0.44417  1.0000
  H   H1029     1.0  0.78623  0.23858  0.46189  1.0000
  C   C1295     1.0  0.78173  0.45367  0.43789  1.0000
  H   H1030     1.0  0.83013  0.44397  0.02746  1.0000
  C   C1296     1.0  0.75378  0.30888  0.11886  1.0000
  C   C1297     1.0  0.76729  0.31405  0.14226  1.0000
  C   C1298     1.0  0.77390  0.33756  0.14810  1.0000
  C   C1299     1.0  0.76687  0.35613  0.13076  1.0000
  C   C1300     1.0  0.75322  0.35119  0.10757  1.0000
  C   C1301     1.0  0.74658  0.32767  0.10167  1.0000
  C   C1302     1.0  0.69039  0.34344  0.29075  1.0000
  H   H1031     1.0  0.77440  0.29276  0.06690  1.0000
  H   H1032     1.0  0.77291  0.29995  0.15594  1.0000
  H   H1033     1.0  0.78512  0.34131  0.16562  1.0000
  H   H1034     1.0  0.77261  0.37423  0.13487  1.0000
  H   H1035     1.0  0.74821  0.36553  0.09383  1.0000
  H   H1036     1.0  0.73605  0.32420  0.08354  1.0000
  H   H1037     1.0  0.72940  0.26519  0.16687  1.0000
  C   C1303     1.0  0.72666  0.34484  0.26360  1.0000
  H   H1038     1.0  0.68782  0.21042  0.15189  1.0000
  C   C1304     1.0  0.67534  0.22087  0.11214  1.0000
  H   H1039     1.0  0.82462  0.24790  0.13777  1.0000
  C   C1305     1.0  0.91127  0.33563  0.16053  1.0000
  C   C1306     1.0  0.75688  0.23409  0.13363  1.0000
  C   C1307     1.0  0.69029  0.02767  0.30544  1.0000
  C   C1308     1.0  0.82234  0.46784  0.44010  1.0000
  P   P43       1.0  0.74410  0.27875  0.11207  1.0000
  H   H1040     1.0  0.97089  0.21269  0.23084  1.0000
  C   C1309     1.0  0.73873  0.35459  0.28618  1.0000
  C   C1310     1.0  0.82972  0.27610  0.48312  1.0000
  C   C1311     1.0  0.67914  0.03718  0.32864  1.0000
  H   H1041     1.0  0.89378  0.34450  0.15986  1.0000
  H   H1042     1.0  0.67722  0.23987  0.28551  1.0000
  H   H1043     1.0  0.69234  0.33266  0.24884  1.0000
  S   S177      1.0  0.65910  0.18187  0.42189  1.0000
  C   C1312     1.0  0.87579  0.39953  0.47562  1.0000
  H   H1044     1.0  0.70379  0.32566  0.03199  1.0000
  C   C1313     1.0  0.72444  0.25878  0.06488  1.0000
  C   C1314     1.0  0.70227  0.33961  0.26606  1.0000
  H   H1045     1.0  0.70471  0.99617  0.28567  1.0000
  H   H1046     1.0  0.67826  0.20614  0.20662  1.0000
  H   H1047     1.0  0.69972  0.14158  0.48563  1.0000
  H   H1048     1.0  0.67322  0.11553  0.14579  1.0000
  H   H1049     1.0  0.69339  0.35586  0.33223  1.0000
  H   H1050     1.0  0.83422  0.48270  0.44246  1.0000
  C   C1315     1.0  0.72678  0.35843  0.31082  1.0000
  H   H1051     1.0  0.73629  0.36588  0.32812  1.0000
  H   H1052     1.0  0.67158  0.33932  0.29248  1.0000
  C   C1316     1.0  0.76492  0.25645  0.12515  1.0000
  H   H1053     1.0  0.73812  0.22984  0.13217  1.0000
  H   H1054     1.0  0.79615  0.27766  0.11830  1.0000
  H   H1055     1.0  0.85181  0.45564  0.33636  1.0000
  H   H1056     1.0  0.81011  0.20903  0.15421  1.0000
  H   H1057     1.0  0.65622  0.29079  0.11627  1.0000
  C   C1317     1.0  0.74091  0.26344  0.01990  1.0000
  P   P44       1.0  0.98388  0.29434  0.16420  1.0000
  C   C1318     1.0  0.70265  0.35278  0.31315  1.0000
  C   C1319     1.0  0.77313  0.21701  0.14404  1.0000
  C   C1320     1.0  0.80571  0.24398  0.13647  1.0000
  H   H1058     1.0  0.69549  0.29197  0.09389  1.0000
  C   C1321     1.0  0.94570  0.31793  0.13732  1.0000
  C   C1322     1.0  0.68000  0.99767  0.34892  1.0000
  H   H1059     1.0  0.91221  0.33397  0.20428  1.0000
  H   H1060     1.0  0.95164  0.31320  0.20593  1.0000
  H   H1061     1.0  0.67659  0.20421  0.32064  1.0000
  C   C1323     1.0  0.92165  0.32975  0.18554  1.0000
  C   C1324     1.0  0.67220  0.28509  0.12729  1.0000
  C   C1325     1.0  0.94399  0.31796  0.18646  1.0000
  H   H1062     1.0  0.91517  0.33434  0.11708  1.0000
  C   C1326     1.0  0.67054  0.27728  0.15411  1.0000
  C   C1327     1.0  0.79764  0.47258  0.43923  1.0000
  H   H1063     1.0  0.67575  0.98635  0.36585  1.0000
  H   H1064     1.0  0.68996  0.26411  0.18907  1.0000
  H   H1065     1.0  0.80550  0.46754  0.06010  1.0000
  C   C1328     1.0  0.67547  0.22451  0.24538  1.0000
  H   H1066     1.0  0.85638  0.45507  0.49665  1.0000
  H   H1067     1.0  0.66012  0.23611  0.39807  1.0000
  S   S178      1.0  0.65490  0.11808  0.31279  1.0000
  C   C1329     1.0  0.65655  0.12870  0.10875  1.0000
  C   C1330     1.0  0.83502  0.46217  0.03267  1.0000
  C   C1331     1.0  0.66420  0.13055  0.13610  1.0000
  H   H1068     1.0  0.65768  0.23177  0.24128  1.0000
  C   C1332     1.0  0.69626  0.00322  0.30393  1.0000
  S   S179      1.0  0.76993  0.43664  0.01528  1.0000
  C   C1333     1.0  0.95673  0.25959  0.18965  1.0000
  H   H1069     1.0  0.97480  0.24906  0.13493  1.0000
  C   C1334     1.0  0.77527  0.46710  0.00558  1.0000
  H   H1070     1.0  0.84322  0.30552  0.46008  1.0000
  H   H1071     1.0  0.98062  0.32118  0.24326  1.0000
  H   H1072     1.0  0.66529  0.02964  0.36829  1.0000
  H   H1073     1.0  0.67441  0.05617  0.32967  1.0000
  H   H1074     1.0  0.65961  0.11208  0.09765  1.0000
  C   C1335     1.0  0.97973  0.26868  0.18576  1.0000
  H   H1075     1.0  0.75124  0.48198  0.03583  1.0000
  C   C1336     1.0  0.69123  0.98803  0.32566  1.0000
  H   H1076     1.0  0.86394  0.47420  0.39966  1.0000
  C   C1337     1.0  0.67401  0.02219  0.35037  1.0000
  H   H1077     1.0  0.73973  0.26066  0.99811  1.0000
  S   S180      1.0  0.65682  0.19812  0.49695  1.0000
  Fe  Fe91      1.0  0.68832  0.08855  0.73783  1.0000
  H   H1078     1.0  0.76097  0.13506  0.62984  1.0000
  S   S181      1.0  0.67776  0.04835  0.73578  1.0000
  Fe  Fe92      1.0  0.72288  0.13092  0.73901  1.0000
  S   S182      1.0  0.69351  0.15855  0.74388  1.0000
  S   S183      1.0  0.76056  0.14316  0.72919  1.0000
  Fe  Fe93      1.0  0.67789  0.13351  0.77431  1.0000
  H   H1079     1.0  0.77069  0.26503  0.53068  1.0000
  H   H1080     1.0  0.81142  0.22191  0.58713  1.0000
  H   H1081     1.0  0.68335  0.21233  0.81267  1.0000
  S   S184      1.0  0.70887  0.10670  0.77193  1.0000
  S   S185      1.0  0.70465  0.11088  0.70476  1.0000
  H   H1082     1.0  0.72675  0.02711  0.73137  1.0000
  C   C1338     1.0  0.79474  0.22595  0.57659  1.0000
  C   C1339     1.0  0.71408  0.19290  0.82818  1.0000
  C   C1340     1.0  0.69217  0.26381  0.50492  1.0000
  C   C1341     1.0  0.76157  0.43262  0.90878  1.0000
  C   C1342     1.0  0.69990  0.31297  0.51309  1.0000
  H   H1083     1.0  0.74402  0.05746  0.77403  1.0000
  S   S186      1.0  0.72518  0.32329  0.97729  1.0000
  Fe  Fe94      1.0  0.81010  0.36526  0.53777  1.0000
  S   S187      1.0  0.83356  0.36638  0.57621  1.0000
  Fe  Fe95      1.0  0.80483  0.35788  0.97046  1.0000
  S   S188      1.0  0.83108  0.34425  0.93775  1.0000
  S   S189      1.0  0.77034  0.37301  0.53771  1.0000
  S   S190      1.0  0.76905  0.37665  0.96582  1.0000
  Fe  Fe96      1.0  0.89353  0.28030  0.76369  1.0000
  S   S191      1.0  0.87826  0.31564  0.74869  1.0000
  S   S192      1.0  0.93304  0.26985  0.77402  1.0000
  Fe  Fe97      1.0  0.84258  0.25798  0.76599  1.0000
  S   S193      1.0  0.82505  0.29177  0.75085  1.0000
  S   S194      1.0  0.81777  0.22945  0.78231  1.0000
  Fe  Fe98      1.0  0.85514  0.29324  0.72074  1.0000
  S   S195      1.0  0.84641  0.29355  0.67501  1.0000
  Fe  Fe99      1.0  0.84917  0.31106  0.78022  1.0000
  S   S196      1.0  0.83110  0.33963  0.80772  1.0000
  S   S197      1.0  0.87160  0.25794  0.73450  1.0000
  S   S198      1.0  0.86558  0.27729  0.79660  1.0000
  C   C1343     1.0  0.77494  0.46684  0.50304  1.0000
  C   C1344     1.0  0.96290  0.27894  0.76606  1.0000
  C   C1345     1.0  0.96775  0.30077  0.75364  1.0000
  C   C1346     1.0  0.73165  0.03347  0.84626  1.0000
  H   H1084     1.0  0.95304  0.31280  0.74839  1.0000
  C   C1347     1.0  0.83442  0.34666  0.60451  1.0000
  C   C1348     1.0  0.82629  0.32315  0.60270  1.0000
  C   C1349     1.0  0.82973  0.30736  0.62470  1.0000
  C   C1350     1.0  0.84080  0.31497  0.64900  1.0000
  C   C1351     1.0  0.84809  0.33873  0.65119  1.0000
  C   C1352     1.0  0.84522  0.35434  0.62894  1.0000
  H   H1085     1.0  0.81809  0.31693  0.58403  1.0000
  H   H1086     1.0  0.82405  0.28902  0.62276  1.0000
  H   H1087     1.0  0.85652  0.34493  0.66970  1.0000
  H   H1088     1.0  0.85165  0.37244  0.63054  1.0000
  C   C1353     1.0  0.82893  0.34118  0.90170  1.0000
  C   C1354     1.0  0.84691  0.32787  0.88788  1.0000
  C   C1355     1.0  0.84714  0.32627  0.85923  1.0000
  C   C1356     1.0  0.82956  0.33832  0.84391  1.0000
  C   C1357     1.0  0.81115  0.35107  0.85773  1.0000
  C   C1358     1.0  0.81072  0.35239  0.88644  1.0000
  H   H1089     1.0  0.86107  0.31913  0.89944  1.0000
  H   H1090     1.0  0.86146  0.31648  0.84898  1.0000
  H   H1091     1.0  0.79738  0.36036  0.84613  1.0000
  H   H1092     1.0  0.79674  0.36266  0.89670  1.0000
  C   C1359     1.0  0.67621  0.27216  0.99227  1.0000
  C   C1360     1.0  0.69981  0.14599  0.52916  1.0000
  H   H1093     1.0  0.74049  0.30868  0.83825  1.0000
  C   C1361     1.0  0.65953  0.23396  0.57124  1.0000
  C   C1362     1.0  0.71909  0.18159  0.54688  1.0000
  H   H1094     1.0  0.80918  0.41151  0.79029  1.0000
  H   H1095     1.0  0.68940  0.24483  0.50210  1.0000
  H   H1096     1.0  0.70078  0.15564  0.57138  1.0000
  C   C1363     1.0  0.81285  0.43980  0.91967  1.0000
  C   C1364     1.0  0.66190  0.04915  0.90887  1.0000
  H   H1097     1.0  0.72056  0.20642  0.73383  1.0000
  H   H1098     1.0  0.70029  0.14136  0.97138  1.0000
  H   H1099     1.0  0.69991  0.28172  0.96016  1.0000
  C   C1365     1.0  0.72492  0.18790  0.52017  1.0000
  S   S199      1.0  0.81755  0.39227  0.50518  1.0000
  C   C1366     1.0  0.77417  0.16939  0.74225  1.0000
  C   C1367     1.0  0.79424  0.17845  0.72893  1.0000
  C   C1368     1.0  0.80697  0.19781  0.74008  1.0000
  C   C1369     1.0  0.80001  0.20804  0.76497  1.0000
  C   C1370     1.0  0.77955  0.19937  0.77790  1.0000
  C   C1371     1.0  0.76654  0.18035  0.76649  1.0000
  H   H1100     1.0  0.80033  0.17004  0.71023  1.0000
  H   H1101     1.0  0.82284  0.20403  0.73013  1.0000
  H   H1102     1.0  0.77399  0.20701  0.79716  1.0000
  H   H1103     1.0  0.75122  0.17350  0.77700  1.0000
  C   C1372     1.0  0.81552  0.41659  0.93020  1.0000
  C   C1373     1.0  0.71527  0.27321  0.50234  1.0000
  C   C1374     1.0  0.67813  0.21681  0.56984  1.0000
  H   H1104     1.0  0.69611  0.15721  0.90040  1.0000
  H   H1105     1.0  0.69515  0.14632  0.85119  1.0000
  C   C1375     1.0  0.98252  0.26387  0.77328  1.0000
  H   H1106     1.0  0.66224  0.11916  0.59176  1.0000
  C   C1376     1.0  0.71274  0.22591  0.87176  1.0000
  H   H1107     1.0  0.70268  0.33192  0.51627  1.0000
  H   H1108     1.0  0.76854  0.04140  0.85492  1.0000
  C   C1377     1.0  0.68983  0.01812  0.73643  1.0000
  C   C1378     1.0  0.71434  0.01270  0.73372  1.0000
  C   C1379     1.0  0.67412  0.99886  0.73938  1.0000
  C   C1380     1.0  0.88193  0.22504  0.83363  1.0000
  C   C1381     1.0  0.89574  0.24400  0.84303  1.0000
  C   C1382     1.0  0.88560  0.26137  0.86041  1.0000
  C   C1383     1.0  0.86170  0.25974  0.86841  1.0000
  C   C1384     1.0  0.84775  0.24042  0.85954  1.0000
  C   C1385     1.0  0.85806  0.22327  0.84174  1.0000
  P   P45       1.0  0.81668  0.23887  0.87001  1.0000
  C   C1386     1.0  0.81519  0.25376  0.90275  1.0000
  C   C1387     1.0  0.79791  0.25431  0.84548  1.0000
  C   C1388     1.0  0.80560  0.27542  0.83337  1.0000
  C   C1389     1.0  0.79167  0.28646  0.81317  1.0000
  C   C1390     1.0  0.77022  0.27636  0.80466  1.0000
  C   C1391     1.0  0.76209  0.25576  0.81715  1.0000
  C   C1392     1.0  0.77564  0.24505  0.83785  1.0000
  C   C1393     1.0  0.80105  0.27465  0.90666  1.0000
  C   C1394     1.0  0.80217  0.28731  0.93132  1.0000
  C   C1395     1.0  0.81731  0.27925  0.95215  1.0000
  C   C1396     1.0  0.83128  0.25841  0.94848  1.0000
  C   C1397     1.0  0.83038  0.24580  0.92382  1.0000
  C   C1398     1.0  0.80707  0.20809  0.87246  1.0000
  C   C1399     1.0  0.80459  0.19406  0.84875  1.0000
  C   C1400     1.0  0.79617  0.17072  0.85003  1.0000
  C   C1401     1.0  0.78975  0.16120  0.87501  1.0000
  C   C1402     1.0  0.79159  0.17512  0.89868  1.0000
  C   C1403     1.0  0.80014  0.19847  0.89745  1.0000
  H   H1109     1.0  0.88953  0.21206  0.81937  1.0000
  H   H1110     1.0  0.91399  0.24571  0.83600  1.0000
  H   H1111     1.0  0.89603  0.27651  0.86702  1.0000
  H   H1112     1.0  0.85408  0.27386  0.88117  1.0000
  H   H1113     1.0  0.84782  0.20876  0.83348  1.0000
  H   H1114     1.0  0.82255  0.28310  0.83901  1.0000
  H   H1115     1.0  0.79789  0.30247  0.80352  1.0000
  H   H1116     1.0  0.76002  0.28437  0.78826  1.0000
  H   H1117     1.0  0.74554  0.24778  0.81046  1.0000
  H   H1118     1.0  0.76902  0.22911  0.84711  1.0000
  H   H1119     1.0  0.78980  0.28170  0.89050  1.0000
  H   H1120     1.0  0.79209  0.30399  0.93399  1.0000
  H   H1121     1.0  0.81877  0.28960  0.97081  1.0000
  H   H1122     1.0  0.84341  0.25254  0.96446  1.0000
  H   H1123     1.0  0.84204  0.23020  0.92082  1.0000
  H   H1124     1.0  0.80863  0.20136  0.82906  1.0000
  H   H1125     1.0  0.79434  0.16020  0.83148  1.0000
  H   H1126     1.0  0.78306  0.14314  0.87593  1.0000
  H   H1127     1.0  0.78623  0.16784  0.91799  1.0000
  H   H1128     1.0  0.80089  0.20893  0.91598  1.0000
  C   C1404     1.0  0.66567  0.04657  0.88090  1.0000
  C   C1405     1.0  0.65693  0.13569  0.60199  1.0000
  H   H1129     1.0  0.73104  0.42339  0.96750  1.0000
  C   C1406     1.0  0.85132  0.42827  0.95450  1.0000
  C   C1407     1.0  0.78876  0.43730  0.81425  1.0000
  C   C1408     1.0  0.72283  0.98855  0.73359  1.0000
  H   H1130     1.0  0.87585  0.39375  0.54450  1.0000
  C   C1409     1.0  0.67268  0.27897  0.51127  1.0000
  C   C1410     1.0  0.67147  0.27616  0.91438  1.0000
  C   C1411     1.0  0.92961  0.23082  0.68458  1.0000
  C   C1412     1.0  0.92741  0.24930  0.70383  1.0000
  C   C1413     1.0  0.93056  0.27313  0.69630  1.0000
  C   C1414     1.0  0.93613  0.27854  0.66930  1.0000
  C   C1415     1.0  0.74566  0.42176  0.89044  1.0000
  P   P46       1.0  0.94298  0.30865  0.65953  1.0000
  C   C1416     1.0  0.92540  0.31797  0.63035  1.0000
  C   C1417     1.0  0.93470  0.33026  0.68561  1.0000
  C   C1418     1.0  0.91036  0.33582  0.68986  1.0000
  C   C1419     1.0  0.90350  0.35406  0.70810  1.0000
  C   C1420     1.0  0.92082  0.36634  0.72294  1.0000
  C   C1421     1.0  0.94509  0.36075  0.71907  1.0000
  C   C1422     1.0  0.95206  0.34300  0.70022  1.0000
  C   C1423     1.0  0.92908  0.34057  0.61897  1.0000
  C   C1424     1.0  0.91409  0.34912  0.59817  1.0000
  C   C1425     1.0  0.89510  0.33534  0.58886  1.0000
  C   C1426     1.0  0.89101  0.31307  0.60043  1.0000
  C   C1427     1.0  0.90587  0.30451  0.62131  1.0000
  C   C1428     1.0  0.70645  0.14489  0.99198  1.0000
  H   H1131     1.0  0.76803  0.44103  0.95119  1.0000
  H   H1132     1.0  0.77968  0.44509  0.79682  1.0000
  H   H1133     1.0  0.74930  0.42115  0.86889  1.0000
  H   H1134     1.0  0.68153  0.20590  0.70938  1.0000
  C   C1429     1.0  0.66373  0.25682  0.58177  1.0000
  C   C1430     1.0  0.67054  0.03161  0.92670  1.0000
  H   H1135     1.0  0.93733  0.22170  0.64287  1.0000
  H   H1136     1.0  0.92343  0.24510  0.72474  1.0000
  H   H1137     1.0  0.92900  0.28709  0.71169  1.0000
  H   H1138     1.0  0.92707  0.21243  0.69061  1.0000
  H   H1139     1.0  0.89665  0.32620  0.67882  1.0000
  H   H1140     1.0  0.88466  0.35841  0.71101  1.0000
  H   H1141     1.0  0.91540  0.38016  0.73744  1.0000
  C   C1431     1.0  0.68250  0.99129  0.82606  1.0000
  C   C1432     1.0  0.81205  0.41695  0.85918  1.0000
  H   H1142     1.0  0.94308  0.35191  0.62677  1.0000
  H   H1143     1.0  0.91670  0.36673  0.58979  1.0000
  H   H1144     1.0  0.88299  0.34227  0.57335  1.0000
  H   H1145     1.0  0.87567  0.30288  0.59397  1.0000
  H   H1146     1.0  0.90131  0.28793  0.63102  1.0000
  C   C1433     1.0  0.71942  0.41194  0.92761  1.0000
  H   H1147     1.0  0.84117  0.27949  0.50052  1.0000
  H   H1148     1.0  0.65872  0.06043  0.86771  1.0000
  S   S200      1.0  0.80790  0.33527  0.50726  1.0000
  C   C1434     1.0  0.71797  0.04251  0.80065  1.0000
  H   H1149     1.0  0.72264  0.25003  0.59788  1.0000
  C   C1435     1.0  0.67901  0.15273  0.86119  1.0000
  Fe  Fe100     1.0  0.67454  0.13779  0.71106  1.0000
  C   C1436     1.0  0.71790  0.17441  0.65207  1.0000
  C   C1437     1.0  0.77441  0.21259  0.58191  1.0000
  H   H1150     1.0  0.68965  0.28024  0.59942  1.0000
  H   H1151     1.0  0.71445  0.99012  0.80106  1.0000
  H   H1152     1.0  0.73698  0.14494  0.67087  1.0000
  C   C1438     1.0  0.70559  0.15245  0.50270  1.0000
  H   H1153     1.0  0.75432  0.20484  0.99434  1.0000
  C   C1439     1.0  0.67582  0.00919  0.66736  1.0000
  C   C1440     1.0  0.86645  0.42614  0.52308  1.0000
  S   S201      1.0  0.65663  0.11455  0.74172  1.0000
  C   C1441     1.0  0.72476  0.41131  0.89989  1.0000
  C   C1442     1.0  0.74528  0.16371  0.60599  1.0000
  H   H1154     1.0  0.71394  0.32202  0.61336  1.0000
  C   C1443     1.0  0.72759  0.28165  0.86520  1.0000
  P   P47       1.0  0.71090  0.24660  0.90033  1.0000
  H   H1155     1.0  0.73016  0.26131  0.49731  1.0000
  P   P48       1.0  0.68390  0.02287  0.83444  1.0000
  C   C1444     1.0  0.95116  0.32715  0.82083  1.0000
  H   H1156     1.0  0.95855  0.37027  0.73055  1.0000
  H   H1157     1.0  0.77643  0.05688  0.80876  1.0000
  C   C1445     1.0  0.73473  0.15554  0.65261  1.0000
  H   H1158     1.0  0.82113  0.40849  0.87614  1.0000
  C   C1446     1.0  0.79351  0.24464  0.55791  1.0000
  C   C1447     1.0  0.72873  0.30915  0.61472  1.0000
  C   C1448     1.0  0.95980  0.30463  0.82889  1.0000
  H   H1159     1.0  0.74292  0.20510  0.88748  1.0000
  H   H1160     1.0  0.86616  0.42368  0.96788  1.0000
  H   H1161     1.0  0.67443  0.19935  0.56117  1.0000
  C   C1449     1.0  0.79585  0.20270  0.65388  1.0000
  C   C1450     1.0  0.81843  0.20729  0.66490  1.0000
  C   C1451     1.0  0.82261  0.22927  0.67773  1.0000
  C   C1452     1.0  0.80419  0.24655  0.67993  1.0000
  C   C1453     1.0  0.78155  0.24222  0.66863  1.0000
  C   C1454     1.0  0.77754  0.22019  0.65546  1.0000
  P   P49       1.0  0.75710  0.26382  0.67186  1.0000
  C   C1455     1.0  0.75125  0.27886  0.64009  1.0000
  C   C1456     1.0  0.73232  0.24682  0.68428  1.0000
  C   C1457     1.0  0.73582  0.23239  0.70728  1.0000
  H   H1162     1.0  0.69367  0.01620  0.66974  1.0000
  C   C1458     1.0  0.73078  0.19092  0.84932  1.0000
  C   C1459     1.0  0.69613  0.22786  0.85026  1.0000
  C   C1460     1.0  0.71038  0.24602  0.67019  1.0000
  C   C1461     1.0  0.76761  0.27680  0.61855  1.0000
  C   C1462     1.0  0.76447  0.29088  0.59536  1.0000
  C   C1463     1.0  0.74487  0.30673  0.59323  1.0000
  C   C1464     1.0  0.97500  0.30805  0.65433  1.0000
  C   C1465     1.0  0.73206  0.29550  0.63821  1.0000
  C   C1466     1.0  0.76459  0.28792  0.69500  1.0000
  C   C1467     1.0  0.75220  0.29172  0.71951  1.0000
  C   C1468     1.0  0.75764  0.31130  0.73632  1.0000
  C   C1469     1.0  0.77555  0.32704  0.72892  1.0000
  C   C1470     1.0  0.78774  0.32349  0.70445  1.0000
  C   C1471     1.0  0.78212  0.30420  0.68744  1.0000
  H   H1163     1.0  0.79239  0.18541  0.64463  1.0000
  H   H1164     1.0  0.83256  0.19367  0.66398  1.0000
  H   H1165     1.0  0.84002  0.23286  0.68656  1.0000
  H   H1166     1.0  0.80775  0.26298  0.69088  1.0000
  H   H1167     1.0  0.76005  0.21627  0.64712  1.0000
  H   H1168     1.0  0.75291  0.23199  0.71791  1.0000
  C   C1472     1.0  0.72461  0.23316  0.93011  1.0000
  H   H1169     1.0  0.70161  0.20263  0.62878  1.0000
  H   H1170     1.0  0.75563  0.15901  0.58807  1.0000
  H   H1171     1.0  0.70745  0.25601  0.65176  1.0000
  H   H1172     1.0  0.78328  0.26509  0.62000  1.0000
  H   H1173     1.0  0.77756  0.29007  0.57922  1.0000
  C   C1473     1.0  0.70119  0.22250  0.57901  1.0000
  Fe  Fe101     1.0  0.77798  0.39895  0.50361  1.0000
  C   C1474     1.0  0.75886  0.05045  0.81381  1.0000
  H   H1174     1.0  0.73824  0.27984  0.72562  1.0000
  H   H1175     1.0  0.74799  0.31434  0.75509  1.0000
  H   H1176     1.0  0.78012  0.34189  0.74221  1.0000
  H   H1177     1.0  0.80179  0.33551  0.69867  1.0000
  H   H1178     1.0  0.79173  0.30182  0.66849  1.0000
  C   C1475     1.0  0.82967  0.45719  0.92679  1.0000
  C   C1476     1.0  0.68306  0.01149  0.91658  1.0000
  C   C1477     1.0  0.93535  0.23606  0.65773  1.0000
  C   C1478     1.0  0.83481  0.41086  0.94734  1.0000
  C   C1479     1.0  0.74799  0.31743  0.88004  1.0000
  H   H1179     1.0  0.77060  0.46045  0.84300  1.0000
  S   S202      1.0  0.74901  0.30820  0.50237  1.0000
  C   C1480     1.0  0.93887  0.25981  0.65018  1.0000
  C   C1481     1.0  0.67954  0.25303  0.90675  1.0000
  C   C1482     1.0  0.77188  0.25018  0.54477  1.0000
  H   H1180     1.0  0.83707  0.39280  0.95493  1.0000
  C   C1483     1.0  0.76013  0.22438  0.95744  1.0000
  C   C1484     1.0  0.74613  0.21255  0.97633  1.0000
  C   C1485     1.0  0.72146  0.21090  0.97213  1.0000
  C   C1486     1.0  0.74566  0.31044  0.90702  1.0000
  C   C1487     1.0  0.73485  0.28881  0.91311  1.0000
  H   H1181     1.0  0.68234  0.24184  0.85043  1.0000
  H   H1182     1.0  0.67524  0.23065  0.66844  1.0000
  H   H1183     1.0  0.74253  0.31754  0.57513  1.0000
  P   P50       1.0  0.72585  0.20119  0.57531  1.0000
  H   H1184     1.0  0.70331  0.40376  0.93498  1.0000
  H   H1185     1.0  0.68931  0.13021  0.53261  1.0000
  H   H1186     1.0  0.86148  0.46501  0.94984  1.0000
  H   H1187     1.0  0.72031  0.27106  0.84875  1.0000
  C   C1488     1.0  0.65343  0.15912  0.64391  1.0000
  C   C1489     1.0  0.69673  0.21132  0.82869  1.0000
  C   C1490     1.0  0.71073  0.22113  0.94915  1.0000
  H   H1188     1.0  0.70676  0.17790  0.66969  1.0000
  H   H1189     1.0  0.71999  0.29835  0.65517  1.0000
  C   C1491     1.0  0.66280  0.06492  0.81450  1.0000
  H   H1190     1.0  0.80091  0.45882  0.97437  1.0000
  H   H1191     1.0  0.80918  0.25516  0.55401  1.0000
  H   H1192     1.0  0.71268  0.40273  0.88572  1.0000
  C   C1492     1.0  0.87440  0.40226  0.52482  1.0000
  C   C1493     1.0  0.75607  0.43299  0.93659  1.0000
  H   H1193     1.0  0.80295  0.40279  0.92486  1.0000
  H   H1194     1.0  0.95911  0.36449  0.81673  1.0000
  C   C1494     1.0  0.69205  0.23155  0.67950  1.0000
  H   H1195     1.0  0.68370  0.29090  0.91570  1.0000
  P   P51       1.0  0.78824  0.44698  0.89694  1.0000
  H   H1196     1.0  0.73410  0.20424  0.51599  1.0000
  C   C1495     1.0  0.75438  0.04176  0.83980  1.0000
  H   H1197     1.0  0.76056  0.24345  0.91977  1.0000
  H   H1198     1.0  0.74391  0.17636  0.84901  1.0000
  C   C1496     1.0  0.67946  0.15887  0.88917  1.0000
  H   H1199     1.0  0.94853  0.28916  0.82671  1.0000
  S   S203      1.0  0.79003  0.32857  0.99543  1.0000
  H   H1200     1.0  0.69686  0.99325  0.88118  1.0000
  C   C1497     1.0  0.78375  0.44602  0.84043  1.0000
  H   H1201     1.0  0.73468  0.24206  0.54071  1.0000
  C   C1498     1.0  0.72899  0.18329  0.60562  1.0000
  C   C1499     1.0  0.72575  0.27414  0.89224  1.0000
  H   H1202     1.0  0.68979  0.99790  0.93041  1.0000
  H   H1203     1.0  0.71412  0.17980  0.81171  1.0000
  C   C1500     1.0  0.79542  0.43597  0.86314  1.0000
  C   C1501     1.0  0.68644  0.26241  0.59160  1.0000
  C   C1502     1.0  0.73008  0.20726  0.87113  1.0000
  C   C1503     1.0  0.74947  0.23448  0.93431  1.0000
  H   H1204     1.0  0.75674  0.33403  0.87537  1.0000
  C   C1504     1.0  0.75148  0.23711  0.55042  1.0000
  C   C1505     1.0  0.73888  0.30309  0.85915  1.0000
  C   C1506     1.0  0.74831  0.15007  0.62951  1.0000
  C   C1507     1.0  0.66052  0.13800  0.63032  1.0000
  H   H1205     1.0  0.74278  0.15124  0.98029  1.0000
  C   C1508     1.0  0.96581  0.34706  0.82310  1.0000
  C   C1509     1.0  0.70509  0.24527  0.59047  1.0000
  C   C1510     1.0  0.69558  0.21756  0.70263  1.0000
  H   H1206     1.0  0.77588  0.19834  0.59649  1.0000
  H   H1207     1.0  0.73345  0.28378  0.93419  1.0000
  C   C1511     1.0  0.67673  0.30356  0.51561  1.0000
  H   H1208     1.0  0.66891  0.21634  0.89998  1.0000
  C   C1512     1.0  0.80538  0.41845  0.81053  1.0000
  C   C1513     1.0  0.71822  0.17334  0.49821  1.0000
  H   H1209     1.0  0.97096  0.33949  0.69718  1.0000
  C   C1514     1.0  0.68693  0.00888  0.88863  1.0000
  C   C1515     1.0  0.69396  0.28610  0.98040  1.0000
  H   H1210     1.0  0.82807  0.47526  0.91918  1.0000
  C   C1516     1.0  0.73498  0.42297  0.94591  1.0000
  H   H1211     1.0  0.77923  0.22594  0.96081  1.0000
  C   C1517     1.0  0.81704  0.40834  0.83296  1.0000
  C   C1518     1.0  0.70642  0.16051  0.55117  1.0000
  H   H1212     1.0  0.66180  0.31545  0.52069  1.0000
  C   C1519     1.0  0.71503  0.18833  0.62874  1.0000
  H   H1213     1.0  0.86196  0.43614  0.54145  1.0000
  C   C1520     1.0  0.75260  0.21794  0.56869  1.0000
  H   H1214     1.0  0.93319  0.32902  0.81252  1.0000
  H   H1215     1.0  0.72860  0.02672  0.86642  1.0000
  H   H1216     1.0  0.67650  0.07433  0.82573  1.0000
  H   H1217     1.0  0.69159  0.21947  0.94647  1.0000
  H   H1218     1.0  0.82977  0.39353  0.83003  1.0000
  C   C1521     1.0  0.71931  0.29781  0.50627  1.0000
  C   C1522     1.0  0.84873  0.45145  0.94428  1.0000
  H   H1219     1.0  0.66860  0.25737  0.98100  1.0000
  H   H1220     1.0  0.75214  0.32185  0.92335  1.0000
  H   H1221     1.0  0.71045  0.20169  0.98663  1.0000
  C   C1523     1.0  0.65859  0.16704  0.90276  1.0000
  C   C1524     1.0  0.71323  0.03389  0.82672  1.0000
  C   C1525     1.0  0.71752  0.21786  0.71640  1.0000
  C   C1526     1.0  0.67811  0.02631  0.87048  1.0000
  H   H1222     1.0  0.65515  0.00266  0.74152  1.0000
  C   C1527     1.0  0.74066  0.05078  0.79424  1.0000
  Fe  Fe102     1.0  0.75467  0.34786  0.99293  1.0000
  C   C1528     1.0  0.79973  0.47019  0.50432  1.0000
  C   C1529     1.0  0.79093  0.47296  0.98466  1.0000
  Fe  Fe103     1.0  0.76827  0.34417  0.50504  1.0000
  H   H1223     1.0  0.66847  0.12333  0.64168  1.0000
  H   H1224     1.0  0.70414  0.04283  0.78519  1.0000
  H   H1225     1.0  0.81282  0.24580  0.50102  1.0000
  S   S204      1.0  0.65622  0.16262  0.67981  1.0000
  C   C1530     1.0  0.65769  0.15504  0.84623  1.0000
  S   S205      1.0  0.65580  0.14799  0.81071  1.0000
  S   S206      1.0  0.66046  0.17482  0.93808  1.0000
  C   C1531     1.0  0.66198  0.03977  0.81482  1.0000
  C   C1532     1.0  0.70406  0.30553  0.99446  1.0000
  S   S207      1.0  0.76189  0.43760  0.50159  1.0000
  H   H1226     1.0  0.81164  0.45467  0.50531  1.0000
  H   H1227     1.0  0.94388  0.26360  0.62946  1.0000
  H   H1228     1.0  0.65225  0.06482  0.91672  1.0000
  H   H1229     1.0  0.66754  0.03365  0.94836  1.0000
  C   C1533     1.0  0.66308  0.23439  0.90549  1.0000
  H   H1230     1.0  0.97404  0.32165  0.61320  1.0000
  H   H1231     1.0  0.75750  0.48054  0.92910  1.0000
  H   H1232     1.0  0.97918  0.24699  0.78300  1.0000
  C   C1534     1.0  0.78368  0.47921  0.89657  1.0000
  H   H1233     1.0  0.81020  0.48495  0.86542  1.0000
  H   H1234     1.0  0.98262  0.29267  0.69379  1.0000
  C   C1535     1.0  0.87904  0.38897  0.50109  1.0000
  H   H1235     1.0  0.65840  0.04300  0.67705  1.0000
  C   C1536     1.0  0.65590  0.02432  0.67155  1.0000
  H   H1236     1.0  0.88414  0.37016  0.50238  1.0000
  C   C1537     1.0  0.98318  0.30185  0.83884  1.0000
  C   C1538     1.0  0.73032  0.15064  0.99704  1.0000
  C   C1539     1.0  0.86318  0.43675  0.49766  1.0000
  Fe  Fe104     1.0  0.72936  0.84985  0.23584  1.0000
  S   S208      1.0  0.70001  0.82335  0.23430  1.0000
  S   S209      1.0  0.76888  0.83864  0.23883  1.0000
  Fe  Fe105     1.0  0.69457  0.89327  0.23215  1.0000
  C   C1540     1.0  0.97728  0.69047  0.25974  1.0000
  S   S210      1.0  0.68351  0.93357  0.23289  1.0000
  Fe  Fe106     1.0  0.68066  0.84793  0.26393  1.0000
  C   C1541     1.0  0.83871  0.53741  0.43735  1.0000
  Fe  Fe107     1.0  0.68423  0.84595  0.20071  1.0000
  H   H1237     1.0  0.81680  0.54489  0.32780  1.0000
  S   S211      1.0  0.71118  0.87329  0.26772  1.0000
  S   S212      1.0  0.71498  0.87146  0.20031  1.0000
  C   C1542     1.0  0.74978  0.93209  0.26906  1.0000
  H   H1238     1.0  0.71404  0.75474  0.21688  1.0000
  H   H1239     1.0  0.75529  0.55172  0.46232  1.0000
  H   H1240     1.0  0.93138  0.55253  0.12288  1.0000
  H   H1241     1.0  0.68245  0.78014  0.19529  1.0000
  C   C1543     1.0  0.98126  0.72043  0.33086  1.0000
  H   H1242     1.0  0.70312  0.81223  0.44624  1.0000
  Fe  Fe108     1.0  0.79179  0.62782  0.03155  1.0000
  S   S213      1.0  0.79149  0.63938  0.07666  1.0000
  Fe  Fe109     1.0  0.80604  0.62952  0.46426  1.0000
  S   S214      1.0  0.81177  0.64986  0.42431  1.0000
  S   S215      1.0  0.75777  0.61028  0.01675  1.0000
  S   S216      1.0  0.77571  0.60377  0.46828  1.0000
  Fe  Fe110     1.0  0.90226  0.70374  0.24755  1.0000
  S   S217      1.0  0.89779  0.66404  0.24342  1.0000
  S   S218      1.0  0.93921  0.72195  0.24532  1.0000
  Fe  Fe111     1.0  0.84691  0.71246  0.24970  1.0000
  S   S219      1.0  0.84003  0.67281  0.24531  1.0000
  S   S220      1.0  0.81066  0.73212  0.25566  1.0000
  Fe  Fe112     1.0  0.86958  0.66812  0.27621  1.0000
  S   S221      1.0  0.86840  0.64122  0.31130  1.0000
  Fe  Fe113     1.0  0.86836  0.67240  0.21297  1.0000
  S   S222      1.0  0.86955  0.65256  0.17157  1.0000
  S   S223      1.0  0.87548  0.70760  0.28210  1.0000
  S   S224      1.0  0.87383  0.71224  0.21552  1.0000
  P   P52       1.0  0.97094  0.63661  0.18260  1.0000
  C   C1544     1.0  0.97002  0.71178  0.24698  1.0000
  H   H1243     1.0  0.95257  0.62877  0.28029  1.0000
  H   H1244     1.0  0.68688  0.90568  0.31772  1.0000
  H   H1245     1.0  0.96391  0.67938  0.26879  1.0000
  C   C1545     1.0  0.82900  0.64785  0.39387  1.0000
  C   C1546     1.0  0.84562  0.62922  0.38887  1.0000
  C   C1547     1.0  0.85761  0.62755  0.36363  1.0000
  C   C1548     1.0  0.85342  0.64468  0.34318  1.0000
  C   C1549     1.0  0.83709  0.66358  0.34841  1.0000
  C   C1550     1.0  0.82496  0.66508  0.37354  1.0000
  H   H1246     1.0  0.84898  0.61604  0.40439  1.0000
  H   H1247     1.0  0.87020  0.61289  0.35990  1.0000
  H   H1248     1.0  0.83364  0.67690  0.33298  1.0000
  H   H1249     1.0  0.81220  0.67960  0.37719  1.0000
  C   C1551     1.0  0.84766  0.64933  0.14527  1.0000
  C   C1552     1.0  0.85497  0.64095  0.11938  1.0000
  C   C1553     1.0  0.83821  0.63780  0.09802  1.0000
  C   C1554     1.0  0.81384  0.64275  0.10241  1.0000
  C   C1555     1.0  0.80657  0.65070  0.12838  1.0000
  C   C1556     1.0  0.82328  0.65416  0.14961  1.0000
  H   H1250     1.0  0.87374  0.63698  0.11578  1.0000
  H   H1251     1.0  0.84412  0.63152  0.07823  1.0000
  H   H1252     1.0  0.78778  0.65401  0.13206  1.0000
  H   H1253     1.0  0.81726  0.66024  0.16944  1.0000
  S   S225      1.0  0.68600  0.74685  0.48621  1.0000
  C   C1557     1.0  0.68876  0.75227  0.08641  1.0000
  C   C1558     1.0  0.85646  0.54392  0.45597  1.0000
  H   H1254     1.0  0.82572  0.52440  0.44333  1.0000
  C   C1559     1.0  0.80161  0.58742  0.37542  1.0000
  S   S226      1.0  0.66706  0.82311  0.16703  1.0000
  H   H1255     1.0  0.90358  0.59529  0.22496  1.0000
  H   H1256     1.0  0.87169  0.49459  0.33056  1.0000
  H   H1257     1.0  0.75138  0.91822  0.25351  1.0000
  C   C1560     1.0  0.80183  0.60415  0.33022  1.0000
  H   H1258     1.0  0.79994  0.61954  0.31702  1.0000
  C   C1561     1.0  0.76857  0.94770  0.27378  1.0000
  C   C1562     1.0  0.66212  0.82674  0.13152  1.0000
  C   C1563     1.0  0.69681  0.67359  0.00539  1.0000
  H   H1259     1.0  0.68404  0.85763  0.12698  1.0000
  C   C1564     1.0  0.78007  0.80874  0.24278  1.0000
  C   C1565     1.0  0.80497  0.80425  0.24183  1.0000
  C   C1566     1.0  0.81467  0.78083  0.24484  1.0000
  C   C1567     1.0  0.79954  0.76165  0.24925  1.0000
  C   C1568     1.0  0.77463  0.76612  0.25011  1.0000
  C   C1569     1.0  0.76492  0.78948  0.24680  1.0000
  H   H1260     1.0  0.81685  0.81900  0.23871  1.0000
  H   H1261     1.0  0.83385  0.77772  0.24427  1.0000
  H   H1262     1.0  0.76278  0.75143  0.25358  1.0000
  H   H1263     1.0  0.74576  0.79261  0.24765  1.0000
  C   C1570     1.0  0.80434  0.55560  0.04986  1.0000
  C   C1571     1.0  0.70675  0.72313  0.15785  1.0000
  H   H1264     1.0  0.69658  0.64432  0.44896  1.0000
  C   C1572     1.0  0.82672  0.49927  0.05730  1.0000
  C   C1573     1.0  0.93371  0.61219  0.20658  1.0000
  C   C1574     1.0  0.71797  0.96890  0.22585  1.0000
  C   C1575     1.0  0.69403  0.96369  0.23100  1.0000
  C   C1576     1.0  0.67582  0.74172  0.40926  1.0000
  H   H1265     1.0  0.73076  0.95442  0.22220  1.0000
  H   H1266     1.0  0.81180  0.57976  0.29786  1.0000
  C   C1577     1.0  0.76900  0.86350  0.30688  1.0000
  C   C1578     1.0  0.75335  0.88044  0.31869  1.0000
  C   C1579     1.0  0.73626  0.87319  0.33730  1.0000
  C   C1580     1.0  0.73527  0.84911  0.34466  1.0000
  C   C1581     1.0  0.75177  0.83206  0.33393  1.0000
  C   C1582     1.0  0.76821  0.83943  0.31437  1.0000
  P   P53       1.0  0.75104  0.80111  0.34483  1.0000
  C   C1583     1.0  0.73689  0.80211  0.37785  1.0000
  C   C1584     1.0  0.73364  0.78383  0.32092  1.0000
  C   C1585     1.0  0.71399  0.79435  0.30731  1.0000
  C   C1586     1.0  0.70052  0.78075  0.28899  1.0000
  C   C1587     1.0  0.70667  0.75672  0.28391  1.0000
  C   C1588     1.0  0.72618  0.74611  0.29743  1.0000
  C   C1589     1.0  0.73945  0.75953  0.31605  1.0000
  C   C1590     1.0  0.74750  0.81508  0.39924  1.0000
  C   C1591     1.0  0.73561  0.81827  0.42401  1.0000
  C   C1592     1.0  0.71277  0.80915  0.42739  1.0000
  C   C1593     1.0  0.71382  0.79317  0.38139  1.0000
  C   C1594     1.0  0.78103  0.78783  0.34637  1.0000
  C   C1595     1.0  0.79349  0.78279  0.32214  1.0000
  C   C1596     1.0  0.81643  0.77224  0.32275  1.0000
  C   C1597     1.0  0.82709  0.76623  0.34755  1.0000
  C   C1598     1.0  0.81459  0.77037  0.37175  1.0000
  C   C1599     1.0  0.79161  0.78094  0.37120  1.0000
  H   H1267     1.0  0.78155  0.86889  0.29146  1.0000
  H   H1268     1.0  0.75411  0.89904  0.31291  1.0000
  H   H1269     1.0  0.72358  0.88615  0.34582  1.0000
  H   H1270     1.0  0.72154  0.84395  0.35875  1.0000
  H   H1271     1.0  0.78037  0.82685  0.30452  1.0000
  H   H1272     1.0  0.70898  0.81301  0.31084  1.0000
  H   H1273     1.0  0.68531  0.78894  0.27862  1.0000
  H   H1274     1.0  0.69633  0.74639  0.26947  1.0000
  H   H1275     1.0  0.73117  0.72754  0.29338  1.0000
  H   H1276     1.0  0.75437  0.75092  0.32641  1.0000
  H   H1277     1.0  0.76468  0.82332  0.39645  1.0000
  H   H1278     1.0  0.74374  0.82844  0.44036  1.0000
  H   H1279     1.0  0.70458  0.78428  0.36491  1.0000
  H   H1280     1.0  0.78533  0.78656  0.30261  1.0000
  H   H1281     1.0  0.82577  0.76834  0.30385  1.0000
  H   H1282     1.0  0.84481  0.75786  0.34792  1.0000
  H   H1283     1.0  0.82264  0.76509  0.39093  1.0000
  H   H1284     1.0  0.78221  0.78318  0.39017  1.0000
  C   C1600     1.0  0.78081  0.54669  0.43007  1.0000
  C   C1601     1.0  0.92706  0.61035  0.25515  1.0000
  C   C1602     1.0  0.70185  0.79680  0.40605  1.0000
  C   C1603     1.0  0.77789  0.69758  0.20381  1.0000
  C   C1604     1.0  0.76452  0.67816  0.19483  1.0000
  C   C1605     1.0  0.75658  0.67709  0.16788  1.0000
  C   C1606     1.0  0.76246  0.69516  0.14974  1.0000
  C   C1607     1.0  0.77629  0.71450  0.15849  1.0000
  C   C1608     1.0  0.78359  0.71580  0.18583  1.0000
  P   P54       1.0  0.78520  0.73751  0.13530  1.0000
  C   C1609     1.0  0.77311  0.76554  0.14876  1.0000
  C   C1610     1.0  0.81745  0.73799  0.13346  1.0000
  C   C1611     1.0  0.82841  0.75644  0.11928  1.0000
  C   C1612     1.0  0.85335  0.75663  0.11679  1.0000
  C   C1613     1.0  0.86746  0.73827  0.12819  1.0000
  C   C1614     1.0  0.85663  0.71972  0.14209  1.0000
  C   C1615     1.0  0.83174  0.71950  0.14464  1.0000
  C   C1616     1.0  0.78787  0.78131  0.16322  1.0000
  C   C1617     1.0  0.77832  0.80265  0.17425  1.0000
  C   C1618     1.0  0.75392  0.80816  0.17157  1.0000
  C   C1619     1.0  0.73900  0.79240  0.15769  1.0000
  C   C1620     1.0  0.74850  0.77104  0.14655  1.0000
  C   C1621     1.0  0.77585  0.73120  0.10070  1.0000
  C   C1622     1.0  0.76257  0.74804  0.08538  1.0000
  C   C1623     1.0  0.75574  0.74263  0.05863  1.0000
  C   C1624     1.0  0.76255  0.72066  0.04674  1.0000
  C   C1625     1.0  0.77663  0.70429  0.06142  1.0000
  C   C1626     1.0  0.78337  0.70955  0.08820  1.0000
  H   H1285     1.0  0.78418  0.69838  0.22467  1.0000
  H   H1286     1.0  0.76048  0.66389  0.20872  1.0000
  H   H1287     1.0  0.74633  0.66196  0.16082  1.0000
  H   H1288     1.0  0.75637  0.69367  0.12894  1.0000
  H   H1289     1.0  0.79419  0.73062  0.19316  1.0000
  H   H1290     1.0  0.81765  0.77061  0.11009  1.0000
  C   C1627     1.0  0.67251  0.84506  0.11676  1.0000
  H   H1291     1.0  0.88674  0.73837  0.12611  1.0000
  H   H1292     1.0  0.86742  0.70535  0.15089  1.0000
  H   H1293     1.0  0.82389  0.70471  0.15511  1.0000
  H   H1294     1.0  0.80668  0.77710  0.16649  1.0000
  H   H1295     1.0  0.78975  0.81480  0.18539  1.0000
  H   H1296     1.0  0.74657  0.82454  0.18062  1.0000
  H   H1297     1.0  0.72003  0.79675  0.15586  1.0000
  H   H1298     1.0  0.73667  0.75882  0.13624  1.0000
  H   H1299     1.0  0.75765  0.76546  0.09369  1.0000
  H   H1300     1.0  0.74527  0.75554  0.04703  1.0000
  H   H1301     1.0  0.78057  0.97830  0.29671  1.0000
  H   H1302     1.0  0.78228  0.68738  0.05211  1.0000
  H   H1303     1.0  0.79443  0.69661  0.09914  1.0000
  C   C1628     1.0  0.76076  0.68424  0.31908  1.0000
  C   C1629     1.0  0.78143  0.69742  0.31528  1.0000
  C   C1630     1.0  0.78932  0.71285  0.33579  1.0000
  C   C1631     1.0  0.77651  0.71536  0.36008  1.0000
  C   C1632     1.0  0.75571  0.70219  0.36405  1.0000
  C   C1633     1.0  0.74796  0.68657  0.34338  1.0000
  P   P55       1.0  0.73899  0.70485  0.39539  1.0000
  C   C1634     1.0  0.71095  0.72122  0.39030  1.0000
  C   C1635     1.0  0.73382  0.67496  0.40772  1.0000
  C   C1636     1.0  0.75046  0.65629  0.40203  1.0000
  C   C1637     1.0  0.74739  0.63347  0.41273  1.0000
  C   C1638     1.0  0.72782  0.62909  0.42936  1.0000
  C   C1639     1.0  0.71124  0.64751  0.43519  1.0000
  C   C1640     1.0  0.71418  0.67035  0.42446  1.0000
  C   C1641     1.0  0.70225  0.72618  0.36404  1.0000
  S   S227      1.0  0.66279  0.86878  0.23023  1.0000
  C   C1642     1.0  0.70251  0.94270  0.35583  1.0000
  H   H1304     1.0  0.79075  0.49085  0.44109  1.0000
  C   C1643     1.0  0.69769  0.72946  0.41284  1.0000
  C   C1644     1.0  0.75659  0.72011  0.42088  1.0000
  C   C1645     1.0  0.77334  0.70723  0.43675  1.0000
  C   C1646     1.0  0.78681  0.71896  0.45663  1.0000
  C   C1647     1.0  0.78368  0.74364  0.46088  1.0000
  C   C1648     1.0  0.76725  0.75666  0.44497  1.0000
  C   C1649     1.0  0.75389  0.74500  0.42489  1.0000
  H   H1305     1.0  0.75484  0.67206  0.30327  1.0000
  H   H1306     1.0  0.79153  0.69558  0.29654  1.0000
  H   H1307     1.0  0.80560  0.72263  0.33282  1.0000
  H   H1308     1.0  0.78311  0.72727  0.37575  1.0000
  H   H1309     1.0  0.73208  0.67609  0.34618  1.0000
  H   H1310     1.0  0.76637  0.65952  0.39025  1.0000
  H   H1311     1.0  0.76927  0.51912  0.36943  1.0000
  H   H1312     1.0  0.72587  0.61166  0.43849  1.0000
  H   H1313     1.0  0.97514  0.58436  0.18101  1.0000
  H   H1314     1.0  0.70143  0.68433  0.43010  1.0000
  H   H1315     1.0  0.71214  0.72046  0.34625  1.0000
  C   C1650     1.0  0.87223  0.57156  0.42343  1.0000
  C   C1651     1.0  0.72550  0.93830  0.36667  1.0000
  C   C1652     1.0  0.72142  0.67546  0.08319  1.0000
  H   H1316     1.0  0.70422  0.72646  0.43331  1.0000
  H   H1317     1.0  0.77603  0.68809  0.43398  1.0000
  H   H1318     1.0  0.79961  0.70873  0.46877  1.0000
  C   C1653     1.0  0.70828  0.91802  0.40500  1.0000
  C   C1654     1.0  0.78535  0.53677  0.40419  1.0000
  H   H1319     1.0  0.74128  0.75540  0.41279  1.0000
  H   H1320     1.0  0.68103  0.89791  0.15411  1.0000
  S   S228      1.0  0.82973  0.60909  0.49379  1.0000
  C   C1655     1.0  0.67332  0.68241  0.09762  1.0000
  H   H1321     1.0  0.71046  0.90826  0.42383  1.0000
  C   C1656     1.0  0.75846  0.54421  0.44220  1.0000
  H   H1322     1.0  0.88638  0.56664  0.46391  1.0000
  H   H1323     1.0  0.97085  0.76279  0.28285  1.0000
  H   H1324     1.0  0.74665  0.68193  0.48546  1.0000
  H   H1325     1.0  0.84176  0.56625  0.10338  1.0000
  C   C1657     1.0  0.82529  0.51347  0.37100  1.0000
  H   H1326     1.0  0.70592  0.81025  0.08034  1.0000
  C   C1658     1.0  0.85441  0.56516  0.40480  1.0000
  C   C1659     1.0  0.82595  0.56653  0.09070  1.0000
  H   H1327     1.0  0.67619  0.86754  0.38654  1.0000
  C   C1660     1.0  0.85563  0.49368  0.34276  1.0000
  H   H1328     1.0  0.70316  0.79946  0.03149  1.0000
  S   S229      1.0  0.79108  0.65593  0.99901  1.0000
  H   H1329     1.0  0.75712  0.71635  0.02607  1.0000
  C   C1661     1.0  0.95447  0.66354  0.17345  1.0000
  C   C1662     1.0  0.93347  0.66212  0.15774  1.0000
  C   C1663     1.0  0.92008  0.68288  0.15169  1.0000
  C   C1664     1.0  0.92719  0.70510  0.16187  1.0000
  C   C1665     1.0  0.94784  0.70659  0.17783  1.0000
  C   C1666     1.0  0.96132  0.68588  0.18382  1.0000
  S   S230      1.0  0.81591  0.60296  0.00700  1.0000
  H   H1330     1.0  0.88716  0.50701  0.07435  1.0000
  H   H1331     1.0  0.79887  0.48968  0.38723  1.0000
  S   S231      1.0  0.65862  0.83003  0.29708  1.0000
  C   C1667     1.0  0.80527  0.57801  0.10082  1.0000
  C   C1668     1.0  0.67764  0.98306  0.23483  1.0000
  H   H1332     1.0  0.90798  0.58829  0.10756  1.0000
  H   H1333     1.0  0.80361  0.54695  0.03018  1.0000
  H   H1334     1.0  0.66575  0.74785  0.42693  1.0000
  H   H1335     1.0  0.74330  0.98282  0.32321  1.0000
  C   C1669     1.0  0.96891  0.73409  0.31148  1.0000
  C   C1670     1.0  0.72586  0.95301  0.30340  1.0000
  H   H1336     1.0  0.71341  0.70693  0.14804  1.0000
  H   H1337     1.0  0.67740  0.93971  0.17154  1.0000
  H   H1338     1.0  0.86173  0.77094  0.10590  1.0000
  H   H1339     1.0  0.90372  0.68153  0.13991  1.0000
  H   H1340     1.0  0.91639  0.72108  0.15813  1.0000
  H   H1341     1.0  0.95294  0.72369  0.18649  1.0000
  C   C1671     1.0  0.69366  0.76288  0.03894  1.0000
  C   C1672     1.0  0.84624  0.51441  0.35539  1.0000
  C   C1673     1.0  0.91086  0.52767  0.09905  1.0000
  H   H1342     1.0  0.73141  0.72348  0.47822  1.0000
  S   S232      1.0  0.66504  0.80828  0.49224  1.0000
  H   H1343     1.0  0.79245  0.62420  0.36637  1.0000
  H   H1344     1.0  0.76465  0.77575  0.44839  1.0000
  C   C1674     1.0  0.90357  0.57060  0.09997  1.0000
  C   C1675     1.0  0.76623  0.51033  0.01205  1.0000
  H   H1345     1.0  0.79395  0.75262  0.47653  1.0000
  H   H1346     1.0  0.92747  0.60852  0.18611  1.0000
  C   C1676     1.0  0.68834  0.74602  0.05866  1.0000
  H   H1347     1.0  0.72309  0.53007  0.43819  1.0000
  C   C1677     1.0  0.69999  0.78604  0.04676  1.0000
  C   C1678     1.0  0.71543  0.72911  0.18375  1.0000
  H   H1348     1.0  0.68281  0.72838  0.05212  1.0000
  C   C1679     1.0  0.71319  0.69794  0.09255  1.0000
  H   H1349     1.0  0.85681  0.53607  0.47605  1.0000
  H   H1350     1.0  0.69208  0.75811  0.01760  1.0000
  C   C1680     1.0  0.66381  0.90500  0.16082  1.0000
  H   H1351     1.0  0.75640  0.52448  0.02261  1.0000
  H   H1352     1.0  0.71392  0.92311  0.27907  1.0000
  P   P56       1.0  0.69857  0.95636  0.32288  1.0000
  C   C1681     1.0  0.72848  0.93483  0.28371  1.0000
  H   H1353     1.0  0.98273  0.74268  0.22598  1.0000
  H   H1354     1.0  0.68368  0.79086  0.40847  1.0000
  C   C1682     1.0  0.76615  0.96593  0.29336  1.0000
  C   C1683     1.0  0.80870  0.58175  0.31950  1.0000
  H   H1355     1.0  0.71195  0.63927  0.07308  1.0000
  H   H1356     1.0  0.88504  0.58503  0.41815  1.0000
  C   C1684     1.0  0.65854  0.83234  0.33329  1.0000
  C   C1685     1.0  0.72833  0.92603  0.39118  1.0000
  P   P57       1.0  0.81400  0.54034  0.38795  1.0000
  C   C1686     1.0  0.91676  0.55048  0.10859  1.0000
  C   C1687     1.0  0.70689  0.74978  0.19712  1.0000
  C   C1688     1.0  0.74432  0.52307  0.40231  1.0000
  C   C1689     1.0  0.87307  0.56116  0.44914  1.0000
  H   H1357     1.0  0.73998  0.67268  0.07732  1.0000
  C   C1690     1.0  0.85738  0.55427  0.01704  1.0000
  C   C1691     1.0  0.66642  0.70589  0.00169  1.0000
  C   C1692     1.0  0.74031  0.53213  0.42853  1.0000
  C   C1693     1.0  0.95463  0.62519  0.21108  1.0000
  C   C1694     1.0  0.88436  0.56790  0.08194  1.0000
  H   H1358     1.0  0.73006  0.51414  0.39150  1.0000
  C   C1695     1.0  0.69570  0.77543  0.09410  1.0000
  H   H1359     1.0  0.88361  0.58020  0.03011  1.0000
  C   C1696     1.0  0.66779  0.85286  0.37594  1.0000
  C   C1697     1.0  0.83705  0.54858  0.41196  1.0000
  H   H1360     1.0  0.66822  0.68024  0.03409  1.0000
  C   C1698     1.0  0.92007  0.60469  0.22856  1.0000
  C   C1699     1.0  0.68970  0.73805  0.14492  1.0000
  H   H1361     1.0  0.76074  0.61945  0.40897  1.0000
  C   C1700     1.0  0.68158  0.65998  0.08810  1.0000
  C   C1701     1.0  0.97413  0.59064  0.16026  1.0000
  H   H1362     1.0  0.79431  0.55657  0.44101  1.0000
  C   C1702     1.0  0.66787  0.84722  0.08866  1.0000
  H   H1363     1.0  0.97222  0.70620  0.34117  1.0000
  C   C1703     1.0  0.68912  0.70156  0.09997  1.0000
  C   C1704     1.0  0.90914  0.49275  0.45562  1.0000
  C   C1705     1.0  0.68055  0.73886  0.36050  1.0000
  H   H1364     1.0  0.88590  0.51199  0.39550  1.0000
  C   C1706     1.0  0.70560  0.65652  0.08088  1.0000
  H   H1365     1.0  0.78485  0.94591  0.26196  1.0000
  C   C1707     1.0  0.81190  0.56209  0.33668  1.0000
  H   H1366     1.0  0.80573  0.58723  0.12032  1.0000
  H   H1367     1.0  0.85396  0.57359  0.38507  1.0000
  C   C1708     1.0  0.94764  0.62362  0.25975  1.0000
  C   C1709     1.0  0.68059  0.75830  0.15898  1.0000
  H   H1368     1.0  0.72553  0.71258  0.09377  1.0000
  P   P58       1.0  0.67868  0.73097  0.11112  1.0000
  H   H1369     1.0  0.79927  0.59013  0.39711  1.0000
  C   C1710     1.0  0.79779  0.60683  0.35807  1.0000
  H   H1370     1.0  0.72893  0.71787  0.19345  1.0000
  H   H1371     1.0  0.85530  0.53123  0.35298  1.0000
  C   C1711     1.0  0.68921  0.76415  0.18490  1.0000
  H   H1372     1.0  0.91600  0.60533  0.27214  1.0000
  C   C1712     1.0  0.76663  0.52570  0.39001  1.0000
  C   C1713     1.0  0.80892  0.56493  0.36489  1.0000
  C   C1714     1.0  0.86041  0.49631  0.02649  1.0000
  H   H1373     1.0  0.95043  0.73026  0.30645  1.0000
  H   H1374     1.0  0.81542  0.50926  0.07141  1.0000
  C   C1715     1.0  0.84624  0.51000  0.04470  1.0000
  H   H1375     1.0  0.76824  0.58743  0.09318  1.0000
  H   H1376     1.0  0.69594  0.78109  0.11513  1.0000
  C   C1716     1.0  0.71968  0.71034  0.48665  1.0000
  C   C1717     1.0  0.78354  0.56647  0.06033  1.0000
  P   P59       1.0  0.85237  0.54144  0.05024  1.0000
  C   C1718     1.0  0.90521  0.50737  0.43309  1.0000
  C   C1719     1.0  0.78410  0.57808  0.08558  1.0000
  C   C1720     1.0  0.87807  0.54500  0.07245  1.0000
  C   C1721     1.0  0.89159  0.52490  0.08108  1.0000
  H   H1377     1.0  0.66701  0.76979  0.14979  1.0000
  H   H1378     1.0  0.92702  0.64497  0.15073  1.0000
  H   H1379     1.0  0.67572  0.86166  0.07750  1.0000
  H   H1380     1.0  0.66925  0.64539  0.08578  1.0000
  H   H1381     1.0  0.74131  0.94400  0.35617  1.0000
  H   H1382     1.0  0.76710  0.56620  0.04856  1.0000
  C   C1722     1.0  0.70144  0.79215  0.07432  1.0000
  C   C1723     1.0  0.66726  0.74651  0.38310  1.0000
  H   H1383     1.0  0.67408  0.74291  0.34021  1.0000
  C   C1724     1.0  0.66984  0.85087  0.34738  1.0000
  H   H1384     1.0  0.67967  0.86398  0.33624  1.0000
  H   H1385     1.0  0.70396  0.65806  0.01592  1.0000
  H   H1386     1.0  0.92104  0.51205  0.10582  1.0000
  H   H1387     1.0  0.91473  0.52399  0.43129  1.0000
  C   C1725     1.0  0.97553  0.58190  0.11193  1.0000
  H   H1388     1.0  0.87396  0.58368  0.07601  1.0000
  C   C1726     1.0  0.67649  0.68615  0.01560  1.0000
  C   C1727     1.0  0.68535  0.92254  0.39451  1.0000
  C   C1728     1.0  0.97125  0.61520  0.15492  1.0000
  C   C1729     1.0  0.69586  0.71695  0.49286  1.0000
  C   C1730     1.0  0.81445  0.49125  0.37456  1.0000
  C   C1731     1.0  0.82584  0.55580  0.06467  1.0000
  H   H1389     1.0  0.74612  0.92255  0.39936  1.0000
  C   C1732     1.0  0.68244  0.93495  0.37013  1.0000
  H   H1390     1.0  0.97670  0.68730  0.19716  1.0000
  C   C1733     1.0  0.67419  0.94114  0.30620  1.0000
  C   C1734     1.0  0.74495  0.96851  0.30824  1.0000
  H   H1391     1.0  0.87548  0.50425  0.01647  1.0000
  H   H1392     1.0  0.97659  0.64220  0.24170  1.0000
  C   C1735     1.0  0.96127  0.63117  0.23780  1.0000
  H   H1393     1.0  0.92181  0.49797  0.47124  1.0000
  C   C1736     1.0  0.76326  0.48608  0.01944  1.0000
  H   H1394     1.0  0.65901  0.97943  0.23841  1.0000
  C   C1737     1.0  0.65464  0.83625  0.39086  1.0000
  C   C1738     1.0  0.87323  0.57320  0.01345  1.0000
  C   C1739     1.0  0.67302  0.91603  0.30741  1.0000
  C   C1740     1.0  0.88896  0.50059  0.41291  1.0000
  C   C1741     1.0  0.97618  0.57405  0.13882  1.0000
  H   H1395     1.0  0.97859  0.55513  0.14308  1.0000
  C   C1742     1.0  0.98049  0.75246  0.29811  1.0000
  C   C1743     1.0  0.97129  0.62302  0.12789  1.0000
  C   C1744     1.0  0.66174  0.92857  0.17053  1.0000
  C   C1745     1.0  0.72847  0.68681  0.49093  1.0000
  C   C1746     1.0  0.65416  0.90402  0.29489  1.0000
  C   C1747     1.0  0.97311  0.60638  0.10648  1.0000
  H   H1396     1.0  0.97020  0.64197  0.12334  1.0000
  H   H1397     1.0  0.66980  0.91615  0.40514  1.0000
  C   C1748     1.0  0.65329  0.83079  0.07482  1.0000
  H   H1398     1.0  0.65456  0.68477  0.10257  1.0000
  H   H1399     1.0  0.97306  0.61253  0.08566  1.0000
  H   H1400     1.0  0.97728  0.56907  0.09531  1.0000
  H   H1401     1.0  0.65652  0.97336  0.29097  1.0000
  H   H1402     1.0  0.66451  0.93808  0.36219  1.0000
  C   C1749     1.0  0.65600  0.95405  0.29254  1.0000
  H   H1403     1.0  0.65358  0.88462  0.29556  1.0000
  Fe  Fe114     1.0  0.65217  0.77050  0.49130  1.0000
  Fe  Fe115     1.0  0.71746  0.84756  0.75172  1.0000
  S   S233      1.0  0.67879  0.83824  0.75705  1.0000
  S   S234      1.0  0.73895  0.81249  0.75655  1.0000
  Fe  Fe116     1.0  0.70372  0.90133  0.74302  1.0000
  H   H1404     1.0  0.93954  0.69267  0.85496  1.0000
  S   S235      1.0  0.71913  0.93902  0.73591  1.0000
  Fe  Fe117     1.0  0.67562  0.87112  0.78327  1.0000
  C   C1750     1.0  0.68204  0.74313  0.56502  1.0000
  Fe  Fe118     1.0  0.67123  0.86171  0.72094  1.0000
  C   C1751     1.0  0.86176  0.57600  0.96597  1.0000
  S   S236      1.0  0.71466  0.87961  0.77993  1.0000
  S   S237      1.0  0.70995  0.86945  0.71420  1.0000
  H   H1405     1.0  0.86087  0.74551  0.93006  1.0000
  H   H1406     1.0  0.69147  0.77972  0.61940  1.0000
  C   C1752     1.0  0.80913  0.49360  0.50354  1.0000
  H   H1407     1.0  0.95927  0.69893  0.81069  1.0000
  H   H1408     1.0  0.76114  0.66875  0.82581  1.0000
  C   C1753     1.0  0.69735  0.72396  0.57203  1.0000
  C   C1754     1.0  0.79357  0.49714  0.97691  1.0000
  Fe  Fe119     1.0  0.81333  0.63217  0.52744  1.0000
  S   S238      1.0  0.83620  0.65336  0.55834  1.0000
  Fe  Fe120     1.0  0.81190  0.62958  0.97277  1.0000
  S   S239      1.0  0.84317  0.64037  0.94567  1.0000
  S   S240      1.0  0.78338  0.60664  0.53496  1.0000
  S   S241      1.0  0.77931  0.61253  0.95544  1.0000
  Fe  Fe121     1.0  0.89967  0.69687  0.75440  1.0000
  S   S242      1.0  0.87375  0.66599  0.75561  1.0000
  S   S243      1.0  0.94024  0.68584  0.75556  1.0000
  Fe  Fe122     1.0  0.85752  0.73342  0.75283  1.0000
  S   S244      1.0  0.83000  0.70508  0.75378  1.0000
  S   S245      1.0  0.84708  0.77311  0.75027  1.0000
  Fe  Fe123     1.0  0.85288  0.68800  0.78656  1.0000
  S   S246      1.0  0.83008  0.67388  0.82169  1.0000
  Fe  Fe124     1.0  0.85277  0.68541  0.72276  1.0000
  S   S247      1.0  0.83171  0.66670  0.68833  1.0000
  S   S248      1.0  0.87956  0.71776  0.78730  1.0000
  S   S249      1.0  0.87937  0.71494  0.71984  1.0000
  H   H1409     1.0  0.71339  0.94661  0.79265  1.0000
  C   C1755     1.0  0.97043  0.69561  0.75068  1.0000
  H   H1410     1.0  0.75306  0.68646  0.71671  1.0000
  H   H1411     1.0  0.96176  0.73305  0.74594  1.0000
  H   H1412     1.0  0.73830  0.90082  0.63952  1.0000
  C   C1756     1.0  0.83941  0.65009  0.91134  1.0000
  C   C1757     1.0  0.81789  0.64707  0.89721  1.0000
  C   C1758     1.0  0.81575  0.65406  0.86983  1.0000
  C   C1759     1.0  0.83474  0.66477  0.85615  1.0000
  C   C1760     1.0  0.85628  0.66803  0.87032  1.0000
  C   C1761     1.0  0.85861  0.66059  0.89768  1.0000
  H   H1413     1.0  0.80298  0.63892  0.90719  1.0000
  H   H1414     1.0  0.79932  0.65072  0.85900  1.0000
  H   H1415     1.0  0.87112  0.67619  0.86020  1.0000
  H   H1416     1.0  0.87537  0.66304  0.90834  1.0000
  C   C1762     1.0  0.83319  0.66372  0.65210  1.0000
  C   C1763     1.0  0.81697  0.64857  0.63867  1.0000
  C   C1764     1.0  0.81737  0.64541  0.61011  1.0000
  C   C1765     1.0  0.83417  0.65727  0.59445  1.0000
  C   C1766     1.0  0.85016  0.67271  0.60784  1.0000
  C   C1767     1.0  0.84968  0.67597  0.63640  1.0000
  H   H1417     1.0  0.80418  0.63887  0.65048  1.0000
  H   H1418     1.0  0.80495  0.63347  0.60026  1.0000
  H   H1419     1.0  0.86307  0.68219  0.59603  1.0000
  H   H1420     1.0  0.86210  0.68789  0.64624  1.0000
  H   H1421     1.0  0.71998  0.74695  0.63101  1.0000
  S   S250      1.0  0.73033  0.66330  0.96488  1.0000
  C   C1768     1.0  0.67455  0.92880  0.65064  1.0000
  C   C1769     1.0  0.96987  0.69345  0.82821  1.0000
  H   H1422     1.0  0.92349  0.74865  0.71701  1.0000
  H   H1423     1.0  0.66250  0.70450  0.50848  1.0000
  C   C1770     1.0  0.69303  0.76402  0.60635  1.0000
  H   H1424     1.0  0.71156  0.90857  0.59991  1.0000
  H   H1425     1.0  0.67813  0.86655  0.59884  1.0000
  C   C1771     1.0  0.95877  0.68997  0.85318  1.0000
  H   H1426     1.0  0.66794  0.77801  0.57670  1.0000
  C   C1772     1.0  0.70703  0.68043  0.98084  1.0000
  C   C1773     1.0  0.72054  0.90860  0.64252  1.0000
  H   H1427     1.0  0.98284  0.65785  0.61460  1.0000
  H   H1428     1.0  0.67716  0.86869  0.64935  1.0000
  C   C1774     1.0  0.76923  0.80236  0.75419  1.0000
  C   C1775     1.0  0.78818  0.81783  0.75004  1.0000
  C   C1776     1.0  0.81190  0.80860  0.74860  1.0000
  C   C1777     1.0  0.81690  0.78388  0.75127  1.0000
  C   C1778     1.0  0.79787  0.76846  0.75520  1.0000
  C   C1779     1.0  0.77424  0.77769  0.75680  1.0000
  H   H1429     1.0  0.78464  0.83688  0.74824  1.0000
  H   H1430     1.0  0.82650  0.82070  0.74564  1.0000
  H   H1431     1.0  0.80135  0.74947  0.75737  1.0000
  H   H1432     1.0  0.75971  0.76562  0.76007  1.0000
  H   H1433     1.0  0.77585  0.70265  0.51851  1.0000
  C   C1780     1.0  0.74599  0.65992  0.86452  1.0000
  C   C1781     1.0  0.71921  0.76122  0.95215  1.0000
  H   H1434     1.0  0.97047  0.65255  0.69912  1.0000
  H   H1435     1.0  0.67780  0.79061  0.78969  1.0000
  H   H1436     1.0  0.67037  0.96027  0.74229  1.0000
  C   C1782     1.0  0.76919  0.51084  0.50156  1.0000
  C   C1783     1.0  0.87531  0.58403  0.98805  1.0000
  C   C1784     1.0  0.97250  0.68328  0.87583  1.0000
  H   H1437     1.0  0.66985  0.72860  0.96692  1.0000
  H   H1438     1.0  0.72480  0.91204  0.68584  1.0000
  C   C1785     1.0  0.84431  0.54598  0.99446  1.0000
  H   H1439     1.0  0.69646  0.75900  0.91691  1.0000
  C   C1786     1.0  0.69738  0.70059  0.96734  1.0000
  H   H1440     1.0  0.86163  0.71095  0.96151  1.0000
  H   H1441     1.0  0.73874  0.64314  0.85738  1.0000
  H   H1442     1.0  0.77933  0.70548  0.84232  1.0000
  C   C1787     1.0  0.74233  0.75756  0.96254  1.0000
  H   H1443     1.0  0.74591  0.76105  0.98385  1.0000
  C   C1788     1.0  0.79548  0.51833  0.88055  1.0000
  C   C1789     1.0  0.68267  0.97471  0.73962  1.0000
  H   H1444     1.0  0.81514  0.70946  0.54080  1.0000
  H   H1445     1.0  0.75253  0.65513  0.58249  1.0000
  C   C1790     1.0  0.68089  0.69973  0.50369  1.0000
  C   C1791     1.0  0.80034  0.71158  0.58111  1.0000
  C   C1792     1.0  0.79745  0.49328  0.87932  1.0000
  H   H1446     1.0  0.93891  0.64115  0.62465  1.0000
  H   H1447     1.0  0.73498  0.61724  0.56725  1.0000
  C   C1793     1.0  0.66611  0.85525  0.60981  1.0000
  C   C1794     1.0  0.77989  0.52952  0.89910  1.0000
  C   C1795     1.0  0.84643  0.55683  0.96913  1.0000
  H   H1448     1.0  0.83536  0.55099  0.95226  1.0000
  H   H1449     1.0  0.70485  0.76752  0.96535  1.0000
  C   C1796     1.0  0.79899  0.70892  0.55289  1.0000
  C   C1797     1.0  0.76789  0.49066  0.91498  1.0000
  H   H1450     1.0  0.74064  0.48525  0.50103  1.0000
  C   C1798     1.0  0.70016  0.98001  0.80988  1.0000
  C   C1799     1.0  0.66748  0.70885  0.90330  1.0000
  C   C1800     1.0  0.66564  0.85647  0.63850  1.0000
  C   C1801     1.0  0.78108  0.51607  0.99031  1.0000
  C   C1802     1.0  0.67732  0.71340  0.97779  1.0000
  H   H1451     1.0  0.67930  0.77484  0.72478  1.0000
  H   H1452     1.0  0.70526  0.70609  0.94844  1.0000
  C   C1803     1.0  0.70714  0.96929  0.73649  1.0000
  C   C1804     1.0  0.66326  0.95289  0.83115  1.0000
  H   H1453     1.0  0.66467  0.64444  0.58739  1.0000
  C   C1805     1.0  0.93414  0.74428  0.69919  1.0000
  C   C1806     1.0  0.70550  0.91297  0.62028  1.0000
  H   H1454     1.0  0.80636  0.52912  0.86748  1.0000
  C   C1807     1.0  0.82609  0.70012  0.95086  1.0000
  C   C1808     1.0  0.72357  0.70677  0.77447  1.0000
  C   C1809     1.0  0.74788  0.71104  0.77875  1.0000
  C   C1810     1.0  0.75482  0.72771  0.79845  1.0000
  C   C1811     1.0  0.73753  0.74002  0.81401  1.0000
  C   C1812     1.0  0.71306  0.73646  0.80928  1.0000
  C   C1813     1.0  0.70620  0.71942  0.78966  1.0000
  P   P60       1.0  0.69065  0.75268  0.82910  1.0000
  C   C1814     1.0  0.68173  0.73524  0.85805  1.0000
  C   C1815     1.0  0.70174  0.78168  0.83964  1.0000
  C   C1816     1.0  0.71596  0.79477  0.82190  1.0000
  C   C1817     1.0  0.72274  0.81806  0.82866  1.0000
  C   C1818     1.0  0.71561  0.82846  0.85333  1.0000
  C   C1819     1.0  0.70194  0.81543  0.87141  1.0000
  C   C1820     1.0  0.69499  0.79219  0.86462  1.0000
  C   C1821     1.0  0.71068  0.72461  0.59635  1.0000
  H   H1455     1.0  0.77879  0.54893  0.90066  1.0000
  H   H1456     1.0  0.78138  0.71174  0.61861  1.0000
  C   C1822     1.0  0.68769  0.70154  0.88849  1.0000
  C   C1823     1.0  0.69484  0.71461  0.86589  1.0000
  C   C1824     1.0  0.66478  0.75795  0.80747  1.0000
  Fe  Fe125     1.0  0.75838  0.63762  0.98331  1.0000
  C   C1825     1.0  0.76605  0.51569  0.91619  1.0000
  C   C1826     1.0  0.71281  0.91464  0.66870  1.0000
  H   H1457     1.0  0.69890  0.70874  0.55825  1.0000
  C   C1827     1.0  0.75709  0.68088  0.64800  1.0000
  H   H1458     1.0  0.71820  0.69358  0.75945  1.0000
  H   H1459     1.0  0.76144  0.70135  0.76703  1.0000
  H   H1460     1.0  0.77368  0.73108  0.80164  1.0000
  H   H1461     1.0  0.74330  0.75253  0.82945  1.0000
  H   H1462     1.0  0.68747  0.71585  0.78612  1.0000
  H   H1463     1.0  0.72115  0.78735  0.80232  1.0000
  H   H1464     1.0  0.73303  0.82826  0.81437  1.0000
  H   H1465     1.0  0.69120  0.61179  0.56922  1.0000
  H   H1466     1.0  0.69581  0.82373  0.89024  1.0000
  H   H1467     1.0  0.68356  0.78314  0.87858  1.0000
  H   H1468     1.0  0.75444  0.52443  0.93108  1.0000
  C   C1828     1.0  0.68977  0.92434  0.67286  1.0000
  C   C1829     1.0  0.76265  0.67772  0.67549  1.0000
  H   H1469     1.0  0.83178  0.53161  0.99649  1.0000
  H   H1470     1.0  0.71071  0.70871  0.85493  1.0000
  H   H1471     1.0  0.77816  0.66680  0.68131  1.0000
  H   H1472     1.0  0.71679  0.71041  0.70351  1.0000
  Fe  Fe126     1.0  0.76315  0.62777  0.50278  1.0000
  H   H1473     1.0  0.67404  0.80154  0.68524  1.0000
  Fe  Fe127     1.0  0.79829  0.58437  0.49979  1.0000
  C   C1830     1.0  0.90153  0.64625  0.69439  1.0000
  C   C1831     1.0  0.91485  0.63303  0.71336  1.0000
  C   C1832     1.0  0.93971  0.63528  0.71478  1.0000
  C   C1833     1.0  0.95132  0.65069  0.69718  1.0000
  C   C1834     1.0  0.93806  0.66391  0.67795  1.0000
  C   C1835     1.0  0.91304  0.66177  0.67691  1.0000
  P   P61       1.0  0.95247  0.68399  0.65494  1.0000
  C   C1836     1.0  0.66117  0.74212  0.87279  1.0000
  C   C1837     1.0  0.93775  0.67993  0.62240  1.0000
  C   C1838     1.0  0.93287  0.65661  0.61312  1.0000
  C   C1839     1.0  0.91935  0.65308  0.58947  1.0000
  C   C1840     1.0  0.91068  0.67275  0.57479  1.0000
  C   C1841     1.0  0.91560  0.69600  0.58372  1.0000
  C   C1842     1.0  0.92898  0.69963  0.60749  1.0000
  C   C1843     1.0  0.75766  0.70454  0.58456  1.0000
  C   C1844     1.0  0.68275  0.92341  0.62424  1.0000
  C   C1845     1.0  0.84593  0.71475  0.94913  1.0000
  H   H1474     1.0  0.67214  0.74259  0.54599  1.0000
  S   S251      1.0  0.78371  0.54613  0.97790  1.0000
  C   C1846     1.0  0.94972  0.71462  0.66697  1.0000
  C   C1847     1.0  0.96252  0.73264  0.65412  1.0000
  C   C1848     1.0  0.96092  0.75635  0.66363  1.0000
  C   C1849     1.0  0.94664  0.76218  0.68610  1.0000
  C   C1850     1.0  0.68110  0.94176  0.81537  1.0000
  C   C1851     1.0  0.93590  0.72054  0.68986  1.0000
  H   H1475     1.0  0.88219  0.64478  0.69352  1.0000
  H   H1476     1.0  0.90582  0.62149  0.72740  1.0000
  H   H1477     1.0  0.94989  0.62569  0.73016  1.0000
  C   C1852     1.0  0.71362  0.66960  0.50190  1.0000
  H   H1478     1.0  0.90234  0.67216  0.66266  1.0000
  H   H1479     1.0  0.96388  0.68101  0.89528  1.0000
  H   H1480     1.0  0.82831  0.49576  0.50410  1.0000
  H   H1481     1.0  0.89962  0.66994  0.55687  1.0000
  H   H1482     1.0  0.90850  0.71123  0.57253  1.0000
  H   H1483     1.0  0.93180  0.71778  0.61443  1.0000
  C   C1853     1.0  0.77694  0.70480  0.54038  1.0000
  H   H1484     1.0  0.78744  0.88865  0.67821  1.0000
  H   H1485     1.0  0.81754  0.71437  0.59083  1.0000
  H   H1486     1.0  0.68065  0.92262  0.81131  1.0000
  H   H1487     1.0  0.66213  0.69881  0.92094  1.0000
  S   S252      1.0  0.72394  0.63965  0.50733  1.0000
  H   H1488     1.0  0.80529  0.50121  0.96024  1.0000
  C   C1854     1.0  0.97599  0.71960  0.74628  1.0000
  H   H1489     1.0  0.92694  0.70679  0.70096  1.0000
  C   C1855     1.0  0.72242  0.70535  0.66048  1.0000
  H   H1490     1.0  0.86262  0.58512  0.94664  1.0000
  C   C1856     1.0  0.72818  0.70237  0.68799  1.0000
  C   C1857     1.0  0.75640  0.70245  0.55612  1.0000
  C   C1858     1.0  0.74351  0.66678  0.89174  1.0000
  C   C1859     1.0  0.65424  0.72916  0.89546  1.0000
  H   H1491     1.0  0.70605  0.71497  0.65526  1.0000
  C   C1860     1.0  0.76880  0.69548  0.85629  1.0000
  C   C1861     1.0  0.76602  0.70281  0.88353  1.0000
  C   C1862     1.0  0.75306  0.68831  0.90109  1.0000
  P   P62       1.0  0.77883  0.73030  0.89638  1.0000
  C   C1863     1.0  0.78669  0.74984  0.86876  1.0000
  C   C1864     1.0  0.75610  0.74398  0.91800  1.0000
  C   C1865     1.0  0.73287  0.74797  0.90771  1.0000
  C   C1866     1.0  0.71450  0.75646  0.92475  1.0000
  C   C1867     1.0  0.73752  0.69560  0.64021  1.0000
  H   H1492     1.0  0.68411  0.92898  0.69332  1.0000
  C   C1868     1.0  0.76074  0.74896  0.94558  1.0000
  C   C1869     1.0  0.77509  0.77226  0.86532  1.0000
  C   C1870     1.0  0.78152  0.78710  0.84393  1.0000
  C   C1871     1.0  0.79974  0.77991  0.82608  1.0000
  C   C1872     1.0  0.81175  0.75792  0.82968  1.0000
  C   C1873     1.0  0.80542  0.74303  0.85105  1.0000
  C   C1874     1.0  0.80546  0.72361  0.91625  1.0000
  C   C1875     1.0  0.82524  0.73873  0.91524  1.0000
  C   C1876     1.0  0.84550  0.73410  0.93136  1.0000
  S   S253      1.0  0.66454  0.89443  0.74787  1.0000
  C   C1877     1.0  0.75842  0.67441  0.84673  1.0000
  C   C1878     1.0  0.80607  0.70425  0.93426  1.0000
  H   H1493     1.0  0.73424  0.65538  0.90577  1.0000
  H   H1494     1.0  0.73967  0.69833  0.54610  1.0000
  H   H1495     1.0  0.94551  0.78049  0.69367  1.0000
  C   C1879     1.0  0.77974  0.70966  0.59688  1.0000
  H   H1496     1.0  0.75050  0.69343  0.92221  1.0000
  H   H1497     1.0  0.72901  0.74426  0.88655  1.0000
  C   C1880     1.0  0.67972  0.76308  0.58226  1.0000
  H   H1498     1.0  0.76822  0.67189  0.63285  1.0000
  C   C1881     1.0  0.74846  0.68879  0.69546  1.0000
  H   H1499     1.0  0.77838  0.74589  0.95421  1.0000
  H   H1500     1.0  0.76109  0.77844  0.87898  1.0000
  H   H1501     1.0  0.77243  0.80428  0.84117  1.0000
  H   H1502     1.0  0.80471  0.79144  0.80951  1.0000
  H   H1503     1.0  0.82600  0.75243  0.81585  1.0000
  H   H1504     1.0  0.81514  0.72611  0.85369  1.0000
  H   H1505     1.0  0.82516  0.75416  0.90212  1.0000
  C   C1882     1.0  0.70888  0.74515  0.61308  1.0000
  C   C1883     1.0  0.69956  0.95530  0.80486  1.0000
  H   H1506     1.0  0.69784  0.68579  0.89480  1.0000
  H   H1507     1.0  0.79119  0.69230  0.93580  1.0000
  C   C1884     1.0  0.79936  0.73216  0.67010  1.0000
  C   C1885     1.0  0.82081  0.74117  0.68007  1.0000
  C   C1886     1.0  0.82365  0.76590  0.68246  1.0000
  C   C1887     1.0  0.80505  0.78171  0.67486  1.0000
  C   C1888     1.0  0.78344  0.77285  0.66451  1.0000
  C   C1889     1.0  0.78067  0.74789  0.66247  1.0000
  P   P63       1.0  0.75869  0.79305  0.65592  1.0000
  C   C1890     1.0  0.73315  0.78628  0.67694  1.0000
  C   C1891     1.0  0.76716  0.82360  0.66272  1.0000
  C   C1892     1.0  0.76144  0.83480  0.68757  1.0000
  C   C1893     1.0  0.76879  0.85816  0.69310  1.0000
  C   C1894     1.0  0.78174  0.87056  0.67378  1.0000
  C   C1895     1.0  0.78757  0.85952  0.64898  1.0000
  C   C1896     1.0  0.78044  0.83606  0.64350  1.0000
  C   C1897     1.0  0.71062  0.79718  0.67199  1.0000
  C   C1898     1.0  0.69122  0.79269  0.68891  1.0000
  C   C1899     1.0  0.69414  0.77758  0.71117  1.0000
  C   C1900     1.0  0.71648  0.76684  0.71648  1.0000
  C   C1901     1.0  0.73592  0.77124  0.69958  1.0000
  C   C1902     1.0  0.75084  0.79126  0.62011  1.0000
  C   C1903     1.0  0.76021  0.77285  0.60326  1.0000
  C   C1904     1.0  0.75315  0.77119  0.57597  1.0000
  C   C1905     1.0  0.73695  0.78804  0.56515  1.0000
  C   C1906     1.0  0.72830  0.80698  0.58140  1.0000
  C   C1907     1.0  0.73542  0.80877  0.60865  1.0000
  H   H1508     1.0  0.79732  0.71292  0.66870  1.0000
  H   H1509     1.0  0.83509  0.72892  0.68637  1.0000
  H   H1510     1.0  0.84011  0.77282  0.69092  1.0000
  H   H1511     1.0  0.80757  0.80074  0.67777  1.0000
  H   H1512     1.0  0.76391  0.74062  0.65544  1.0000
  H   H1513     1.0  0.75153  0.82547  0.70286  1.0000
  H   H1514     1.0  0.76455  0.86656  0.71252  1.0000
  H   H1515     1.0  0.79788  0.86904  0.63413  1.0000
  H   H1516     1.0  0.78549  0.82758  0.62440  1.0000
  H   H1517     1.0  0.70794  0.80973  0.65570  1.0000
  H   H1518     1.0  0.72017  0.84680  0.85815  1.0000
  H   H1519     1.0  0.68185  0.68263  0.60303  1.0000
  H   H1520     1.0  0.71906  0.75604  0.73447  1.0000
  H   H1521     1.0  0.75323  0.76365  0.70510  1.0000
  H   H1522     1.0  0.77291  0.75970  0.61092  1.0000
  H   H1523     1.0  0.76005  0.75666  0.56323  1.0000
  H   H1524     1.0  0.73106  0.78640  0.54417  1.0000
  H   H1525     1.0  0.71581  0.82015  0.57294  1.0000
  H   H1526     1.0  0.72884  0.82388  0.62066  1.0000
  C   C1908     1.0  0.68383  0.64689  0.58650  1.0000
  C   C1909     1.0  0.69874  0.62842  0.57645  1.0000
  C   C1910     1.0  0.72347  0.63146  0.57538  1.0000
  C   C1911     1.0  0.73331  0.65315  0.58375  1.0000
  C   C1912     1.0  0.71836  0.67206  0.59311  1.0000
  C   C1913     1.0  0.69362  0.66856  0.59513  1.0000
  P   P64       1.0  0.73105  0.69989  0.60446  1.0000
  H   H1527     1.0  0.82639  0.68521  0.96476  1.0000
  H   H1528     1.0  0.91502  0.63508  0.58285  1.0000
  Fe  Fe128     1.0  0.78208  0.58653  0.99046  1.0000
  H   H1529     1.0  0.67176  0.92740  0.60661  1.0000
  C   C1914     1.0  0.66349  0.77792  0.79032  1.0000
  C   C1915     1.0  0.68979  0.67619  0.50826  1.0000
  S   S254      1.0  0.65879  0.87523  0.82545  1.0000
  H   H1530     1.0  0.67813  0.66298  0.51666  1.0000
  H   H1531     1.0  0.68865  0.97355  0.65910  1.0000
  H   H1532     1.0  0.88679  0.59924  0.98559  1.0000
  C   C1916     1.0  0.98420  0.67713  0.65306  1.0000
  C   C1917     1.0  0.75983  0.48743  0.50177  1.0000
  C   C1918     1.0  0.66395  0.97756  0.83655  1.0000
  C   C1919     1.0  0.79399  0.51419  0.50203  1.0000
  H   H1533     1.0  0.75715  0.52626  0.50105  1.0000
  H   H1534     1.0  0.97095  0.77016  0.65378  1.0000
  H   H1535     1.0  0.97388  0.72829  0.63689  1.0000
  S   S255      1.0  0.80715  0.54332  0.49988  1.0000
  H   H1536     1.0  0.74180  0.98476  0.73123  1.0000
  S   S256      1.0  0.79205  0.65424  0.49738  1.0000
  C   C1920     1.0  0.67280  0.98488  0.66135  1.0000
