data_image0
_chemical_formula_structural       HCSHSFeS2FeSFeS3FePHFeS2CSFeS3FeS2FeS2FeSFeS3HCHCH2C2HCFeHC8H4C6H4C6H4C3H2C6H6C5HCHC7H2CH2PC5H3C2H3CH2CHCH2CH6CHCH5C2HCH4CH3C6HCH2CH3C5HC3HCHC3PH2C2HC2HC2H4C2H5C2HCH6CHC2H2C4H5C2H3CHC5HCHCHCH2CHC5HCHCFeC2H2CHCHC3SH2C4HC2HC8PC9H3C6HC3H3PH7CH2CFeHSCHC2H3C2HC2PH3C3HC2HCSFeSFeS2FeSFeS3FeCSFeS2HSFeS3FeS2FeS2FeSFeS3C4PC5SH2C7H4C6H4C6H4C3HC7H4C2HCH2C6HCHCHCHCHC2HCPH5C2HCH2CH3CHCHCH2CHC6HCHC4H2CPH3C3H2C2H3C2HC2H2CHCHC2HCH2C2HC2HC3H2C4H2CH2C2FeH3C4HC6H2CPC3H3C6H2CH3CH2C2HCH4C5H2C6PC5H2CH4C2HCHCH7CHC2HC7HPHC2HPC5H5C4H2CHCFeH2C6HCH2CH2C7HC2H2C2H2CH2CHCH2CH5C4H3CH9C2HCHC5HCFeS2FeS2FeSFeS3FeSFeS2CFeSCFeS2FeS2FeSFeS4FeS2FeHS3FeS3FeCFeCSFeS2PC2HC3H2C6H4C2HC5H2C6H4C6HCH2C6H4C6H4C6H5C2HCHC2HC9H4C2HC9H5CH4CPC2HCHC2H5CHC6PCH3FeH2CHC2H2CH6CH5C7HC3HC3HCH2CSCH5CHC2H2CHCFeCHC3H3C2HSHC3H2C7PC18HCH20CHC7PC3HCHC12H2CH5CH3CH7CHC4PC3HCHCH2C2HC7HCH2CH6CPH3CHCHC3SC2HCHCH2CH3C4HCH3C2HCHSCH2CHCHSCH4C2HCH2CH2C3HC3PCH4C2HCHC6HC4H3CH3CPCHC8HCHCHC5HCHCH4C6HC7HC3H4C2HC5H4C2H3CH3C2SC3HC2H2CHC3HCH2CHCHCH4C6HCHCPSH3C2H3CH2C5HCH5C2H3C2FeS2FeS2FeSFeS3CSFeS2CFeSHFeS2FeS2FeSFeS4FeS2FeCSC2FeS3FeSFeS2FeS2HC3HC10H4C5H5C6H4C6H4C6H4C6H4C6H4CHCPC5HC8H4CH2CH3CHCH2C2HCH2C2H5CHCHCH2CHC4PC9HSC8H8C2H5C6PC18H20C6PCH2C2H2C2HC2HC3H5CHC3H5CH3CHC7HSC2H3C2HC3HCH4C3FeHC2H2C4HC8PC5H2C12HCH4CHPH7C2PC2HC3PC3H2C3HC3HCH2C2H2C2HC2H2PC4H3CHCHCFeHC4HC3H4CHCHC4H2CFeHCHCHC3HCHCPC7HPC5SCH8CH3CHCH6C2HC6H5CHCH2C5HC2H8SHCH2CSH2CHC3H5CH2CH3CHCH3C4H2FeS2FeS2FeSFeS3CHSHFeSFeSH2SC4FeS2FeS2FeSFeS3FeS2FeCSCHCS2C6H4C6H4C6H3C7H4CHPH2C10HC6H4C6H4C6H4C3HC3H2PC4HC15HCHC2FeH7CH3CHCH2C3H2C2HCSCH2C4H4CH2SCHCH2C3HC8H2CHC2HC8H4CHFeH3SCHCHC2H2CH2SH2CH2CH4PC2HCHC2PHCH5C5H2CH2C3H2CHFe2HC2HC2H5CHC2HCSHCHC2SHC2H2C3HPH2C2H2C3HC2HC2H3CH2C5HCHC6HC4H2PCSC3HCH2CH3CHC2HC3H3C2HC3H4CH3C2HCH2C3H4CHCH2C5HC2PC4H3SC2HCPHC2H2PCHCH2C2H2CH2FeS2FeS2FeSFeS3HCSCFeSFeSC2SHC2Fe2S2FeS2FeSFeS3FeS2FeHCHSHSHC6H4C6H4C6H4C6H5C4HC4HCH2CHC6H4C6H4C6H4C3H2C2H2CSCH2C2H2C3HCH3C4HC2PC2SCSH2CSCH3CSCPHC4HC4SHCH3C2H3CHC4H4CHC3H4C2H2SCHCHC5H3PHC4FeHCHSC2HCFePC3H3SHC4HCH2CSCH4CH2CH2C5H2CH3C2H2C2HC2HCH8C2HCHCH2C6PC18H20CH2C2H2CH2CHC2HSC3HC2HCHCHCH2FeH3C2HCH2FeS2FeHSCSFeS5CHFeS2FeHFeSFeS2C3HC7H4C6H4C6H4CHCHC2HCH2PC2HCHC3PH2CHC3HC2H4C3HC2SCHC2H2CHPCH3SH2CHC2H2C7H3CHC4HC6FeCHC2SC2H4C5SC2HC2H2C6H2CH4CH2CH5C7HC2H3CHC2HC3H2PHCHCH2PC2H2CHCHC2HCH2CHFeCHCHCH3C3H3C7HCHCH2C2H2C3H2C2HC3H5C2FeC4HCHC2H2CH2C5FeS2FeS2CSFeS4H2CFeS2FeCFeS4CHC3H2C6H4C6H4C6H2CH2PCH3C4HC6H2SC2H2C2H4CH2CH2FeH2C3HC2HC8HCH2C2HC2HC3H2CHCPCHC6H3C2H5SH2C5H2CHPHCHC4HCHCH2CH2C8H3CH2C2HC5H3PH5CHCH2C2H3CH2C4H3CHC4HC4HC2H5CPHC2HC3SH5CHSHSHFeSC2HCFeS2FeS2FeSFeS3FeS2FeSHFeSFeS3Fe2SFeS2HSFeS3C6H4C3HFeHC6H4C6H6CH2C6H3C7H4CHC5H3CHCHC7FeH7CH2CH3SCH3C2H2C3SCHC3H9C4PHC2PSH3CHCH3CH3C2H2CHC8HCH2C8PC18H20CHC2HCHC5HC6H3C3PCHCH3CHCHCHC2SHC2HC3HPH3C2H2CHC9PH2CHCH2C2HC4PC3HC2H2CHCH2C2HC3H5CHC5HC4H3C2H3C2H2CH2CHC2H2CHCSC2HCPC4HC9H3CH2CH3C2H4C2HCHC3H2C2H4CH2C2H2C2HSHSCFeSH2SHFeS2FeS2FeSFeS3FeS2FeSHFeSFeS3FeCHFeS2CHFeS3C6H5CHC9H4C6H5C3HC6H4C6H4CHCHPC2HCSHC2PC13H9C2H3C2H2FeCSC3H2C2H6C3H3FeCHC2HC2H2C2HC2HC4PCH3C6HC2PCH6CHC4H2CH2C3HCHC4HC2H2CHCHCH2C4HC8H3CPC2S2CHC2SH2C2HCHCHCH3C2HPC14SH2CHCH6C2H6CH2CH2CHC3FeCHC3HCH6C5H3C7HCPHC3HC3H2CH3CHFeHC2H2C2HCHCH2CHCH2CHC2H4CH3C2H2SHCH2CH2C2H2CHCHCHCH2CHCFeSCFeS2FeCHCSFeS3FeS2FeS2FeSFeS3FeS2FeS2FeSFeS4C6H4C5H2C2HSCHC3HC2HC6H4C6H4C6H4C7H4CHC12H7CH4C2HC2HCHCH2C3H3CH2PH2C2HC2PC2HC7H11CHC3HCHCHCHCHC2HC3H2C2HC3H2CPHC3H2C2FeHCHC2HC4H2CH2CHC4HPH3C6PCHC3HCPC2SCHC3H3C4HSCH2CHC4H3C2HC2H2C2H4C2H3C5HC3HPH2CH4CHCHC3HC2H2C2HCH2CHCS2C3H5C5HCHCH2CH2CHC2H6CH2C5HCPC7HC2HCH2CPHC2HSC3H4CH3CH3CHCH6C2H2C3SCFeSHFeS2FeCHCSFeS3FeS2FeS2FeSFeS3FeS2FeS2FeSFeS4C6H6C3H2CH3CH2C4H2C6H4C6H4C6H5C6H5C3HPC5H3PC2HC3H2C2H2CH2CH4C4H2CHC5HFeH3CHCH4CHC2H2C6HCH5CHC4HC2HCPC2H2C4H6C3H4CH2CHC2H2PCHC3H2C8HC2H3C2H7CHC8H7CH2C2HCH2CHCHCHC2H2C2H2PHCHCHC4H2C3H2CHC2HC5H2C11H2C2SC6PC3H3C2HC2HC6H6PCH6CH5CH2C2HCH2C2H2C2H2C5HCHC5SHFeH3FeS2FeS2FeSH3SCS2FeS2FeCFeSHSC2SC3H2FeC6H4C2HCHC6H4C6H6C3H2C3HCHC3HCH2C2H2C2HC2HC2HC2H2CH2CHSC3HCHC2HCH3C2HCPC4HC2SCH2C7HC2PCHFeCH2C4H7C2HC3HC2HCHC5HCHCH2C2H2C2HCH4CH3FeHC2H2C4HPC2HCHC2HC2H3C3H2C3HPCHC2HCH9C4HCHC3FeS2FeS2FeSHCHSCS2FeS2FeSFeSHSC2HCHCHCHC6H4C2HCHC6H4C6H4CH3C2HCHCH2C2HCHCHCHC2HC3H4C3HCH3CH2CHCH2PC2HC3HCHC2HCHCH2FeCH8C5HCHCH2C5HCSCHC6H2C3HC4H2CH3CHC2H2SCSH2C2H2CHCHC4H2C3HCH2C2PC3HC3Fe2H4C2HC3HPC8HC3HCH3C2H2CHC2H2CH3CSH2CHCH2C4SHCSH3C2H2PH2C3HC2FeHCSHCS2HSHSFeS2FeS2FeSFeS3FeS2FeS2FeSFeS3CHSC2H2FeSCH2SC6H4C6H4C6H4C9H4CFeCH2SC2HC6H3C7H4C6H4CHC2H2CHC7HC11H6FeHCHCH5C3HCH2C2HC6H2CH3CH2C2HCHC4H3CH6CH2CHC2HPHC3HCPC6PC3HC5HSHC4HCH5C2H2CH2CHCH2CH2CHCHCHSCH3C2H3C2HFeCFeHCH3C3H2C3HCH2C2HPC3H4C3H2C5HCH3C3H2C6H2C2HCHCHPC3HCHSC2HCHC3HC6PC4H5CH2CH3C4H2CH10FeCHCH2CHC3HCSHCHC2H5SC2S2H2CHFeS2FeS2FeSFeS3FeS2FeS2FeSFeS3HPSC2FeCHSH3SC6H4C6H4C6H4C4H3PCHFeH2PHC2HC2SFeC6H4C7H3C6H5C2HC2H2CHCH4C2H7CFeC2H2C2HCHC2HC2HC3SCHCH2C2H3CHC3HC3HCH3SH2C4HCHCHCH2C3HC2FeC4HC10H6PH5CHCHCHC6HCHCH2C2HC2HC2H2C2HCH2C3PC4HC10HFeH2CH2C2H5CHCHSC2HCHCHFePSC8HC5H4CH5CHC2H5C2H2CHC2H2C2HC2SH2C2H3FeC4HC3FeHSFeCFeSCFeS2FeSFeS3FeS2HCHFeS3CSFeS2FeS2FeSFeS3CHFeSCHSFeS2FeH2FeSCHS2C2H3C6H4CHPCH2CSHC6H3C6H4C6H4C6H4C6H5CH4C7H4C2HC2H2CHPC14HC3HCH11CSH2C4HCH5CH2C2HCH5CFePC5HC2H2C2H4C2HC2H3CFeHC2SH2CHC3PC19SCH11CH5C6PC18H21SCHC2HSCHC2HC2H2CH2FeC2H2CHC2HC9H2C2SCPH2C2HCHCPHCHCHCHC5HC2H4CH2C3H3C2H2CH2C5H2C2H2SC3SC2HC5SCH2CSC2H5CH2CHCHC2SFeC4H2PC2SC2HC5H3CHC2H4C3H3CHC2HCH6C2H4C2H2CHC2HCFeCH8C2HC2HCFeHSCHFeSCFeS2FeCFeS3FeS2HCFe2SHSCSFeS2FeS2FeSFeS3C2FeSC2SFeS2FeHSFeSCS3CHCH2C6H4C5H2FeC2H2C4H2C6H4C6H4C6H4C6H4CH2C2HC7H4C3HC2H2C3H2C2HC3H2C3H2C3H2CHSHPH5C4HC4H2CH3CHSHC3H2CHCH2C9PC18H7CSH9CH3C2HC2HC3HSHC2PHC2H2C2H2CH3C4H4C4H2C4H5C2H2C12HC3HFeHCH3C3SH4C2H2CHCH2SHCH2CH3CHC2HC4HC2H2C2HCHC5HC4HC4PCFeCHC2H2C2HCHCHC3H3C2H2C2HC2HC4SP2HC3SCH4C4HPH2FeCH3CHC2PH3CHCHCHCH3C7H3C4H2C2H3CH4CPH2C3HC3HC3HCHSCHC2HCHC2H2C2HCH2CH2CHC2H2CSH2C2HC2HC2HSCH2C3H3C2H2C2PHC2H2CHSC2PH4CHC3H3CHCHC2HC2HC4H3CHCH2SCH2C2H2C2HCHCHCHCHC3SCSCFeSHFeS2FeSCFeSFeCS2FeHSFeS2FeSH2S2FeS2FeSFeSFeS3C9H4C6H4C6H4C6FeHC3HC6H4C8H4SCHC5HCHC3H2C2HC3HCH2CH3CH3PHCHCHCHCHC2H2C3HC2HCH3C3PC9H8CH2C5HPHC6H5C3H5CHCHC2H3CHCSH4CH3CH2CHC2HC4HCH2CHSC8H3C2HCHCHCHC3H2CH2C2HCHC2H3SCHCH2CHCHPCHCPC2HCH5C2HCPCHC2HCHPC2HC5H2CH2C4H2CH2C2HC2PCHC2HCH2C2H2C5HC2HCHC3HC2HC2HSCH2CH2C4H2SC6H3CH3CHCH3C3HC2HC7FeSCFeS2FeSHFeSFeHS2FeS2FeS2FeSFeS3FeS2FeSFeSFeS3H2C7H4C6H4C6H4CH3CPHC2HCSC6H5CHC7PC17H6CH5CH5C6PC10H2PCHCHCH8CH3CH3CHCHC3H2C3H2C4H2CH3C3H2CSC2HC3H3CHC2H2C2HC3H2CHCHC3HC6PC18H20C3H2CHCH2C2HSCH3C2HC2H5C3H2CH3CH2CH2CH2C2HFeC2HC2H3C2HC2HCHPHCH2SC6H2CHC4H3CH2CHCH2PHCHC2HC2HPCSHC2HC
_chemical_formula_sum              "H3456 C4320 S576 Fe288 P144"
_cell_length_a       88.7867
_cell_length_b       89.4559
_cell_length_c       45.1474
_cell_angle_alpha    90.9183
_cell_angle_beta     92.7043
_cell_angle_gamma    113.782

_space_group_name_H-M_alt    "P 1"
_space_group_IT_number       1

loop_
  _space_group_symop_operation_xyz
  'x, y, z'

loop_
  _atom_site_type_symbol
  _atom_site_label
  _atom_site_symmetry_multiplicity
  _atom_site_fract_x
  _atom_site_fract_y
  _atom_site_fract_z
  _atom_site_occupancy
  H   H1        1.0  0.34236  0.04028  0.11123  1.0000
  C   C1        1.0  0.30203  0.11511  0.00940  1.0000
  S   S1        1.0  0.25310  0.16251  0.09552  1.0000
  H   H2        1.0  0.26212  0.09503  0.05147  1.0000
  S   S2        1.0  0.45578  0.05899  0.30556  1.0000
  Fe  Fe1       1.0  0.44305  0.08171  0.24503  1.0000
  S   S3        1.0  0.42475  0.06428  0.27520  1.0000
  S   S4        1.0  0.43300  0.09695  0.21577  1.0000
  Fe  Fe2       1.0  0.44396  0.07663  0.31224  1.0000
  S   S5        1.0  0.44199  0.08325  0.36115  1.0000
  Fe  Fe3       1.0  0.43813  0.04804  0.26620  1.0000
  S   S6        1.0  0.43023  0.02042  0.26515  1.0000
  S   S7        1.0  0.46180  0.09465  0.28290  1.0000
  S   S8        1.0  0.45531  0.06457  0.23399  1.0000
  Fe  Fe4       1.0  0.39570  0.14412  0.02583  1.0000
  P   P1        1.0  0.43589  0.15477  0.37364  1.0000
  H   H3        1.0  0.32511  0.18235  0.03042  1.0000
  Fe  Fe5       1.0  0.40845  0.11891  0.04962  1.0000
  S   S9        1.0  0.39325  0.09996  0.01444  1.0000
  S   S10       1.0  0.42579  0.11059  0.07779  1.0000
  C   C2        1.0  0.47012  0.14921  0.44886  1.0000
  S   S11       1.0  0.39565  0.10759  0.43585  1.0000
  Fe  Fe6       1.0  0.37279  0.10757  0.02451  1.0000
  S   S12       1.0  0.34655  0.08781  0.02316  1.0000
  S   S13       1.0  0.41803  0.13896  0.01637  1.0000
  S   S14       1.0  0.38729  0.12536  0.06161  1.0000
  Fe  Fe7       1.0  0.23422  0.06506  0.11285  1.0000
  S   S15       1.0  0.25048  0.06287  0.15090  1.0000
  S   S16       1.0  0.22363  0.08480  0.11541  1.0000
  Fe  Fe8       1.0  0.23722  0.03687  0.07640  1.0000
  S   S17       1.0  0.25431  0.03384  0.11220  1.0000
  S   S18       1.0  0.23522  0.02157  0.03357  1.0000
  Fe  Fe9       1.0  0.23654  0.03539  0.14529  1.0000
  S   S19       1.0  0.23225  0.01688  0.18326  1.0000
  Fe  Fe10      1.0  0.26667  0.06122  0.11513  1.0000
  S   S20       1.0  0.29408  0.07783  0.12086  1.0000
  S   S21       1.0  0.21887  0.03743  0.10910  1.0000
  S   S22       1.0  0.25097  0.06434  0.07751  1.0000
  H   H4        1.0  0.39739  0.07764  0.18117  1.0000
  C   C3        1.0  0.22049  0.00964  0.00496  1.0000
  H   H5        1.0  0.31331  0.12092  0.99800  1.0000
  C   C4        1.0  0.21646  0.06895  0.04059  1.0000
  H   H6        1.0  0.37221  0.13622  0.41862  1.0000
  H   H7        1.0  0.42859  0.18368  0.38745  1.0000
  C   C5        1.0  0.21960  0.00534  0.21208  1.0000
  C   C6        1.0  0.47863  0.11969  0.36558  1.0000
  H   H8        1.0  0.33468  0.16230  0.07936  1.0000
  C   C7        1.0  0.46313  0.00086  0.19669  1.0000
  Fe  Fe11      1.0  0.47264  0.07609  0.27415  1.0000
  H   H9        1.0  0.37777  0.01019  0.03130  1.0000
  C   C8        1.0  0.27602  0.01613  0.39562  1.0000
  C   C9        1.0  0.46362  0.02718  0.21232  1.0000
  C   C10       1.0  0.33233  0.08510  0.05099  1.0000
  C   C11       1.0  0.33650  0.09487  0.07710  1.0000
  C   C12       1.0  0.32471  0.09238  0.09843  1.0000
  C   C13       1.0  0.30863  0.08019  0.09379  1.0000
  C   C14       1.0  0.30450  0.07036  0.06778  1.0000
  C   C15       1.0  0.31633  0.07276  0.04657  1.0000
  H   H10       1.0  0.34879  0.10436  0.08084  1.0000
  H   H11       1.0  0.32803  0.09998  0.11860  1.0000
  H   H12       1.0  0.29221  0.06087  0.06407  1.0000
  H   H13       1.0  0.31304  0.06505  0.02656  1.0000
  C   C16       1.0  0.43033  0.09966  0.17701  1.0000
  C   C17       1.0  0.42181  0.10928  0.16800  1.0000
  C   C18       1.0  0.41974  0.11224  0.13774  1.0000
  C   C19       1.0  0.42647  0.10587  0.11600  1.0000
  C   C20       1.0  0.43485  0.09611  0.12495  1.0000
  C   C21       1.0  0.43657  0.09281  0.15516  1.0000
  H   H14       1.0  0.41684  0.11459  0.18458  1.0000
  H   H15       1.0  0.41341  0.11988  0.13131  1.0000
  H   H16       1.0  0.44012  0.09111  0.10839  1.0000
  H   H17       1.0  0.44296  0.08521  0.16155  1.0000
  C   C22       1.0  0.40871  0.10080  0.41560  1.0000
  C   C23       1.0  0.42239  0.09901  0.42903  1.0000
  C   C24       1.0  0.43237  0.09368  0.41197  1.0000
  C   C25       1.0  0.42881  0.08994  0.38130  1.0000
  C   C26       1.0  0.41513  0.09174  0.36786  1.0000
  C   C27       1.0  0.40521  0.09718  0.38490  1.0000
  H   H18       1.0  0.42523  0.10164  0.45259  1.0000
  H   H19       1.0  0.44288  0.09231  0.42269  1.0000
  H   H20       1.0  0.41219  0.08894  0.34436  1.0000
  H   H21       1.0  0.39470  0.09853  0.37420  1.0000
  C   C28       1.0  0.40488  0.00802  0.22105  1.0000
  C   C29       1.0  0.41463  0.00474  0.24306  1.0000
  C   C30       1.0  0.45893  0.16750  0.01568  1.0000
  H   H22       1.0  0.40690  0.02052  0.21689  1.0000
  H   H23       1.0  0.31438  0.11054  0.04830  1.0000
  C   C31       1.0  0.24466  0.14095  0.10187  1.0000
  C   C32       1.0  0.22917  0.13266  0.11324  1.0000
  C   C33       1.0  0.22301  0.11558  0.11722  1.0000
  C   C34       1.0  0.23227  0.10647  0.11033  1.0000
  C   C35       1.0  0.24778  0.11478  0.09904  1.0000
  C   C36       1.0  0.25381  0.13179  0.09460  1.0000
  H   H24       1.0  0.22187  0.13937  0.11887  1.0000
  H   H25       1.0  0.21098  0.10938  0.12589  1.0000
  H   H26       1.0  0.25511  0.10808  0.09362  1.0000
  H   H27       1.0  0.26567  0.13791  0.08535  1.0000
  H   H28       1.0  0.24692  0.05223  0.43773  1.0000
  H   H29       1.0  0.28869  0.09786  0.07503  1.0000
  C   C37       1.0  0.46642  0.16239  0.40427  1.0000
  C   C38       1.0  0.37619  0.09492  0.18708  1.0000
  C   C39       1.0  0.39060  0.06767  0.10885  1.0000
  C   C40       1.0  0.12155  0.18424  0.47042  1.0000
  C   C41       1.0  0.22050  0.04299  0.26377  1.0000
  H   H30       1.0  0.28859  0.07550  0.01382  1.0000
  C   C42       1.0  0.44105  0.11936  0.32146  1.0000
  H   H31       1.0  0.98252  0.17528  0.33232  1.0000
  C   C43       1.0  0.27311  0.10037  0.03929  1.0000
  C   C44       1.0  0.34421  0.05997  0.14172  1.0000
  C   C45       1.0  0.18004  0.00733  0.32195  1.0000
  C   C46       1.0  0.38929  0.06528  0.18605  1.0000
  C   C47       1.0  0.36611  0.06801  0.08339  1.0000
  C   C48       1.0  0.45316  0.13975  0.44807  1.0000
  C   C49       1.0  0.27923  0.07149  0.48341  1.0000
  H   H32       1.0  0.19262  0.01011  0.48115  1.0000
  H   H33       1.0  0.37526  0.12370  0.37112  1.0000
  C   C50       1.0  0.37343  0.05784  0.17208  1.0000
  H   H34       1.0  0.35107  0.03555  0.16826  1.0000
  H   H35       1.0  0.31194  0.02885  0.10513  1.0000
  P   P2        1.0  0.31883  0.18482  0.09296  1.0000
  C   C51       1.0  0.47804  0.00900  0.18306  1.0000
  C   C52       1.0  0.28439  0.02179  0.44809  1.0000
  C   C53       1.0  0.27120  0.00720  0.45460  1.0000
  C   C54       1.0  0.22574  0.12885  0.00993  1.0000
  C   C55       1.0  0.33569  0.04598  0.12325  1.0000
  H   H36       1.0  0.39801  0.06830  0.12891  1.0000
  H   H37       1.0  0.37420  0.08594  0.20392  1.0000
  H   H38       1.0  0.28281  0.08398  0.47668  1.0000
  C   C56       1.0  0.30748  0.18528  0.05899  1.0000
  C   C57       1.0  0.22836  0.08347  0.03075  1.0000
  H   H39       1.0  0.23826  0.03776  0.23958  1.0000
  H   H40       1.0  0.44479  0.00421  0.22276  1.0000
  H   H41       1.0  0.10587  0.18326  0.05305  1.0000
  C   C58       1.0  0.21348  0.05404  0.02609  1.0000
  H   H42       1.0  0.24729  0.02505  0.44613  1.0000
  H   H43       1.0  0.28694  0.18713  0.08059  1.0000
  C   C59       1.0  0.34167  0.05339  0.44080  1.0000
  H   H44       1.0  0.43018  0.10496  0.01051  1.0000
  C   C60       1.0  0.42966  0.14405  0.31419  1.0000
  H   H45       1.0  0.47182  0.17118  0.38755  1.0000
  H   H46       1.0  0.23104  0.00161  0.41170  1.0000
  C   C61       1.0  0.27221  0.10539  0.01029  1.0000
  H   H47       1.0  0.29027  0.15968  0.11856  1.0000
  H   H48       1.0  0.46600  0.99504  0.25624  1.0000
  H   H49       1.0  0.22596  0.99137  0.13496  1.0000
  H   H50       1.0  0.18527  0.01160  0.30094  1.0000
  H   H51       1.0  0.46136  0.17203  0.33277  1.0000
  H   H52       1.0  0.20005  0.01352  0.20523  1.0000
  C   C62       1.0  0.36895  0.03326  0.19923  1.0000
  H   H53       1.0  0.40968  0.06798  0.08084  1.0000
  C   C63       1.0  0.22227  0.05364  0.00147  1.0000
  H   H54       1.0  0.18755  0.01426  0.39683  1.0000
  H   H55       1.0  0.22090  0.10536  0.98981  1.0000
  H   H56       1.0  0.34768  0.04969  0.42354  1.0000
  H   H57       1.0  0.31913  0.03192  0.43482  1.0000
  H   H58       1.0  0.47864  0.14363  0.36218  1.0000
  C   C64       1.0  0.31846  0.03940  0.11990  1.0000
  C   C65       1.0  0.16646  0.99485  0.37554  1.0000
  H   H59       1.0  0.20456  0.04280  0.03430  1.0000
  C   C66       1.0  0.20109  0.99309  0.46074  1.0000
  H   H60       1.0  0.43541  0.11424  0.27450  1.0000
  H   H61       1.0  0.42095  0.04661  0.99928  1.0000
  H   H62       1.0  0.23010  0.05589  0.39581  1.0000
  H   H63       1.0  0.45801  0.03406  0.22407  1.0000
  C   C67       1.0  0.16516  0.99351  0.32187  1.0000
  H   H64       1.0  0.21703  0.04873  0.24526  1.0000
  H   H65       1.0  0.39372  0.06749  0.03411  1.0000
  H   H66       1.0  0.42519  0.13606  0.26797  1.0000
  C   C68       1.0  0.43545  0.12193  0.29337  1.0000
  C   C69       1.0  0.22512  0.99546  0.22980  1.0000
  C   C70       1.0  0.37356  0.09016  0.15681  1.0000
  C   C71       1.0  0.20177  0.00499  0.48244  1.0000
  C   C72       1.0  0.45964  0.13653  0.01373  1.0000
  C   C73       1.0  0.43669  0.08577  0.02700  1.0000
  H   H67       1.0  0.44528  0.10967  0.32432  1.0000
  C   C74       1.0  0.45890  0.15942  0.04198  1.0000
  H   H68       1.0  0.42889  0.99200  0.17833  1.0000
  H   H69       1.0  0.23083  0.09477  0.04312  1.0000
  C   C75       1.0  0.26317  0.00144  0.40227  1.0000
  H   H70       1.0  0.35436  0.06905  0.08354  1.0000
  H   H71       1.0  0.38359  0.11499  0.21926  1.0000
  H   H72       1.0  0.27159  0.13507  0.01846  1.0000
  C   C76       1.0  0.20456  0.00600  0.21835  1.0000
  C   C77       1.0  0.39728  0.06740  0.08153  1.0000
  C   C78       1.0  0.38373  0.12317  0.17461  1.0000
  C   C79       1.0  0.45922  0.14393  0.04100  1.0000
  C   C80       1.0  0.28646  0.02640  0.41847  1.0000
  H   H73       1.0  0.30234  0.11778  0.11686  1.0000
  C   C81       1.0  0.43547  0.14165  0.34245  1.0000
  C   C82       1.0  0.39248  0.99502  0.20439  1.0000
  C   C83       1.0  0.38831  0.06718  0.05519  1.0000
  H   H74       1.0  0.39679  0.15667  0.44646  1.0000
  C   C84       1.0  0.40156  0.13749  0.37160  1.0000
  H   H75       1.0  0.23782  0.00165  0.98570  1.0000
  C   C85       1.0  0.37574  0.10206  0.13559  1.0000
  C   C86       1.0  0.09704  0.15912  0.46071  1.0000
  C   C87       1.0  0.26632  0.05607  0.99587  1.0000
  P   P3        1.0  0.36649  0.06888  0.14530  1.0000
  H   H76       1.0  0.45972  0.12446  0.01302  1.0000
  H   H77       1.0  0.38256  0.12762  0.12799  1.0000
  C   C88       1.0  0.45659  0.18057  0.34120  1.0000
  C   C89       1.0  0.28686  0.11325  0.99571  1.0000
  H   H78       1.0  0.23395  0.15221  0.03341  1.0000
  C   C90       1.0  0.26065  0.99711  0.43179  1.0000
  C   C91       1.0  0.45606  0.01014  0.21144  1.0000
  H   H79       1.0  0.26315  0.15616  0.03741  1.0000
  C   C92       1.0  0.24690  0.11863  0.00233  1.0000
  C   C93       1.0  0.29234  0.18674  0.05969  1.0000
  H   H80       1.0  0.29589  0.03807  0.41303  1.0000
  H   H81       1.0  0.45818  0.16496  0.06308  1.0000
  H   H82       1.0  0.40720  0.06270  0.21691  1.0000
  H   H83       1.0  0.34806  0.18312  0.12342  1.0000
  C   C94       1.0  0.31755  0.04839  0.46912  1.0000
  C   C95       1.0  0.31969  0.13935  0.09731  1.0000
  H   H84       1.0  0.23219  0.02087  0.32830  1.0000
  H   H85       1.0  0.44510  0.09350  0.04460  1.0000
  H   H86       1.0  0.24536  0.02340  0.28074  1.0000
  H   H87       1.0  0.42436  0.16438  0.42747  1.0000
  H   H88       1.0  0.08883  0.14962  0.44524  1.0000
  C   C96       1.0  0.39490  0.05681  0.20641  1.0000
  C   C97       1.0  0.45935  0.16014  0.98817  1.0000
  H   H89       1.0  0.28345  0.13081  0.12970  1.0000
  C   C98       1.0  0.44413  0.17562  0.36155  1.0000
  H   H90       1.0  0.30115  0.00494  0.48314  1.0000
  H   H91       1.0  0.17291  0.18499  0.39029  1.0000
  H   H92       1.0  0.45873  0.13748  0.06133  1.0000
  H   H93       1.0  0.20339  0.04616  0.29250  1.0000
  H   H94       1.0  0.36772  0.04546  0.98855  1.0000
  H   H95       1.0  0.22760  0.06698  0.33877  1.0000
  C   C99       1.0  0.38138  0.11138  0.19590  1.0000
  H   H96       1.0  0.31450  0.17816  0.15669  1.0000
  C   C100      1.0  0.31799  0.06020  0.15425  1.0000
  C   C101      1.0  0.33520  0.06695  0.15738  1.0000
  H   H97       1.0  0.36604  0.06806  0.03583  1.0000
  H   H98       1.0  0.38488  0.99761  0.18756  1.0000
  C   C102      1.0  0.16211  0.18767  0.39201  1.0000
  C   C103      1.0  0.15272  0.18788  0.36643  1.0000
  C   C104      1.0  0.21281  0.04147  0.29056  1.0000
  C   C105      1.0  0.47675  0.16052  0.42696  1.0000
  H   H99       1.0  0.44077  0.06438  0.03836  1.0000
  H   H100      1.0  0.37354  0.09871  0.11213  1.0000
  H   H101      1.0  0.38779  0.13593  0.18141  1.0000
  H   H102      1.0  0.26629  0.12042  0.46632  1.0000
  H   H103      1.0  0.22299  0.09217  0.34619  1.0000
  C   C106      1.0  0.23035  0.11664  0.99928  1.0000
  C   C107      1.0  0.32542  0.04345  0.44705  1.0000
  H   H104      1.0  0.42512  0.15352  0.31108  1.0000
  H   H105      1.0  0.19722  0.09091  0.36728  1.0000
  H   H106      1.0  0.29629  0.04173  0.13228  1.0000
  C   C108      1.0  0.38081  0.11849  0.14450  1.0000
  H   H107      1.0  0.18379  0.99779  0.24627  1.0000
  C   C109      1.0  0.38596  0.13298  0.38279  1.0000
  C   C110      1.0  0.31364  0.18389  0.03147  1.0000
  C   C111      1.0  0.42275  0.05929  0.00162  1.0000
  C   C112      1.0  0.44935  0.15294  0.40336  1.0000
  C   C113      1.0  0.30536  0.13046  0.11173  1.0000
  H   H108      1.0  0.17596  0.06425  0.38088  1.0000
  C   C114      1.0  0.19534  0.99706  0.24185  1.0000
  H   H109      1.0  0.44795  0.13097  0.46502  1.0000
  C   C115      1.0  0.37699  0.99941  0.98793  1.0000
  H   H110      1.0  0.20023  0.01491  0.01863  1.0000
  C   C116      1.0  0.45954  0.14451  0.98736  1.0000
  H   H111      1.0  0.32771  0.13350  0.09100  1.0000
  H   H112      1.0  0.46973  0.11598  0.38260  1.0000
  C   C117      1.0  0.42830  0.09226  0.00779  1.0000
  H   H113      1.0  0.40262  0.13158  0.35120  1.0000
  C   C118      1.0  0.38472  0.04083  0.21315  1.0000
  C   C119      1.0  0.41371  0.15583  0.41446  1.0000
  C   C120      1.0  0.36330  0.04170  0.17875  1.0000
  C   C121      1.0  0.37480  0.06765  0.11001  1.0000
  C   C122      1.0  0.44089  0.12903  0.34600  1.0000
  H   H114      1.0  0.34136  0.07771  0.17178  1.0000
  C   C123      1.0  0.42968  0.13423  0.28975  1.0000
  H   H115      1.0  0.30019  0.06921  0.46566  1.0000
  C   C124      1.0  0.28824  0.10219  0.05287  1.0000
  Fe  Fe12      1.0  0.39578  0.11724  0.48359  1.0000
  C   C125      1.0  0.38423  0.13998  0.40961  1.0000
  C   C126      1.0  0.23655  0.02877  0.28385  1.0000
  H   H116      1.0  0.38907  0.03433  0.22913  1.0000
  H   H117      1.0  0.42974  0.13400  0.42511  1.0000
  C   C127      1.0  0.47690  0.12427  0.22415  1.0000
  H   H118      1.0  0.28395  0.18766  0.98559  1.0000
  C   C128      1.0  0.37274  0.06750  0.05615  1.0000
  H   H119      1.0  0.19153  0.98923  0.44302  1.0000
  C   C129      1.0  0.11083  0.17189  0.45051  1.0000
  C   C130      1.0  0.25881  0.13324  0.01524  1.0000
  C   C131      1.0  0.18135  0.00866  0.37573  1.0000
  S   S23       1.0  0.39049  0.16746  0.02737  1.0000
  H   H120      1.0  0.36113  0.02080  0.20431  1.0000
  H   H121      1.0  0.31108  0.06583  0.16588  1.0000
  C   C132      1.0  0.29479  0.13783  0.11918  1.0000
  C   C133      1.0  0.20435  0.00865  0.00235  1.0000
  C   C134      1.0  0.18825  0.01501  0.34890  1.0000
  C   C135      1.0  0.30962  0.04655  0.13530  1.0000
  H   H122      1.0  0.21394  0.00480  0.37001  1.0000
  C   C136      1.0  0.23707  0.08320  0.00565  1.0000
  C   C137      1.0  0.23760  0.14314  0.02353  1.0000
  H   H123      1.0  0.20977  0.06921  0.05992  1.0000
  C   C138      1.0  0.43822  0.18701  0.37198  1.0000
  C   C139      1.0  0.38019  0.01248  0.00812  1.0000
  C   C140      1.0  0.23093  0.01347  0.40806  1.0000
  C   C141      1.0  0.24013  0.02671  0.42736  1.0000
  C   C142      1.0  0.23985  0.04200  0.42265  1.0000
  C   C143      1.0  0.23024  0.04399  0.39881  1.0000
  C   C144      1.0  0.22071  0.03061  0.37966  1.0000
  C   C145      1.0  0.22122  0.01535  0.38440  1.0000
  P   P4        1.0  0.20767  0.03264  0.34942  1.0000
  C   C146      1.0  0.43409  0.06934  0.02366  1.0000
  C   C147      1.0  0.20424  0.05104  0.35541  1.0000
  C   C148      1.0  0.18971  0.05045  0.36742  1.0000
  C   C149      1.0  0.18723  0.06480  0.37173  1.0000
  C   C150      1.0  0.19921  0.07982  0.36410  1.0000
  C   C151      1.0  0.21373  0.08053  0.35224  1.0000
  C   C152      1.0  0.21627  0.06622  0.34798  1.0000
  C   C153      1.0  0.29876  0.15423  0.11302  1.0000
  C   C154      1.0  0.32369  0.15574  0.09105  1.0000
  H   H124      1.0  0.27764  0.01974  0.37279  1.0000
  H   H125      1.0  0.15614  0.18520  0.34489  1.0000
  H   H126      1.0  0.26870  0.00384  0.47734  1.0000
  C   C155      1.0  0.21720  0.03387  0.31447  1.0000
  C   C156      1.0  0.22895  0.02729  0.31074  1.0000
  C   C157      1.0  0.44283  0.14155  0.42539  1.0000
  C   C158      1.0  0.23248  0.03679  0.26054  1.0000
  C   C159      1.0  0.35028  0.06811  0.45693  1.0000
  C   C160      1.0  0.41555  0.14908  0.38725  1.0000
  H   H127      1.0  0.46783  0.10489  0.19057  1.0000
  C   C161      1.0  0.31360  0.16351  0.10004  1.0000
  C   C162      1.0  0.30269  0.10939  0.03785  1.0000
  C   C163      1.0  0.25412  0.14540  0.02575  1.0000
  H   H128      1.0  0.24061  0.17544  0.99812  1.0000
  H   H129      1.0  0.18021  0.03897  0.37337  1.0000
  H   H130      1.0  0.38895  0.03848  0.01448  1.0000
  P   P5        1.0  0.29672  0.03556  0.47798  1.0000
  H   H131      1.0  0.45832  0.17935  0.01675  1.0000
  H   H132      1.0  0.23352  0.00087  0.08431  1.0000
  H   H133      1.0  0.44489  0.12646  0.36763  1.0000
  H   H134      1.0  0.46775  0.12898  0.21789  1.0000
  H   H135      1.0  0.11302  0.17200  0.42716  1.0000
  H   H136      1.0  0.36286  0.07589  0.45202  1.0000
  H   H137      1.0  0.01229  0.17707  0.25770  1.0000
  C   C164      1.0  0.39810  0.15144  0.42539  1.0000
  H   H138      1.0  0.26037  0.05409  0.01678  1.0000
  H   H139      1.0  0.21287  0.12698  0.00875  1.0000
  C   C165      1.0  0.28225  0.06807  0.99424  1.0000
  Fe  Fe13      1.0  0.24705  0.18502  0.10468  1.0000
  H   H140      1.0  0.47808  0.14777  0.46650  1.0000
  S   S24       1.0  0.38004  0.12625  0.98946  1.0000
  C   C166      1.0  0.38652  0.02852  0.99848  1.0000
  H   H141      1.0  0.16135  0.98979  0.39627  1.0000
  C   C167      1.0  0.28921  0.06315  0.47766  1.0000
  C   C168      1.0  0.28397  0.18772  0.03327  1.0000
  H   H142      1.0  0.47885  0.04232  0.32132  1.0000
  H   H143      1.0  0.25482  0.99364  0.38468  1.0000
  H   H144      1.0  0.23671  0.99479  0.22541  1.0000
  C   C169      1.0  0.30520  0.18481  0.00508  1.0000
  C   C170      1.0  0.47844  0.03520  0.19877  1.0000
  H   H145      1.0  0.98429  0.18644  0.23132  1.0000
  C   C171      1.0  0.47686  0.11058  0.20878  1.0000
  C   C172      1.0  0.29042  0.18684  0.00599  1.0000
  P   P6        1.0  0.25237  0.10190  0.99240  1.0000
  H   H146      1.0  0.02723  0.18494  0.30728  1.0000
  H   H147      1.0  0.34768  0.05807  0.98777  1.0000
  H   H148      1.0  0.22017  0.04205  0.99054  1.0000
  C   C173      1.0  0.23401  0.06815  0.99135  1.0000
  C   C174      1.0  0.41701  0.08228  0.98569  1.0000
  C   C175      1.0  0.34275  0.07276  0.47966  1.0000
  H   H149      1.0  0.13108  0.18717  0.08413  1.0000
  C   C176      1.0  0.41219  0.98845  0.24768  1.0000
  C   C177      1.0  0.22484  0.98843  0.08733  1.0000
  H   H150      1.0  0.40766  0.02338  0.60293  1.0000
  C   C178      1.0  0.26096  0.01102  0.94166  1.0000
  S   S25       1.0  0.23340  0.15852  0.58174  1.0000
  Fe  Fe14      1.0  0.47004  0.07319  0.75824  1.0000
  S   S26       1.0  0.45932  0.06142  0.80044  1.0000
  Fe  Fe15      1.0  0.43832  0.07817  0.73922  1.0000
  S   S27       1.0  0.42568  0.06644  0.78041  1.0000
  S   S28       1.0  0.42156  0.08594  0.70819  1.0000
  Fe  Fe16      1.0  0.44962  0.08113  0.80577  1.0000
  S   S29       1.0  0.45205  0.09353  0.85220  1.0000
  Fe  Fe17      1.0  0.43593  0.04756  0.77240  1.0000
  S   S30       1.0  0.42120  0.02084  0.78257  1.0000
  S   S31       1.0  0.46203  0.09405  0.76517  1.0000
  S   S32       1.0  0.44686  0.05809  0.72975  1.0000
  Fe  Fe18      1.0  0.39640  0.14890  0.51725  1.0000
  C   C179      1.0  0.44182  0.12894  0.79280  1.0000
  S   S33       1.0  0.39396  0.17271  0.50374  1.0000
  Fe  Fe19      1.0  0.40516  0.12303  0.55006  1.0000
  S   S34       1.0  0.38625  0.10159  0.52291  1.0000
  S   S35       1.0  0.42409  0.11935  0.58251  1.0000
  H   H151      1.0  0.24551  0.15878  0.95825  1.0000
  S   S36       1.0  0.40636  0.11581  0.93304  1.0000
  Fe  Fe20      1.0  0.36966  0.11482  0.52931  1.0000
  S   S37       1.0  0.34186  0.10642  0.52952  1.0000
  S   S38       1.0  0.41534  0.13834  0.50993  1.0000
  S   S39       1.0  0.38774  0.13523  0.55906  1.0000
  Fe  Fe21      1.0  0.24295  0.07014  0.61265  1.0000
  S   S40       1.0  0.25684  0.06061  0.64486  1.0000
  S   S41       1.0  0.24760  0.09691  0.62486  1.0000
  Fe  Fe22      1.0  0.22993  0.03737  0.57572  1.0000
  S   S42       1.0  0.24277  0.02592  0.60635  1.0000
  S   S43       1.0  0.21411  0.02522  0.53278  1.0000
  Fe  Fe23      1.0  0.23436  0.03684  0.64442  1.0000
  S   S44       1.0  0.22840  0.02791  0.69227  1.0000
  Fe  Fe24      1.0  0.26423  0.05042  0.60529  1.0000
  S   S45       1.0  0.29026  0.05171  0.60415  1.0000
  S   S46       1.0  0.21985  0.04687  0.61391  1.0000
  S   S47       1.0  0.25201  0.06141  0.57289  1.0000
  C   C180      1.0  0.38249  0.05519  0.68527  1.0000
  C   C181      1.0  0.21407  0.01025  0.50583  1.0000
  C   C182      1.0  0.31508  0.10788  0.61389  1.0000
  C   C183      1.0  0.46673  0.00230  0.75794  1.0000
  P   P7        1.0  0.29838  0.13635  0.56276  1.0000
  C   C184      1.0  0.17797  0.02313  0.72660  1.0000
  C   C185      1.0  0.21994  0.01060  0.71533  1.0000
  C   C186      1.0  0.22006  0.01325  0.74626  1.0000
  C   C187      1.0  0.26693  0.11734  0.48931  1.0000
  C   C188      1.0  0.27900  0.04339  0.87010  1.0000
  S   S48       1.0  0.37769  0.12872  0.48822  1.0000
  H   H152      1.0  0.22545  0.02563  0.75552  1.0000
  H   H153      1.0  0.28115  0.12463  0.61674  1.0000
  C   C189      1.0  0.35885  0.07422  0.95292  1.0000
  C   C190      1.0  0.32795  0.09090  0.55028  1.0000
  C   C191      1.0  0.33320  0.08240  0.57119  1.0000
  C   C192      1.0  0.32153  0.07035  0.58765  1.0000
  C   C193      1.0  0.30465  0.06699  0.58358  1.0000
  C   C194      1.0  0.29947  0.07535  0.56236  1.0000
  C   C195      1.0  0.31106  0.08716  0.54564  1.0000
  H   H154      1.0  0.34620  0.08526  0.57491  1.0000
  H   H155      1.0  0.32559  0.06380  0.60388  1.0000
  H   H156      1.0  0.28653  0.07269  0.55870  1.0000
  H   H157      1.0  0.30688  0.09351  0.52924  1.0000
  C   C196      1.0  0.42259  0.09523  0.67316  1.0000
  C   C197      1.0  0.40857  0.09714  0.66107  1.0000
  C   C198      1.0  0.40869  0.10428  0.63330  1.0000
  C   C199      1.0  0.42292  0.10971  0.61724  1.0000
  C   C200      1.0  0.43699  0.10799  0.62953  1.0000
  C   C201      1.0  0.43684  0.10081  0.65725  1.0000
  H   H158      1.0  0.39752  0.09308  0.67330  1.0000
  H   H159      1.0  0.39782  0.10566  0.62443  1.0000
  H   H160      1.0  0.44811  0.11225  0.61749  1.0000
  H   H161      1.0  0.44771  0.09952  0.66630  1.0000
  C   C202      1.0  0.41862  0.10833  0.91183  1.0000
  C   C203      1.0  0.43307  0.10739  0.92361  1.0000
  C   C204      1.0  0.44287  0.10245  0.90524  1.0000
  C   C205      1.0  0.43829  0.09809  0.87493  1.0000
  C   C206      1.0  0.42356  0.09853  0.86340  1.0000
  C   C207      1.0  0.41392  0.10374  0.88164  1.0000
  H   H162      1.0  0.43697  0.11091  0.94664  1.0000
  H   H163      1.0  0.45425  0.10225  0.91447  1.0000
  H   H164      1.0  0.41980  0.09524  0.84023  1.0000
  H   H165      1.0  0.40278  0.10438  0.87218  1.0000
  C   C208      1.0  0.41173  0.00699  0.72553  1.0000
  C   C209      1.0  0.41126  0.00453  0.75603  1.0000
  C   C210      1.0  0.25283  0.00542  0.88928  1.0000
  H   H166      1.0  0.41884  0.01902  0.71769  1.0000
  C   C211      1.0  0.43317  0.14429  0.65681  1.0000
  C   C212      1.0  0.23765  0.14160  0.59408  1.0000
  C   C213      1.0  0.23124  0.12681  0.57695  1.0000
  C   C214      1.0  0.23411  0.11304  0.58586  1.0000
  C   C215      1.0  0.24355  0.11386  0.61204  1.0000
  C   C216      1.0  0.25012  0.12870  0.62899  1.0000
  C   C217      1.0  0.24720  0.14244  0.62015  1.0000
  H   H167      1.0  0.22384  0.12595  0.55676  1.0000
  H   H168      1.0  0.22890  0.10176  0.57258  1.0000
  H   H169      1.0  0.25744  0.12955  0.64929  1.0000
  H   H170      1.0  0.25227  0.15367  0.63359  1.0000
  C   C218      1.0  0.20469  0.01675  0.89799  1.0000
  C   C219      1.0  0.22098  0.01818  0.90006  1.0000
  H   H171      1.0  0.28996  0.13773  0.49962  1.0000
  C   C220      1.0  0.40237  0.98872  0.76594  1.0000
  H   H172      1.0  0.26863  0.00159  0.54183  1.0000
  H   H173      1.0  0.42311  0.05408  0.67600  1.0000
  C   C221      1.0  0.32476  0.16251  0.54019  1.0000
  C   C222      1.0  0.22548  0.00119  0.98363  1.0000
  C   C223      1.0  0.24007  0.18578  0.48851  1.0000
  C   C224      1.0  0.21461  0.99200  0.95987  1.0000
  C   C225      1.0  0.38796  0.01920  0.63260  1.0000
  C   C226      1.0  0.38299  0.07225  0.93359  1.0000
  H   H174      1.0  0.28822  0.06252  0.92190  1.0000
  C   C227      1.0  0.33558  0.14240  0.50730  1.0000
  H   H175      1.0  0.37416  0.16334  0.55355  1.0000
  C   C228      1.0  0.12518  0.00470  0.63900  1.0000
  H   H176      1.0  0.35507  0.14043  0.58126  1.0000
  C   C229      1.0  0.25823  0.98996  0.54304  1.0000
  H   H177      1.0  0.23969  0.05791  0.92474  1.0000
  C   C230      1.0  0.35696  0.05501  0.57836  1.0000
  H   H178      1.0  0.37916  0.06212  0.66880  1.0000
  C   C231      1.0  0.47273  0.14522  0.89314  1.0000
  C   C232      1.0  0.30292  0.16115  0.60473  1.0000
  H   H179      1.0  0.43471  0.13763  0.86157  1.0000
  C   C233      1.0  0.29993  0.03080  0.53836  1.0000
  P   P8        1.0  0.47274  0.14720  0.71124  1.0000
  H   H180      1.0  0.32224  0.12098  0.57430  1.0000
  H   H181      1.0  0.32437  0.10293  0.61297  1.0000
  H   H182      1.0  0.32103  0.06658  0.50405  1.0000
  H   H183      1.0  0.43459  0.12438  0.81190  1.0000
  H   H184      1.0  0.32079  0.17054  0.55260  1.0000
  C   C234      1.0  0.38907  0.04396  0.67705  1.0000
  C   C235      1.0  0.28123  0.12329  0.53821  1.0000
  H   H185      1.0  0.40791  0.05413  0.58371  1.0000
  C   C236      1.0  0.44881  0.00040  0.71456  1.0000
  H   H186      1.0  0.30577  0.00123  0.57763  1.0000
  H   H187      1.0  0.18826  0.02849  0.90563  1.0000
  C   C237      1.0  0.25496  0.09990  0.52984  1.0000
  H   H188      1.0  0.47374  0.13005  0.65495  1.0000
  H   H189      1.0  0.17741  0.00976  0.55932  1.0000
  H   H190      1.0  0.21326  0.00241  0.78895  1.0000
  C   C238      1.0  0.20097  0.02987  0.90661  1.0000
  H   H191      1.0  0.43955  0.99334  0.69756  1.0000
  C   C239      1.0  0.18117  0.00880  0.58215  1.0000
  H   H192      1.0  0.31243  0.15795  0.61490  1.0000
  C   C240      1.0  0.38179  0.05986  0.95325  1.0000
  H   H193      1.0  0.35037  0.08017  0.95362  1.0000
  H   H194      1.0  0.39899  0.02699  0.69339  1.0000
  C   C241      1.0  0.39371  0.03554  0.69921  1.0000
  H   H195      1.0  0.23543  0.00746  0.52457  1.0000
  C   C242      1.0  0.39774  0.01441  0.61433  1.0000
  C   C243      1.0  0.30405  0.10344  0.63645  1.0000
  C   C244      1.0  0.24424  0.10363  0.90244  1.0000
  C   C245      1.0  0.25344  0.09563  0.89081  1.0000
  C   C246      1.0  0.26239  0.08968  0.90992  1.0000
  C   C247      1.0  0.26210  0.09169  0.94064  1.0000
  H   H196      1.0  0.24552  0.17043  0.51980  1.0000
  C   C248      1.0  0.24402  0.10575  0.93318  1.0000
  H   H197      1.0  0.24586  0.03687  0.97263  1.0000
  C   C249      1.0  0.25018  0.17195  0.95676  1.0000
  C   C250      1.0  0.38971  0.03164  0.96847  1.0000
  C   C251      1.0  0.19844  0.99094  0.95731  1.0000
  C   C252      1.0  0.47937  0.12585  0.67286  1.0000
  H   H198      1.0  0.08310  0.14873  0.49859  1.0000
  H   H199      1.0  0.01324  0.17844  0.82120  1.0000
  C   C253      1.0  0.45315  0.14524  0.79251  1.0000
  P   P9        1.0  0.45908  0.17076  0.95457  1.0000
  H   H200      1.0  0.20699  0.99611  0.62211  1.0000
  H   H201      1.0  0.45469  0.15340  0.81148  1.0000
  H   H202      1.0  0.40279  0.99432  0.59750  1.0000
  C   C254      1.0  0.45410  0.01742  0.71581  1.0000
  C   C255      1.0  0.19231  0.00768  0.64061  1.0000
  C   C256      1.0  0.25811  0.04634  0.97074  1.0000
  H   H203      1.0  0.28661  0.11789  0.97378  1.0000
  H   H204      1.0  0.19695  0.99693  0.57009  1.0000
  C   C257      1.0  0.41323  0.05298  0.63078  1.0000
  C   C258      1.0  0.30401  0.00770  0.55859  1.0000
  H   H205      1.0  0.23724  0.10819  0.88759  1.0000
  H   H206      1.0  0.25361  0.09404  0.86699  1.0000
  H   H207      1.0  0.26948  0.08341  0.90096  1.0000
  C   C259      1.0  0.45911  0.13905  0.87285  1.0000
  C   C260      1.0  0.37524  0.00719  0.64716  1.0000
  H   H208      1.0  0.23677  0.11193  0.94162  1.0000
  C   C261      1.0  0.21292  0.99444  0.70387  1.0000
  C   C262      1.0  0.36274  0.03434  0.60481  1.0000
  H   H209      1.0  0.35506  0.16470  0.49464  1.0000
  H   H210      1.0  0.26542  0.99211  0.96451  1.0000
  C   C263      1.0  0.12005  0.01646  0.65005  1.0000
  H   H211      1.0  0.35877  0.02174  0.61089  1.0000
  C   C264      1.0  0.11812  0.18373  0.50054  1.0000
  H   H212      1.0  0.24503  0.08950  0.53847  1.0000
  C   C265      1.0  0.34405  0.15937  0.50700  1.0000
  C   C266      1.0  0.47203  0.01931  0.75902  1.0000
  H   H213      1.0  0.45187  0.07003  0.66464  1.0000
  C   C267      1.0  0.19792  0.00114  0.61742  1.0000
  H   H214      1.0  0.14539  0.99756  0.63509  1.0000
  H   H215      1.0  0.26370  0.01876  0.96156  1.0000
  C   C268      1.0  0.28188  0.06063  0.94226  1.0000
  C   C269      1.0  0.29200  0.10971  0.63754  1.0000
  H   H216      1.0  0.30464  0.09490  0.65278  1.0000
  C   C270      1.0  0.29084  0.12021  0.61583  1.0000
  C   C271      1.0  0.29349  0.15222  0.57955  1.0000
  H   H217      1.0  0.10726  0.01470  0.64676  1.0000
  C   C272      1.0  0.44935  0.12406  0.74393  1.0000
  C   C273      1.0  0.43988  0.11839  0.76845  1.0000
  C   C274      1.0  0.28763  0.17827  0.60430  1.0000
  H   H218      1.0  0.00441  0.17114  0.76801  1.0000
  H   H219      1.0  0.28317  0.10602  0.65465  1.0000
  C   C275      1.0  0.30142  0.12421  0.59231  1.0000
  C   C276      1.0  0.42535  0.16278  0.95469  1.0000
  C   C277      1.0  0.41313  0.18236  0.96066  1.0000
  C   C278      1.0  0.44073  0.15277  0.63217  1.0000
  H   H220      1.0  0.43675  0.07080  0.57306  1.0000
  H   H221      1.0  0.46991  0.04005  0.73885  1.0000
  C   C279      1.0  0.45789  0.15960  0.63163  1.0000
  H   H222      1.0  0.44787  0.11569  0.72534  1.0000
  H   H223      1.0  0.43114  0.10572  0.76858  1.0000
  C   C280      1.0  0.26419  0.04422  0.87773  1.0000
  C   C281      1.0  0.31374  0.11812  0.59177  1.0000
  Fe  Fe25      1.0  0.24094  0.18480  0.60099  1.0000
  H   H224      1.0  0.34951  0.08408  0.49240  1.0000
  H   H225      1.0  0.18119  0.02271  0.77419  1.0000
  H   H226      1.0  0.43323  0.15360  0.61311  1.0000
  C   C282      1.0  0.36886  0.05468  0.97265  1.0000
  C   C283      1.0  0.38013  0.00238  0.95807  1.0000
  C   C284      1.0  0.26358  0.05790  0.83184  1.0000
  C   C285      1.0  0.25657  0.05162  0.85846  1.0000
  H   H227      1.0  0.34095  0.17380  0.63002  1.0000
  C   C286      1.0  0.45883  0.15844  0.92221  1.0000
  C   C287      1.0  0.44545  0.14273  0.87689  1.0000
  C   C288      1.0  0.21318  0.00006  0.76537  1.0000
  C   C289      1.0  0.17092  0.99725  0.69998  1.0000
  C   C290      1.0  0.22998  0.04628  0.91787  1.0000
  C   C291      1.0  0.21364  0.04467  0.91651  1.0000
  H   H228      1.0  0.39313  0.07692  0.91914  1.0000
  H   H229      1.0  0.22337  0.00765  0.89391  1.0000
  C   C292      1.0  0.17826  0.01562  0.75345  1.0000
  P   P10       1.0  0.25507  0.03551  0.91173  1.0000
  C   C293      1.0  0.46001  0.14927  0.68048  1.0000
  C   C294      1.0  0.28098  0.15638  0.56700  1.0000
  C   C295      1.0  0.23378  0.03299  0.91012  1.0000
  H   H230      1.0  0.42559  0.05408  0.84430  1.0000
  H   H231      1.0  0.37296  0.08931  0.91889  1.0000
  H   H232      1.0  0.29734  0.04891  0.83759  1.0000
  C   C296      1.0  0.40679  0.05325  0.92073  1.0000
  C   C297      1.0  0.30002  0.17414  0.61701  1.0000
  C   C298      1.0  0.32163  0.13547  0.52383  1.0000
  C   C299      1.0  0.39653  0.04853  0.89456  1.0000
  C   C300      1.0  0.35627  0.15280  0.58608  1.0000
  C   C301      1.0  0.38286  0.06242  0.60704  1.0000
  H   H233      1.0  0.25749  0.06326  0.81671  1.0000
  H   H234      1.0  0.24507  0.05230  0.86349  1.0000
  C   C302      1.0  0.45528  0.99272  0.73538  1.0000
  H   H235      1.0  0.24910  0.00883  0.86813  1.0000
  H   H236      1.0  0.21077  0.05489  0.92307  1.0000
  H   H237      1.0  0.30506  0.99009  0.52657  1.0000
  C   C303      1.0  0.46256  0.15098  0.76784  1.0000
  H   H238      1.0  0.42380  0.15015  0.95276  1.0000
  H   H239      1.0  0.30724  0.18093  0.63655  1.0000
  C   C304      1.0  0.46577  0.02686  0.73790  1.0000
  C   C305      1.0  0.32653  0.06287  0.48599  1.0000
  H   H240      1.0  0.47378  0.18015  0.71452  1.0000
  C   C306      1.0  0.34699  0.15585  0.60769  1.0000
  H   H241      1.0  0.38333  0.04464  0.89539  1.0000
  H   H242      1.0  0.28357  0.06163  0.80352  1.0000
  H   H243      1.0  0.18039  0.03600  0.72697  1.0000
  H   H244      1.0  0.37766  0.99224  0.94241  1.0000
  C   C307      1.0  0.40329  0.04877  0.86709  1.0000
  C   C308      1.0  0.39191  0.03835  0.72910  1.0000
  C   C309      1.0  0.38543  0.04960  0.73712  1.0000
  C   C310      1.0  0.38067  0.05797  0.71522  1.0000
  C   C311      1.0  0.30122  0.00980  0.50530  1.0000
  H   H245      1.0  0.38441  0.05208  0.76032  1.0000
  H   H246      1.0  0.37606  0.06701  0.72149  1.0000
  C   C312      1.0  0.21429  0.06696  0.68209  1.0000
  C   C313      1.0  0.21091  0.07765  0.66340  1.0000
  C   C314      1.0  0.19630  0.07205  0.64551  1.0000
  C   C315      1.0  0.18497  0.05577  0.64648  1.0000
  C   C316      1.0  0.18805  0.04507  0.66590  1.0000
  C   C317      1.0  0.20295  0.05072  0.68324  1.0000
  P   P11       1.0  0.17430  0.02368  0.66479  1.0000
  C   C318      1.0  0.17473  0.01409  0.69958  1.0000
  C   C319      1.0  0.15317  0.02106  0.65839  1.0000
  C   C320      1.0  0.14786  0.03264  0.67001  1.0000
  C   C321      1.0  0.13137  0.03039  0.66564  1.0000
  C   C322      1.0  0.22585  0.00352  0.50693  1.0000
  H   H247      1.0  0.41984  0.13864  0.65680  1.0000
  H   H248      1.0  0.44379  0.06274  0.89000  1.0000
  C   C323      1.0  0.42388  0.05829  0.91896  1.0000
  H   H249      1.0  0.26635  0.02700  0.50857  1.0000
  H   H250      1.0  0.29872  0.04224  0.54206  1.0000
  H   H251      1.0  0.22697  0.17814  0.48668  1.0000
  H   H252      1.0  0.16725  0.02123  0.60024  1.0000
  C   C324      1.0  0.18079  0.01449  0.63487  1.0000
  C   C325      1.0  0.17548  0.01529  0.60537  1.0000
  H   H253      1.0  0.28504  0.03767  0.88456  1.0000
  C   C326      1.0  0.24747  0.18131  0.97928  1.0000
  H   H254      1.0  0.15088  0.18011  0.49188  1.0000
  C   C327      1.0  0.26578  0.04858  0.94368  1.0000
  H   H255      1.0  0.22595  0.07111  0.69498  1.0000
  H   H256      1.0  0.21985  0.09017  0.66214  1.0000
  H   H257      1.0  0.19401  0.08027  0.63034  1.0000
  H   H258      1.0  0.17401  0.05149  0.63165  1.0000
  H   H259      1.0  0.20604  0.04250  0.69713  1.0000
  H   H260      1.0  0.15643  0.04335  0.68259  1.0000
  H   H261      1.0  0.12735  0.03941  0.67452  1.0000
  C   C328      1.0  0.28601  0.04975  0.84352  1.0000
  H   H262      1.0  0.46368  0.16592  0.61224  1.0000
  C   C329      1.0  0.37824  0.04613  0.61506  1.0000
  C   C330      1.0  0.37155  0.07935  0.93340  1.0000
  H   H263      1.0  0.30273  0.02742  0.58509  1.0000
  C   C331      1.0  0.17121  0.98978  0.72685  1.0000
  C   C332      1.0  0.44531  0.15244  0.90136  1.0000
  C   C333      1.0  0.25877  0.17959  0.93225  1.0000
  C   C334      1.0  0.14166  0.00692  0.64332  1.0000
  C   C335      1.0  0.42029  0.05371  0.86557  1.0000
  C   C336      1.0  0.31634  0.14544  0.54108  1.0000
  C   C337      1.0  0.35741  0.06178  0.97231  1.0000
  H   H264      1.0  0.31515  0.12230  0.52348  1.0000
  P   P12       1.0  0.39209  0.04056  0.63860  1.0000
  H   H265      1.0  0.40313  0.99598  0.68171  1.0000
  C   C338      1.0  0.27807  0.16933  0.57946  1.0000
  C   C339      1.0  0.33848  0.16943  0.52308  1.0000
  H   H266      1.0  0.34880  0.05841  0.56406  1.0000
  P   P13       1.0  0.39800  0.05247  0.95628  1.0000
  C   C340      1.0  0.41735  0.05759  0.60163  1.0000
  C   C341      1.0  0.29007  0.07031  0.96752  1.0000
  C   C342      1.0  0.42586  0.05736  0.65333  1.0000
  C   C343      1.0  0.41141  0.16621  0.95701  1.0000
  C   C344      1.0  0.36705  0.16572  0.57043  1.0000
  H   H267      1.0  0.36761  0.01057  0.66157  1.0000
  H   H268      1.0  0.38883  0.02035  0.92513  1.0000
  H   H269      1.0  0.34022  0.02969  0.57864  1.0000
  H   H270      1.0  0.39585  0.03202  0.74607  1.0000
  H   H271      1.0  0.43214  0.06221  0.93863  1.0000
  C   C345      1.0  0.34839  0.17178  0.61345  1.0000
  C   C346      1.0  0.26839  0.10958  0.54881  1.0000
  C   C347      1.0  0.43056  0.05849  0.89146  1.0000
  C   C348      1.0  0.30353  0.00141  0.52983  1.0000
  H   H272      1.0  0.37607  0.07943  0.58247  1.0000
  H   H273      1.0  0.16792  0.98988  0.67956  1.0000
  C   C349      1.0  0.30229  0.02243  0.56282  1.0000
  H   H274      1.0  0.27327  0.14954  0.54797  1.0000
  C   C350      1.0  0.43373  0.06689  0.59542  1.0000
  Fe  Fe26      1.0  0.40180  0.11996  0.98201  1.0000
  H   H275      1.0  0.45884  0.07864  0.61332  1.0000
  H   H276      1.0  0.33873  0.14585  0.62000  1.0000
  C   C351      1.0  0.38646  0.01841  0.94833  1.0000
  C   C352      1.0  0.47266  0.15498  0.91761  1.0000
  C   C353      1.0  0.28036  0.12710  0.50827  1.0000
  C   C354      1.0  0.10434  0.17093  0.51066  1.0000
  C   C355      1.0  0.25309  0.09992  0.95257  1.0000
  C   C356      1.0  0.37259  0.99073  0.64398  1.0000
  H   H277      1.0  0.18112  0.99902  0.97644  1.0000
  C   C357      1.0  0.37230  0.06683  0.58869  1.0000
  H   H278      1.0  0.26846  0.10632  0.57174  1.0000
  H   H279      1.0  0.19486  0.00529  0.89013  1.0000
  C   C358      1.0  0.40286  0.99389  0.70522  1.0000
  H   H280      1.0  0.39541  0.04521  0.84688  1.0000
  H   H281      1.0  0.39468  0.07173  0.61489  1.0000
  C   C359      1.0  0.44226  0.06643  0.64696  1.0000
  C   C360      1.0  0.44618  0.07131  0.61807  1.0000
  C   C361      1.0  0.29916  0.02444  0.50947  1.0000
  C   C362      1.0  0.44272  0.14244  0.68081  1.0000
  C   C363      1.0  0.35216  0.03880  0.58652  1.0000
  C   C364      1.0  0.27827  0.05694  0.82435  1.0000
  C   C365      1.0  0.25053  0.18141  0.50715  1.0000
  H   H282      1.0  0.43452  0.15497  0.90385  1.0000
  C   C366      1.0  0.26204  0.99589  0.94345  1.0000
  C   C367      1.0  0.46068  0.14038  0.74331  1.0000
  H   H283      1.0  0.40233  0.18494  0.96340  1.0000
  H   H284      1.0  0.41067  0.08762  0.97110  1.0000
  C   C368      1.0  0.46752  0.15795  0.65574  1.0000
  C   C369      1.0  0.27017  0.03945  0.50157  1.0000
  H   H285      1.0  0.34508  0.18259  0.52279  1.0000
  H   H286      1.0  0.26070  0.17232  0.91459  1.0000
  C   C370      1.0  0.25626  0.01588  0.91457  1.0000
  H   H287      1.0  0.26809  0.17220  0.57033  1.0000
  H   H288      1.0  0.43646  0.13545  0.69917  1.0000
  C   C371      1.0  0.41375  0.06560  0.98305  1.0000
  H   H289      1.0  0.45930  0.13826  0.96654  1.0000
  C   C372      1.0  0.01343  0.18328  0.77455  1.0000
  H   H290      1.0  0.26885  0.08674  0.95516  1.0000
  H   H291      1.0  0.11636  0.99380  0.62724  1.0000
  C   C373      1.0  0.26003  0.04766  0.50653  1.0000
  H   H292      1.0  0.30258  0.07945  0.96660  1.0000
  H   H293      1.0  0.19723  0.00777  0.66296  1.0000
  H   H294      1.0  0.45900  0.13106  0.85442  1.0000
  H   H295      1.0  0.24857  0.04155  0.51727  1.0000
  H   H296      1.0  0.47131  0.16359  0.76818  1.0000
  C   C374      1.0  0.09381  0.15863  0.49075  1.0000
  C   C375      1.0  0.44113  0.17550  0.95538  1.0000
  C   C376      1.0  0.19351  0.99955  0.97842  1.0000
  C   C377      1.0  0.39500  0.99792  0.61111  1.0000
  H   H297      1.0  0.17559  0.99318  0.77423  1.0000
  H   H298      1.0  0.44902  0.02331  0.69986  1.0000
  H   H299      1.0  0.24086  0.06751  0.97274  1.0000
  C   C378      1.0  0.19229  0.00162  0.58820  1.0000
  H   H300      1.0  0.21286  0.99205  0.68033  1.0000
  H   H301      1.0  0.28523  0.18824  0.61394  1.0000
  H   H302      1.0  0.39927  0.15634  0.95674  1.0000
  H   H303      1.0  0.31023  0.18409  0.98396  1.0000
  H   H304      1.0  0.47151  0.99662  0.77479  1.0000
  H   H305      1.0  0.17352  0.18592  0.53026  1.0000
  H   H306      1.0  0.24791  0.99836  0.57857  1.0000
  H   H307      1.0  0.10181  0.17057  0.53395  1.0000
  H   H308      1.0  0.33998  0.13457  0.49507  1.0000
  C   C379      1.0  0.36846  0.18166  0.57607  1.0000
  C   C380      1.0  0.22520  0.99165  0.48521  1.0000
  H   H309      1.0  0.98325  0.18781  0.74055  1.0000
  C   C381      1.0  0.35925  0.18484  0.59784  1.0000
  H   H310      1.0  0.25688  0.07015  0.50233  1.0000
  C   C382      1.0  0.25421  0.10376  0.50012  1.0000
  C   C383      1.0  0.26465  0.06375  0.49785  1.0000
  C   C384      1.0  0.01834  0.18738  0.80448  1.0000
  C   C385      1.0  0.28494  0.04718  0.48737  1.0000
  C   C386      1.0  0.17498  0.99897  0.75354  1.0000
  H   H311      1.0  0.24368  0.09631  0.48559  1.0000
  C   C387      1.0  0.25400  0.99034  0.89115  1.0000
  Fe  Fe27      1.0  0.04177  0.26766  0.36896  1.0000
  S   S49       1.0  0.04643  0.25508  0.40867  1.0000
  S   S50       1.0  0.05637  0.29387  0.35658  1.0000
  Fe  Fe28      1.0  0.01372  0.23638  0.34141  1.0000
  S   S51       1.0  0.01660  0.22123  0.37941  1.0000
  S   S52       1.0  0.99298  0.23155  0.30477  1.0000
  Fe  Fe29      1.0  0.01868  0.24226  0.41013  1.0000
  S   S53       1.0  0.00608  0.24351  0.45310  1.0000
  Fe  Fe30      1.0  0.04436  0.23516  0.37565  1.0000
  S   S54       1.0  0.06320  0.22349  0.37903  1.0000
  S   S55       1.0  0.01442  0.25666  0.37256  1.0000
  S   S56       1.0  0.04112  0.24846  0.33568  1.0000
  Fe  Fe31      1.0  0.10032  0.37738  0.44358  1.0000
  S   S57       1.0  0.08502  0.35120  0.45520  1.0000
  Fe  Fe32      1.0  0.45532  0.36691  0.24443  1.0000
  S   S58       1.0  0.43489  0.35723  0.27590  1.0000
  S   S59       1.0  0.45843  0.35333  0.20301  1.0000
  C   C388      1.0  0.05086  0.36234  0.46205  1.0000
  Fe  Fe33      1.0  0.45445  0.36888  0.31284  1.0000
  S   S60       1.0  0.45699  0.35712  0.35715  1.0000
  C   C389      1.0  0.29865  0.22311  0.44302  1.0000
  Fe  Fe34      1.0  0.19160  0.24047  0.38843  1.0000
  S   S61       1.0  0.21116  0.25617  0.35847  1.0000
  S   S62       1.0  0.19619  0.22325  0.42139  1.0000
  Fe  Fe35      1.0  0.16424  0.24979  0.35970  1.0000
  S   S63       1.0  0.18223  0.26540  0.32790  1.0000
  S   S64       1.0  0.14055  0.25465  0.35565  1.0000
  Fe  Fe36      1.0  0.19135  0.24555  0.32167  1.0000
  S   S65       1.0  0.19397  0.23925  0.27301  1.0000
  Fe  Fe37      1.0  0.20042  0.27480  0.36685  1.0000
  S   S66       1.0  0.20990  0.30249  0.37090  1.0000
  S   S67       1.0  0.17202  0.22902  0.35090  1.0000
  S   S68       1.0  0.18238  0.25986  0.39921  1.0000
  S   S69       1.0  0.27575  0.36947  0.44913  1.0000
  Fe  Fe38      1.0  0.40283  0.28991  0.06650  1.0000
  S   S70       1.0  0.38580  0.29159  0.02926  1.0000
  S   S71       1.0  0.40327  0.30444  0.10935  1.0000
  Fe  Fe39      1.0  0.40987  0.26386  0.03044  1.0000
  H   H312      1.0  0.22180  0.19969  0.00857  1.0000
  S   S72       1.0  0.42300  0.24626  0.03196  1.0000
  S   S73       1.0  0.24062  0.21437  0.19995  1.0000
  S   S74       1.0  0.40910  0.31281  0.45441  1.0000
  Fe  Fe40      1.0  0.37599  0.26426  0.02495  1.0000
  S   S75       1.0  0.34958  0.24517  0.01826  1.0000
  S   S76       1.0  0.42279  0.29164  0.03610  1.0000
  S   S77       1.0  0.39149  0.26231  0.06409  1.0000
  Fe  Fe41      1.0  0.24191  0.20897  0.15014  1.0000
  C   C390      1.0  0.98877  0.20636  0.26306  1.0000
  Fe  Fe42      1.0  0.26730  0.22219  0.10183  1.0000
  C   C391      1.0  0.04257  0.22203  0.27585  1.0000
  S   S78       1.0  0.29144  0.24430  0.09628  1.0000
  Fe  Fe43      1.0  0.23034  0.20769  0.08439  1.0000
  S   S79       1.0  0.21132  0.21414  0.05775  1.0000
  S   S80       1.0  0.24642  0.22813  0.11625  1.0000
  P   P14       1.0  0.45760  0.35494  0.03616  1.0000
  C   C392      1.0  0.41385  0.22433  0.02993  1.0000
  C   C393      1.0  0.42392  0.21562  0.03387  1.0000
  H   H313      1.0  0.01653  0.19772  0.22004  1.0000
  C   C394      1.0  0.15371  0.35087  0.45891  1.0000
  C   C395      1.0  0.39686  0.21539  0.02460  1.0000
  C   C396      1.0  0.12723  0.35206  0.44928  1.0000
  H   H314      1.0  0.28056  0.27726  0.98555  1.0000
  H   H315      1.0  0.38894  0.22182  0.02101  1.0000
  C   C397      1.0  0.33352  0.24505  0.04010  1.0000
  C   C398      1.0  0.31806  0.23174  0.03718  1.0000
  C   C399      1.0  0.30499  0.23138  0.05409  1.0000
  C   C400      1.0  0.30730  0.24433  0.07399  1.0000
  C   C401      1.0  0.32265  0.25776  0.07640  1.0000
  C   C402      1.0  0.33576  0.25805  0.05981  1.0000
  H   H316      1.0  0.31623  0.22164  0.02192  1.0000
  H   H317      1.0  0.29319  0.22106  0.05191  1.0000
  H   H318      1.0  0.32446  0.26801  0.09116  1.0000
  H   H319      1.0  0.34759  0.26835  0.06205  1.0000
  C   C403      1.0  0.20947  0.21529  0.01864  1.0000
  C   C404      1.0  0.46778  0.31467  0.05129  1.0000
  H   H320      1.0  0.46938  0.33557  0.07689  1.0000
  C   C405      1.0  0.20697  0.22657  0.45687  1.0000
  C   C406      1.0  0.31395  0.19515  0.12334  1.0000
  C   C407      1.0  0.26760  0.31992  0.99620  1.0000
  C   C408      1.0  0.36508  0.36161  0.27432  1.0000
  C   C409      1.0  0.46957  0.36427  0.09457  1.0000
  H   H321      1.0  0.33035  0.26756  0.46098  1.0000
  H   H322      1.0  0.19617  0.23074  0.02116  1.0000
  C   C410      1.0  0.20700  0.23205  0.25344  1.0000
  C   C411      1.0  0.20453  0.22963  0.22235  1.0000
  C   C412      1.0  0.21464  0.22427  0.20565  1.0000
  C   C413      1.0  0.22744  0.22124  0.21981  1.0000
  C   C414      1.0  0.22999  0.22377  0.25091  1.0000
  C   C415      1.0  0.21989  0.22916  0.26761  1.0000
  H   H323      1.0  0.19467  0.23187  0.21105  1.0000
  H   H324      1.0  0.21246  0.22241  0.18183  1.0000
  H   H325      1.0  0.30214  0.36956  0.28718  1.0000
  H   H326      1.0  0.22204  0.23102  0.29142  1.0000
  C   C416      1.0  0.22825  0.31662  0.39156  1.0000
  C   C417      1.0  0.25585  0.31678  0.41620  1.0000
  C   C418      1.0  0.26768  0.33558  0.43236  1.0000
  C   C419      1.0  0.26153  0.35129  0.43148  1.0000
  C   C420      1.0  0.24365  0.35127  0.41555  1.0000
  C   C421      1.0  0.22788  0.33556  0.39683  1.0000
  H   H327      1.0  0.26069  0.30734  0.41804  1.0000
  C   C422      1.0  0.14453  0.19582  0.42214  1.0000
  H   H328      1.0  0.24218  0.36266  0.41771  1.0000
  H   H329      1.0  0.21730  0.33745  0.38817  1.0000
  C   C423      1.0  0.41895  0.31795  0.13497  1.0000
  C   C424      1.0  0.43578  0.32303  0.13070  1.0000
  C   C425      1.0  0.44765  0.33377  0.15181  1.0000
  C   C426      1.0  0.44290  0.33965  0.17732  1.0000
  C   C427      1.0  0.42606  0.33459  0.18152  1.0000
  C   C428      1.0  0.41420  0.32385  0.16046  1.0000
  H   H330      1.0  0.43964  0.31860  0.11127  1.0000
  H   H331      1.0  0.46062  0.33745  0.14844  1.0000
  H   H332      1.0  0.42221  0.33897  0.20097  1.0000
  H   H333      1.0  0.40124  0.32003  0.16398  1.0000
  C   C429      1.0  0.44344  0.34460  0.38377  1.0000
  C   C430      1.0  0.45017  0.33991  0.40910  1.0000
  C   C431      1.0  0.43998  0.33010  0.43073  1.0000
  C   C432      1.0  0.42281  0.32485  0.42754  1.0000
  C   C433      1.0  0.41612  0.32967  0.40234  1.0000
  C   C434      1.0  0.42630  0.33938  0.38065  1.0000
  H   H334      1.0  0.46338  0.34378  0.41191  1.0000
  H   H335      1.0  0.44543  0.32660  0.44987  1.0000
  H   H336      1.0  0.40291  0.32562  0.39939  1.0000
  H   H337      1.0  0.42092  0.34270  0.36131  1.0000
  C   C435      1.0  0.08476  0.23251  0.37290  1.0000
  C   C436      1.0  0.09429  0.22335  0.37804  1.0000
  C   C437      1.0  0.11132  0.22986  0.37302  1.0000
  C   C438      1.0  0.11912  0.24570  0.36280  1.0000
  C   C439      1.0  0.10962  0.25492  0.35790  1.0000
  C   C440      1.0  0.09259  0.24841  0.36291  1.0000
  H   H338      1.0  0.08843  0.21106  0.38580  1.0000
  H   H339      1.0  0.11839  0.22262  0.37693  1.0000
  H   H340      1.0  0.11545  0.26718  0.35001  1.0000
  H   H341      1.0  0.08549  0.25562  0.35880  1.0000
  H   H342      1.0  0.15564  0.23164  0.42784  1.0000
  C   C441      1.0  0.26903  0.24510  0.47957  1.0000
  C   C442      1.0  0.06354  0.37578  0.33143  1.0000
  H   H343      1.0  0.06363  0.35848  0.39785  1.0000
  C   C443      1.0  0.14344  0.35918  0.46128  1.0000
  H   H344      1.0  0.31717  0.34225  0.29825  1.0000
  C   C444      1.0  0.23587  0.27917  0.02547  1.0000
  C   C445      1.0  0.26806  0.23708  0.00839  1.0000
  H   H345      1.0  0.30276  0.21755  0.18771  1.0000
  C   C446      1.0  0.05901  0.36309  0.37901  1.0000
  C   C447      1.0  0.24069  0.28703  0.99865  1.0000
  C   C448      1.0  0.32690  0.24322  0.44717  1.0000
  C   C449      1.0  0.07797  0.33526  0.42771  1.0000
  C   C450      1.0  0.06868  0.31921  0.43593  1.0000
  C   C451      1.0  0.06248  0.30630  0.41445  1.0000
  C   C452      1.0  0.06535  0.30942  0.38453  1.0000
  C   C453      1.0  0.07498  0.32541  0.37640  1.0000
  C   C454      1.0  0.08138  0.33828  0.39793  1.0000
  H   H346      1.0  0.06608  0.31678  0.45894  1.0000
  H   H347      1.0  0.05509  0.29401  0.42095  1.0000
  H   H348      1.0  0.07734  0.32787  0.35331  1.0000
  H   H349      1.0  0.08875  0.35056  0.39146  1.0000
  C   C455      1.0  0.41712  0.19829  0.03298  1.0000
  C   C456      1.0  0.15000  0.24463  0.98717  1.0000
  H   H350      1.0  0.04658  0.21365  0.31882  1.0000
  C   C457      1.0  0.11539  0.30973  0.37844  1.0000
  C   C458      1.0  0.12359  0.32399  0.36296  1.0000
  C   C459      1.0  0.11759  0.32575  0.33461  1.0000
  C   C460      1.0  0.10342  0.31331  0.32150  1.0000
  C   C461      1.0  0.09528  0.29905  0.33666  1.0000
  C   C462      1.0  0.10117  0.29726  0.36504  1.0000
  C   C463      1.0  0.98419  0.34522  0.37472  1.0000
  C   C464      1.0  0.24816  0.24681  0.02580  1.0000
  C   C465      1.0  0.16299  0.36347  0.33224  1.0000
  H   H351      1.0  0.12376  0.33686  0.32296  1.0000
  H   H352      1.0  0.09855  0.31476  0.29980  1.0000
  H   H353      1.0  0.08406  0.28951  0.32684  1.0000
  H   H354      1.0  0.09433  0.28624  0.37644  1.0000
  H   H355      1.0  0.44010  0.21177  0.37055  1.0000
  C   C466      1.0  0.16632  0.36728  0.38579  1.0000
  H   H356      1.0  0.19442  0.26029  0.00983  1.0000
  H   H357      1.0  0.38320  0.33173  0.33919  1.0000
  H   H358      1.0  0.37973  0.33755  0.39173  1.0000
  H   H359      1.0  0.14084  0.29783  0.46139  1.0000
  C   C467      1.0  0.14736  0.20538  0.05646  1.0000
  P   P15       1.0  0.13914  0.20117  0.45769  1.0000
  C   C468      1.0  0.46303  0.19661  0.33156  1.0000
  C   C469      1.0  0.42012  0.38377  0.18105  1.0000
  H   H360      1.0  0.34001  0.24637  0.44628  1.0000
  C   C470      1.0  0.07958  0.26851  0.45992  1.0000
  H   H361      1.0  0.30075  0.26065  0.46480  1.0000
  C   C471      1.0  0.99473  0.22765  0.17334  1.0000
  C   C472      1.0  0.01295  0.38765  0.29299  1.0000
  H   H362      1.0  0.98311  0.21206  0.13473  1.0000
  H   H363      1.0  0.99733  0.20352  0.27724  1.0000
  H   H364      1.0  0.09927  0.30974  0.45805  1.0000
  H   H365      1.0  0.16524  0.23201  0.48333  1.0000
  H   H366      1.0  0.16905  0.29465  0.29763  1.0000
  C   C473      1.0  0.46331  0.30615  0.02385  1.0000
  H   H367      1.0  0.01720  0.33320  0.45785  1.0000
  C   C474      1.0  0.03116  0.26601  0.27714  1.0000
  C   C475      1.0  0.04490  0.28049  0.27328  1.0000
  C   C476      1.0  0.05620  0.28086  0.25245  1.0000
  C   C477      1.0  0.05388  0.26669  0.23574  1.0000
  C   C478      1.0  0.04027  0.25199  0.24003  1.0000
  C   C479      1.0  0.02896  0.25180  0.26081  1.0000
  P   P16       1.0  0.03752  0.23317  0.22050  1.0000
  C   C480      1.0  0.03416  0.21773  0.24778  1.0000
  H   H368      1.0  0.20362  0.20138  0.45934  1.0000
  H   H369      1.0  0.22326  0.36210  0.35983  1.0000
  H   H370      1.0  0.28864  0.29743  0.09050  1.0000
  Fe  Fe44      1.0  0.43435  0.38213  0.27290  1.0000
  H   H371      1.0  0.08576  0.25113  0.43529  1.0000
  H   H372      1.0  0.32770  0.33282  0.34284  1.0000
  C   C481      1.0  0.26738  0.25854  0.46642  1.0000
  H   H373      1.0  0.14810  0.37125  0.47206  1.0000
  C   C482      1.0  0.39655  0.36292  0.39141  1.0000
  C   C483      1.0  0.21576  0.20708  0.99949  1.0000
  H   H374      1.0  0.45833  0.35438  0.10063  1.0000
  H   H375      1.0  0.36761  0.22753  0.05181  1.0000
  C   C484      1.0  0.02919  0.19403  0.29063  1.0000
  H   H376      1.0  0.02244  0.26560  0.29349  1.0000
  H   H377      1.0  0.04687  0.29133  0.28680  1.0000
  H   H378      1.0  0.06686  0.29209  0.24954  1.0000
  H   H379      1.0  0.06287  0.26722  0.22001  1.0000
  H   H380      1.0  0.01856  0.24054  0.26475  1.0000
  H   H381      1.0  0.26559  0.24202  0.05438  1.0000
  C   C485      1.0  0.24233  0.24687  0.99655  1.0000
  H   H382      1.0  0.98149  0.22166  0.05331  1.0000
  H   H383      1.0  0.26336  0.22063  0.34738  1.0000
  H   H384      1.0  0.40561  0.34512  0.46191  1.0000
  H   H385      1.0  0.23982  0.22146  0.26217  1.0000
  H   H386      1.0  0.41126  0.38446  0.19615  1.0000
  C   C486      1.0  0.99365  0.21643  0.15062  1.0000
  C   C487      1.0  0.13443  0.38670  0.05558  1.0000
  C   C488      1.0  0.30885  0.33601  0.31513  1.0000
  C   C489      1.0  0.16306  0.26803  0.02166  1.0000
  C   C490      1.0  0.26692  0.22443  0.39498  1.0000
  C   C491      1.0  0.16079  0.31230  0.31574  1.0000
  C   C492      1.0  0.34642  0.20914  0.07019  1.0000
  H   H387      1.0  0.18001  0.29012  0.00298  1.0000
  C   C493      1.0  0.03030  0.32473  0.39238  1.0000
  C   C494      1.0  0.06912  0.36941  0.35552  1.0000
  C   C495      1.0  0.45918  0.33546  0.03216  1.0000
  H   H388      1.0  0.22451  0.22747  0.39076  1.0000
  C   C496      1.0  0.30403  0.32254  0.36197  1.0000
  C   C497      1.0  0.31478  0.33068  0.34025  1.0000
  C   C498      1.0  0.07256  0.24527  0.15900  1.0000
  H   H389      1.0  0.02607  0.36181  0.21168  1.0000
  C   C499      1.0  0.40726  0.37547  0.37460  1.0000
  H   H390      1.0  0.21873  0.37581  0.45608  1.0000
  H   H391      1.0  0.99800  0.34505  0.03020  1.0000
  C   C500      1.0  0.46037  0.36364  0.99986  1.0000
  S   S81       1.0  0.11941  0.38509  0.40979  1.0000
  C   C501      1.0  0.08247  0.23411  0.20028  1.0000
  H   H392      1.0  0.43709  0.22233  0.03783  1.0000
  H   H393      1.0  0.09567  0.24262  0.16085  1.0000
  H   H394      1.0  0.19852  0.31148  0.31112  1.0000
  H   H395      1.0  0.14564  0.24461  0.03403  1.0000
  H   H396      1.0  0.10779  0.19890  0.00802  1.0000
  C   C502      1.0  0.21362  0.24188  0.47176  1.0000
  H   H397      1.0  0.09919  0.35729  0.02354  1.0000
  C   C503      1.0  0.29223  0.27751  0.02828  1.0000
  C   C504      1.0  0.00795  0.23280  0.19463  1.0000
  H   H398      1.0  0.39493  0.36505  0.41440  1.0000
  H   H399      1.0  0.05039  0.35008  0.46010  1.0000
  C   C505      1.0  0.30460  0.25120  0.45768  1.0000
  H   H400      1.0  0.43655  0.36514  0.99574  1.0000
  C   C506      1.0  0.27769  0.29825  0.04720  1.0000
  Fe  Fe45      1.0  0.40550  0.29256  0.99828  1.0000
  C   C507      1.0  0.99517  0.22842  0.01355  1.0000
  H   H401      1.0  0.11117  0.20896  0.47472  1.0000
  C   C508      1.0  0.14073  0.24535  0.43185  1.0000
  C   C509      1.0  0.46578  0.32928  0.05546  1.0000
  C   C510      1.0  0.14460  0.23188  0.43672  1.0000
  H   H402      1.0  0.34623  0.35103  0.23922  1.0000
  H   H403      1.0  0.39589  0.34767  0.07922  1.0000
  H   H404      1.0  0.06685  0.22650  0.23669  1.0000
  C   C511      1.0  0.04244  0.36805  0.44106  1.0000
  C   C512      1.0  0.23638  0.22665  0.39197  1.0000
  H   H405      1.0  0.33794  0.21270  0.05716  1.0000
  S   S82       1.0  0.25163  0.20302  0.06761  1.0000
  H   H406      1.0  0.16675  0.36025  0.31144  1.0000
  C   C513      1.0  0.00693  0.35057  0.07601  1.0000
  C   C514      1.0  0.22161  0.37169  0.34768  1.0000
  C   C515      1.0  0.17152  0.27750  0.99860  1.0000
  H   H407      1.0  0.18884  0.32416  0.44686  1.0000
  H   H408      1.0  0.46459  0.29468  0.02078  1.0000
  C   C516      1.0  0.13198  0.19417  0.06441  1.0000
  C   C517      1.0  0.31724  0.26061  0.22541  1.0000
  C   C518      1.0  0.30265  0.25296  0.20772  1.0000
  C   C519      1.0  0.30277  0.25473  0.17707  1.0000
  C   C520      1.0  0.31745  0.26416  0.16408  1.0000
  C   C521      1.0  0.33216  0.27209  0.18165  1.0000
  C   C522      1.0  0.33196  0.27009  0.21246  1.0000
  P   P17       1.0  0.35133  0.28339  0.16439  1.0000
  C   C523      1.0  0.36567  0.29894  0.19016  1.0000
  C   C524      1.0  0.36000  0.26925  0.15280  1.0000
  C   C525      1.0  0.37716  0.27434  0.15252  1.0000
  C   C526      1.0  0.38387  0.26361  0.14254  1.0000
  C   C527      1.0  0.37352  0.24774  0.13261  1.0000
  C   C528      1.0  0.35642  0.24265  0.13228  1.0000
  C   C529      1.0  0.34967  0.25338  0.14218  1.0000
  C   C530      1.0  0.36796  0.31539  0.18828  1.0000
  C   C531      1.0  0.37952  0.32741  0.20754  1.0000
  C   C532      1.0  0.38891  0.32313  0.22875  1.0000
  C   C533      1.0  0.38662  0.30680  0.23095  1.0000
  C   C534      1.0  0.37500  0.29474  0.21189  1.0000
  C   C535      1.0  0.34766  0.29326  0.13188  1.0000
  C   C536      1.0  0.33517  0.29913  0.13084  1.0000
  C   C537      1.0  0.33231  0.30663  0.10548  1.0000
  C   C538      1.0  0.34197  0.30843  0.08112  1.0000
  C   C539      1.0  0.35463  0.30291  0.08224  1.0000
  C   C540      1.0  0.35751  0.29540  0.10752  1.0000
  H   H409      1.0  0.31715  0.25908  0.24916  1.0000
  C   C541      1.0  0.30620  0.21147  0.16996  1.0000
  H   H410      1.0  0.29149  0.24862  0.16323  1.0000
  H   H411      1.0  0.31729  0.26504  0.14025  1.0000
  H   H412      1.0  0.34313  0.27569  0.22655  1.0000
  H   H413      1.0  0.38545  0.28674  0.15913  1.0000
  H   H414      1.0  0.39713  0.26781  0.14171  1.0000
  H   H415      1.0  0.37878  0.23956  0.12454  1.0000
  H   H416      1.0  0.34842  0.23048  0.12384  1.0000
  H   H417      1.0  0.33643  0.24933  0.14094  1.0000
  H   H418      1.0  0.36106  0.31905  0.17171  1.0000
  H   H419      1.0  0.38145  0.34011  0.20571  1.0000
  H   H420      1.0  0.39814  0.33250  0.24319  1.0000
  H   H421      1.0  0.39408  0.30353  0.24714  1.0000
  H   H422      1.0  0.37353  0.28216  0.21372  1.0000
  H   H423      1.0  0.32760  0.29786  0.14954  1.0000
  H   H424      1.0  0.32255  0.31098  0.10465  1.0000
  H   H425      1.0  0.33968  0.31408  0.06136  1.0000
  H   H426      1.0  0.36218  0.30428  0.06343  1.0000
  H   H427      1.0  0.36734  0.29116  0.10775  1.0000
  H   H428      1.0  0.00821  0.24118  0.21231  1.0000
  H   H429      1.0  0.17973  0.32761  0.39596  1.0000
  C   C542      1.0  0.15803  0.19157  0.41979  1.0000
  H   H430      1.0  0.23951  0.23025  0.43931  1.0000
  C   C543      1.0  0.09685  0.29708  0.45332  1.0000
  C   C544      1.0  0.22321  0.28247  0.28392  1.0000
  C   C545      1.0  0.23195  0.27632  0.26602  1.0000
  C   C546      1.0  0.24915  0.28374  0.26714  1.0000
  C   C547      1.0  0.25766  0.29741  0.28611  1.0000
  C   C548      1.0  0.24896  0.30368  0.30426  1.0000
  C   C549      1.0  0.23165  0.29611  0.30292  1.0000
  P   P18       1.0  0.25975  0.32140  0.32878  1.0000
  C   C550      1.0  0.25094  0.31789  0.36445  1.0000
  C   C551      1.0  0.28130  0.32507  0.33351  1.0000
  C   C552      1.0  0.28734  0.31969  0.35861  1.0000
  H   H431      1.0  0.24234  0.24998  0.04402  1.0000
  C   C553      1.0  0.37466  0.21378  0.08429  1.0000
  H   H432      1.0  0.01022  0.34017  0.07763  1.0000
  C   C554      1.0  0.29217  0.33321  0.31173  1.0000
  C   C555      1.0  0.25315  0.33438  0.38649  1.0000
  C   C556      1.0  0.23879  0.32514  0.43607  1.0000
  C   C557      1.0  0.22994  0.30430  0.43695  1.0000
  C   C558      1.0  0.23122  0.29237  0.40834  1.0000
  C   C559      1.0  0.24069  0.29847  0.37576  1.0000
  C   C560      1.0  0.25828  0.33952  0.31407  1.0000
  C   C561      1.0  0.24508  0.33830  0.29437  1.0000
  C   C562      1.0  0.24402  0.35241  0.28339  1.0000
  C   C563      1.0  0.25607  0.36783  0.29203  1.0000
  C   C564      1.0  0.26913  0.36919  0.31190  1.0000
  C   C565      1.0  0.27028  0.35511  0.32283  1.0000
  H   H433      1.0  0.20986  0.27649  0.28319  1.0000
  H   H434      1.0  0.22536  0.26569  0.25140  1.0000
  C   C566      1.0  0.14855  0.21436  0.03097  1.0000
  H   H435      1.0  0.27096  0.30285  0.28664  1.0000
  H   H436      1.0  0.22465  0.30067  0.31670  1.0000
  H   H437      1.0  0.27919  0.31324  0.37554  1.0000
  H   H438      1.0  0.40239  0.35374  0.30943  1.0000
  H   H439      1.0  0.04911  0.24652  0.16319  1.0000
  C   C567      1.0  0.37071  0.37271  0.29860  1.0000
  H   H440      1.0  0.28770  0.33725  0.29202  1.0000
  H   H441      1.0  0.25999  0.34652  0.37818  1.0000
  H   H442      1.0  0.23760  0.33209  0.45532  1.0000
  C   C568      1.0  0.98474  0.21940  0.27122  1.0000
  H   H443      1.0  0.22528  0.27933  0.41109  1.0000
  H   H444      1.0  0.24004  0.28874  0.36061  1.0000
  H   H445      1.0  0.23551  0.32654  0.28754  1.0000
  H   H446      1.0  0.23374  0.35139  0.26834  1.0000
  H   H447      1.0  0.25518  0.37878  0.28373  1.0000
  H   H448      1.0  0.27826  0.38121  0.31909  1.0000
  H   H449      1.0  0.28037  0.35641  0.33853  1.0000
  C   C569      1.0  0.98745  0.21210  0.47271  1.0000
  H   H450      1.0  0.15600  0.32932  0.44331  1.0000
  C   C570      1.0  0.08913  0.26395  0.44099  1.0000
  C   C571      1.0  0.20602  0.37219  0.34388  1.0000
  C   C572      1.0  0.34711  0.37971  0.29084  1.0000
  C   C573      1.0  0.39004  0.19810  0.02408  1.0000
  P   P19       1.0  0.27141  0.22946  0.45690  1.0000
  C   C574      1.0  0.42447  0.33718  0.04755  1.0000
  C   C575      1.0  0.29308  0.23506  0.45182  1.0000
  C   C576      1.0  0.11895  0.20087  0.02122  1.0000
  H   H451      1.0  0.29122  0.24553  0.21763  1.0000
  C   C577      1.0  0.20727  0.26796  0.00698  1.0000
  H   H452      1.0  0.16643  0.35662  0.46759  1.0000
  C   C578      1.0  0.28397  0.33067  0.00405  1.0000
  H   H453      1.0  0.98392  0.36932  0.43356  1.0000
  H   H454      1.0  0.45469  0.38198  0.47691  1.0000
  C   C579      1.0  0.14514  0.37293  0.35852  1.0000
  C   C580      1.0  0.12629  0.24564  0.44223  1.0000
  H   H455      1.0  0.27870  0.22354  0.39546  1.0000
  C   C581      1.0  0.26033  0.22718  0.42121  1.0000
  C   C582      1.0  0.30524  0.38601  0.36795  1.0000
  C   C583      1.0  0.00436  0.36332  0.42340  1.0000
  C   C584      1.0  0.24494  0.22822  0.41945  1.0000
  C   C585      1.0  0.02332  0.20140  0.24131  1.0000
  C   C586      1.0  0.44335  0.38179  0.14329  1.0000
  C   C587      1.0  0.01999  0.32635  0.44055  1.0000
  H   H456      1.0  0.27206  0.30622  0.05488  1.0000
  C   C588      1.0  0.40943  0.33554  0.05851  1.0000
  H   H457      1.0  0.46207  0.22029  0.33469  1.0000
  H   H458      1.0  0.30139  0.27889  0.07368  1.0000
  C   C589      1.0  0.41709  0.36909  0.16554  1.0000
  H   H459      1.0  0.40592  0.35836  0.16857  1.0000
  H   H460      1.0  0.21245  0.25223  0.46150  1.0000
  H   H461      1.0  0.12721  0.36127  0.04293  1.0000
  H   H462      1.0  0.98499  0.23194  0.17497  1.0000
  H   H463      1.0  0.26734  0.25961  0.44257  1.0000
  H   H464      1.0  0.42505  0.19185  0.03611  1.0000
  C   C590      1.0  0.31257  0.18911  0.15207  1.0000
  P   P20       1.0  0.03071  0.35516  0.40963  1.0000
  H   H465      1.0  0.05112  0.23451  0.28132  1.0000
  H   H466      1.0  0.47260  0.20033  0.31582  1.0000
  H   H467      1.0  0.30708  0.19226  0.19717  1.0000
  C   C591      1.0  0.40058  0.35628  0.33226  1.0000
  H   H468      1.0  0.09185  0.23071  0.21063  1.0000
  C   C592      1.0  0.44471  0.20305  0.36234  1.0000
  H   H469      1.0  0.00583  0.23785  0.02499  1.0000
  C   C593      1.0  0.10762  0.36907  0.03315  1.0000
  C   C594      1.0  0.14564  0.29862  0.38688  1.0000
  C   C595      1.0  0.17271  0.30663  0.30838  1.0000
  S   S83       1.0  0.47540  0.37711  0.28145  1.0000
  C   C596      1.0  0.19323  0.33622  0.43784  1.0000
  C   C597      1.0  0.16598  0.29130  0.41310  1.0000
  H   H470      1.0  0.31384  0.21503  0.09689  1.0000
  C   C598      1.0  0.43044  0.36349  0.46596  1.0000
  H   H471      1.0  0.38777  0.22044  0.08187  1.0000
  C   C599      1.0  0.20125  0.22454  0.00649  1.0000
  H   H472      1.0  0.00435  0.33890  0.36460  1.0000
  H   H473      1.0  0.32210  0.36005  0.39192  1.0000
  C   C600      1.0  0.15895  0.29404  0.38656  1.0000
  H   H474      1.0  0.37686  0.19144  0.02029  1.0000
  H   H475      1.0  0.30625  0.22886  0.13752  1.0000
  H   H476      1.0  0.03561  0.33015  0.37206  1.0000
  C   C601      1.0  0.10661  0.29262  0.43445  1.0000
  C   C602      1.0  0.15326  0.37225  0.38540  1.0000
  C   C603      1.0  0.29436  0.28298  0.05795  1.0000
  C   C604      1.0  0.25573  0.32636  0.99068  1.0000
  H   H477      1.0  0.20989  0.37936  0.40526  1.0000
  C   C605      1.0  0.00588  0.21043  0.14896  1.0000
  H   H478      1.0  0.31979  0.21790  0.43446  1.0000
  H   H479      1.0  0.25084  0.20511  0.99504  1.0000
  H   H480      1.0  0.47266  0.30983  0.06943  1.0000
  C   C606      1.0  0.34069  0.19615  0.08960  1.0000
  C   C607      1.0  0.16547  0.32742  0.33089  1.0000
  H   H481      1.0  0.15592  0.33112  0.33748  1.0000
  C   C608      1.0  0.98133  0.21925  0.02974  1.0000
  H   H482      1.0  0.00485  0.20154  0.13152  1.0000
  S   S84       1.0  0.39400  0.26499  0.99081  1.0000
  C   C609      1.0  0.32143  0.25522  0.45537  1.0000
  H   H483      1.0  0.06891  0.25922  0.46915  1.0000
  H   H484      1.0  0.21564  0.26307  0.04981  1.0000
  C   C610      1.0  0.27514  0.29249  0.01747  1.0000
  H   H485      1.0  0.14786  0.30470  0.31049  1.0000
  C   C611      1.0  0.13437  0.21209  0.01296  1.0000
  H   H486      1.0  0.02576  0.37021  0.35382  1.0000
  S   S85       1.0  0.40953  0.38378  0.26733  1.0000
  C   C612      1.0  0.26016  0.34323  0.99321  1.0000
  H   H487      1.0  0.08147  0.36973  0.35628  1.0000
  H   H488      1.0  0.30154  0.37085  0.40579  1.0000
  H   H489      1.0  0.11933  0.35859  0.45093  1.0000
  H   H490      1.0  0.02843  0.21066  0.16863  1.0000
  C   C613      1.0  0.32855  0.37404  0.35239  1.0000
  C   C614      1.0  0.13115  0.32778  0.43379  1.0000
  H   H491      1.0  0.27995  0.36693  0.00152  1.0000
  C   C615      1.0  0.28713  0.29338  0.06739  1.0000
  H   H492      1.0  0.42641  0.35673  0.13469  1.0000
  H   H493      1.0  0.02929  0.30108  0.37895  1.0000
  C   C616      1.0  0.42866  0.36816  0.14649  1.0000
  H   H494      1.0  0.23626  0.22263  0.34479  1.0000
  H   H495      1.0  0.14971  0.37598  0.40598  1.0000
  C   C617      1.0  0.31982  0.36874  0.37796  1.0000
  C   C618      1.0  0.13930  0.30048  0.41390  1.0000
  C   C619      1.0  0.30815  0.21784  0.14169  1.0000
  H   H496      1.0  0.28161  0.36812  0.24719  1.0000
  C   C620      1.0  0.08342  0.28505  0.46602  1.0000
  C   C621      1.0  0.19434  0.35371  0.39666  1.0000
  C   C622      1.0  0.14764  0.33527  0.44518  1.0000
  P   P21       1.0  0.18822  0.35647  0.35916  1.0000
  C   C623      1.0  0.20514  0.36726  0.41411  1.0000
  H   H497      1.0  0.05503  0.38252  0.21533  1.0000
  H   H498      1.0  0.00585  0.36452  0.17501  1.0000
  H   H499      1.0  0.16581  0.19175  0.43908  1.0000
  H   H500      1.0  0.37236  0.35504  0.26751  1.0000
  C   C624      1.0  0.19409  0.33139  0.33055  1.0000
  C   C625      1.0  0.04315  0.36294  0.37844  1.0000
  H   H501      1.0  0.14030  0.30056  0.36607  1.0000
  C   C626      1.0  0.27648  0.35383  0.00070  1.0000
  H   H502      1.0  0.10955  0.27218  0.41307  1.0000
  C   C627      1.0  0.06821  0.23172  0.21502  1.0000
  C   C628      1.0  0.43576  0.36617  0.06054  1.0000
  C   C629      1.0  0.44780  0.36694  0.98515  1.0000
  C   C630      1.0  0.21013  0.36527  0.44304  1.0000
  C   C631      1.0  0.04782  0.37586  0.33081  1.0000
  C   C632      1.0  0.01039  0.35503  0.40368  1.0000
  H   H503      1.0  0.26389  0.28078  0.47378  1.0000
  C   C633      1.0  0.30856  0.19719  0.17522  1.0000
  C   C634      1.0  0.02032  0.22683  0.19314  1.0000
  C   C635      1.0  0.02709  0.33399  0.41471  1.0000
  C   C636      1.0  0.40754  0.34912  0.07050  1.0000
  H   H504      1.0  0.41492  0.38534  0.45144  1.0000
  H   H505      1.0  0.17266  0.36729  0.40686  1.0000
  H   H506      1.0  0.23204  0.25021  0.99201  1.0000
  C   C637      1.0  0.03766  0.36958  0.35435  1.0000
  H   H507      1.0  0.13449  0.33382  0.37294  1.0000
  H   H508      1.0  0.47871  0.37058  0.14004  1.0000
  H   H509      1.0  0.29771  0.26928  0.02121  1.0000
  C   C638      1.0  0.18222  0.33727  0.33809  1.0000
  P   P22       1.0  0.12307  0.30772  0.41527  1.0000
  C   C639      1.0  0.34146  0.36849  0.26649  1.0000
  H   H510      1.0  0.12491  0.19963  0.39747  1.0000
  C   C640      1.0  0.99580  0.36670  0.04707  1.0000
  C   C641      1.0  0.01999  0.30074  0.42219  1.0000
  C   C642      1.0  0.05831  0.24294  0.17370  1.0000
  C   C643      1.0  0.18933  0.31616  0.31586  1.0000
  C   C644      1.0  0.04008  0.21022  0.29716  1.0000
  C   C645      1.0  0.42067  0.36449  0.07128  1.0000
  C   C646      1.0  0.11779  0.19196  0.04686  1.0000
  C   C647      1.0  0.41455  0.35519  0.47551  1.0000
  H   H511      1.0  0.01494  0.35883  0.12104  1.0000
  C   C648      1.0  0.15925  0.29239  0.43998  1.0000
  H   H512      1.0  0.33751  0.36925  0.34691  1.0000
  C   C649      1.0  0.36909  0.20130  0.10448  1.0000
  H   H513      1.0  0.10867  0.33144  0.42539  1.0000
  C   C650      1.0  0.29392  0.37772  0.24763  1.0000
  C   C651      1.0  0.36179  0.38173  0.30684  1.0000
  C   C652      1.0  0.01663  0.30983  0.44439  1.0000
  C   C653      1.0  0.10260  0.27594  0.42840  1.0000
  C   C654      1.0  0.15226  0.25168  0.01597  1.0000
  H   H514      1.0  0.42562  0.32649  0.03821  1.0000
  C   C655      1.0  0.38974  0.34395  0.34895  1.0000
  H   H515      1.0  0.20699  0.33819  0.33665  1.0000
  C   C656      1.0  0.02665  0.30815  0.39610  1.0000
  H   H516      1.0  0.16380  0.29242  0.36572  1.0000
  H   H517      1.0  0.30859  0.31835  0.38142  1.0000
  H   H518      1.0  0.27793  0.23317  0.01348  1.0000
  H   H519      1.0  0.25583  0.27876  0.25339  1.0000
  C   C657      1.0  0.01845  0.37360  0.17632  1.0000
  C   C658      1.0  0.26112  0.24207  0.03167  1.0000
  C   C659      1.0  0.36332  0.21777  0.06734  1.0000
  C   C660      1.0  0.17124  0.36276  0.35919  1.0000
  C   C661      1.0  0.18813  0.33821  0.40892  1.0000
  C   C662      1.0  0.38778  0.34725  0.37854  1.0000
  H   H520      1.0  0.16061  0.22296  0.02516  1.0000
  C   C663      1.0  0.40940  0.37192  0.34507  1.0000
  C   C664      1.0  0.00008  0.34576  0.37958  1.0000
  C   C665      1.0  0.20479  0.38574  0.33027  1.0000
  C   C666      1.0  0.98128  0.19665  0.23705  1.0000
  C   C667      1.0  0.14587  0.29685  0.44039  1.0000
  C   C668      1.0  0.25827  0.22281  0.36754  1.0000
  C   C669      1.0  0.13417  0.21869  0.45256  1.0000
  H   H521      1.0  0.29344  0.32608  0.00784  1.0000
  C   C670      1.0  0.31220  0.20984  0.11857  1.0000
  C   C671      1.0  0.43782  0.35247  0.04899  1.0000
  C   C672      1.0  0.30820  0.37476  0.38578  1.0000
  H   H522      1.0  0.12311  0.25587  0.43751  1.0000
  H   H523      1.0  0.17656  0.28820  0.41267  1.0000
  H   H524      1.0  0.13516  0.37699  0.35826  1.0000
  H   H525      1.0  0.22341  0.29857  0.45611  1.0000
  C   C673      1.0  0.04482  0.38457  0.44279  1.0000
  C   C674      1.0  0.02085  0.18961  0.26270  1.0000
  H   H526      1.0  0.99154  0.20742  0.45390  1.0000
  C   C675      1.0  0.47266  0.36750  0.06457  1.0000
  C   C676      1.0  0.01918  0.21561  0.17007  1.0000
  C   C677      1.0  0.21923  0.26956  0.02948  1.0000
  C   C678      1.0  0.05597  0.23603  0.20174  1.0000
  C   C679      1.0  0.00958  0.36121  0.10063  1.0000
  H   H527      1.0  0.41785  0.38124  0.33177  1.0000
  H   H528      1.0  0.16446  0.28983  0.46046  1.0000
  H   H529      1.0  0.15840  0.20701  0.06995  1.0000
  H   H530      1.0  0.01756  0.28797  0.42523  1.0000
  C   C680      1.0  0.45710  0.20785  0.34214  1.0000
  C   C681      1.0  0.00543  0.37476  0.09858  1.0000
  H   H531      1.0  0.07422  0.25048  0.13726  1.0000
  H   H532      1.0  0.27941  0.33759  0.44354  1.0000
  H   H533      1.0  0.14387  0.36935  0.31109  1.0000
  C   C682      1.0  0.98922  0.38344  0.14810  1.0000
  H   H534      1.0  0.38231  0.37470  0.31035  1.0000
  H   H535      1.0  0.33035  0.36688  0.25342  1.0000
  H   H536      1.0  0.39927  0.32364  0.05806  1.0000
  C   C683      1.0  0.24301  0.22393  0.36603  1.0000
  C   C684      1.0  0.20427  0.34973  0.45486  1.0000
  S   S86       1.0  0.26411  0.20432  0.13780  1.0000
  C   C685      1.0  0.45656  0.31209  0.00068  1.0000
  C   C686      1.0  0.35216  0.19264  0.10743  1.0000
  C   C687      1.0  0.12117  0.33657  0.43517  1.0000
  H   H537      1.0  0.99042  0.36880  0.02634  1.0000
  C   C688      1.0  0.35043  0.35945  0.25834  1.0000
  C   C689      1.0  0.15005  0.36861  0.33194  1.0000
  H   H538      1.0  0.41920  0.37503  0.08054  1.0000
  H   H539      1.0  0.01169  0.36996  0.44289  1.0000
  C   C690      1.0  0.31551  0.22719  0.44077  1.0000
  H   H540      1.0  0.14863  0.25535  0.41909  1.0000
  C   C691      1.0  0.28252  0.28210  0.00814  1.0000
  C   C692      1.0  0.11965  0.21907  0.46301  1.0000
  C   C693      1.0  0.12343  0.37135  0.04403  1.0000
  H   H541      1.0  0.23799  0.20343  0.45901  1.0000
  C   C694      1.0  0.02330  0.38674  0.15713  1.0000
  H   H542      1.0  0.24486  0.27995  0.04306  1.0000
  H   H543      1.0  0.16488  0.27336  0.04396  1.0000
  C   C695      1.0  0.04617  0.38364  0.19915  1.0000
  H   H544      1.0  0.28998  0.21059  0.43834  1.0000
  C   C696      1.0  0.08463  0.24084  0.17227  1.0000
  H   H545      1.0  0.01149  0.30405  0.46461  1.0000
  C   C697      1.0  0.02987  0.37203  0.19713  1.0000
  H   H546      1.0  0.07572  0.28857  0.48004  1.0000
  H   H547      1.0  0.43369  0.36002  0.44484  1.0000
  H   H548      1.0  0.43914  0.37718  0.38209  1.0000
  H   H549      1.0  0.30107  0.35583  0.01158  1.0000
  C   C698      1.0  0.20869  0.21328  0.47064  1.0000
  C   C699      1.0  0.11573  0.23250  0.45773  1.0000
  C   C700      1.0  0.26330  0.21036  0.47575  1.0000
  C   C701      1.0  0.45430  0.32655  0.00490  1.0000
  C   C702      1.0  0.32555  0.38528  0.33425  1.0000
  C   C703      1.0  0.40007  0.18938  0.02828  1.0000
  H   H550      1.0  0.37792  0.19828  0.11765  1.0000
  C   C704      1.0  0.24640  0.20018  0.47286  1.0000
  H   H551      1.0  0.44590  0.37811  0.06148  1.0000
  C   C705      1.0  0.98849  0.36284  0.41837  1.0000
  P   P23       1.0  0.26225  0.29821  0.99183  1.0000
  S   S87       1.0  0.22447  0.18841  0.11925  1.0000
  H   H552      1.0  0.25104  0.34817  0.98832  1.0000
  H   H553      1.0  0.07159  0.38098  0.31360  1.0000
  H   H554      1.0  0.45230  0.38077  0.12884  1.0000
  C   C706      1.0  0.30559  0.37860  0.27030  1.0000
  C   C707      1.0  0.00005  0.35331  0.04925  1.0000
  H   H555      1.0  0.44864  0.33068  0.98685  1.0000
  H   H556      1.0  0.20841  0.34818  0.47710  1.0000
  H   H557      1.0  0.19324  0.38706  0.32822  1.0000
  C   C708      1.0  0.99845  0.37738  0.07162  1.0000
  H   H558      1.0  0.10432  0.23258  0.46515  1.0000
  H   H559      1.0  0.01954  0.38438  0.24874  1.0000
  C   C709      1.0  0.10283  0.38214  0.03360  1.0000
  C   C710      1.0  0.28838  0.34755  0.00621  1.0000
  C   C711      1.0  0.23552  0.38412  0.33716  1.0000
  C   C712      1.0  0.99274  0.22901  0.47736  1.0000
  C   C713      1.0  0.44565  0.38739  0.39758  1.0000
  H   H560      1.0  0.46917  0.38529  0.18144  1.0000
  C   C714      1.0  0.26561  0.27067  0.48404  1.0000
  H   H561      1.0  0.13224  0.19268  0.34865  1.0000
  H   H562      1.0  0.24750  0.38373  0.34055  1.0000
  H   H563      1.0  0.09081  0.38051  0.02400  1.0000
  H   H564      1.0  0.04372  0.38116  0.31236  1.0000
  H   H565      1.0  0.00311  0.37555  0.29311  1.0000
  C   C715      1.0  0.13524  0.19616  0.39627  1.0000
  C   C716      1.0  0.13929  0.19213  0.36857  1.0000
  H   H566      1.0  0.46674  0.38130  0.40281  1.0000
  H   H567      1.0  0.27237  0.18900  0.03410  1.0000
  H   H568      1.0  0.99501  0.38766  0.06960  1.0000
  C   C717      1.0  0.44226  0.37590  0.48404  1.0000
  C   C718      1.0  0.47423  0.36501  0.98444  1.0000
  Fe  Fe46      1.0  0.04412  0.26980  0.87799  1.0000
  S   S88       1.0  0.05064  0.25514  0.91243  1.0000
  S   S89       1.0  0.05778  0.29658  0.86671  1.0000
  Fe  Fe47      1.0  0.01582  0.23924  0.84784  1.0000
  S   S90       1.0  0.02050  0.22238  0.88049  1.0000
  S   S91       1.0  0.99540  0.23513  0.81079  1.0000
  Fe  Fe48      1.0  0.02293  0.24140  0.91620  1.0000
  S   S92       1.0  0.01334  0.23779  0.96361  1.0000
  Fe  Fe49      1.0  0.04785  0.23728  0.87477  1.0000
  S   S93       1.0  0.06587  0.22549  0.86414  1.0000
  S   S94       1.0  0.01689  0.25753  0.88398  1.0000
  S   S95       1.0  0.04280  0.25262  0.84012  1.0000
  C   C719      1.0  0.00291  0.20838  0.65249  1.0000
  S   S96       1.0  0.09136  0.35705  0.95918  1.0000
  Fe  Fe50      1.0  0.45718  0.37381  0.75070  1.0000
  S   S97       1.0  0.43579  0.36561  0.78023  1.0000
  S   S98       1.0  0.45846  0.35996  0.70787  1.0000
  C   C720      1.0  0.98888  0.20841  0.77127  1.0000
  Fe  Fe51      1.0  0.45459  0.37185  0.81912  1.0000
  S   S99       1.0  0.45352  0.35461  0.85804  1.0000
  H   H569      1.0  0.23722  0.21545  0.91805  1.0000
  Fe  Fe52      1.0  0.19692  0.23724  0.89218  1.0000
  S   S100      1.0  0.21669  0.25806  0.87040  1.0000
  S   S101      1.0  0.20480  0.21936  0.91724  1.0000
  Fe  Fe53      1.0  0.16897  0.24752  0.87031  1.0000
  S   S102      1.0  0.18715  0.26829  0.84622  1.0000
  S   S103      1.0  0.14467  0.25028  0.87780  1.0000
  Fe  Fe54      1.0  0.19826  0.25097  0.83086  1.0000
  S   S104      1.0  0.20488  0.25217  0.78181  1.0000
  Fe  Fe55      1.0  0.20382  0.27346  0.88722  1.0000
  S   S105      1.0  0.20979  0.29800  0.91078  1.0000
  S   S106      1.0  0.17880  0.22961  0.85195  1.0000
  S   S107      1.0  0.18563  0.25306  0.91179  1.0000
  S   S108      1.0  0.27585  0.36269  0.92169  1.0000
  Fe  Fe56      1.0  0.40418  0.29817  0.56603  1.0000
  S   S109      1.0  0.38859  0.30162  0.52804  1.0000
  S   S110      1.0  0.40542  0.31299  0.60907  1.0000
  Fe  Fe57      1.0  0.40595  0.26835  0.53326  1.0000
  C   C721      1.0  0.19299  0.38009  0.84777  1.0000
  S   S111      1.0  0.41569  0.24844  0.54259  1.0000
  C   C722      1.0  0.01288  0.22442  0.69852  1.0000
  C   C723      1.0  0.32848  0.20931  0.54175  1.0000
  Fe  Fe58      1.0  0.37460  0.27439  0.52673  1.0000
  S   S112      1.0  0.34665  0.26284  0.51901  1.0000
  S   S113      1.0  0.42249  0.29566  0.53516  1.0000
  S   S114      1.0  0.38886  0.27103  0.56631  1.0000
  Fe  Fe59      1.0  0.23951  0.20928  0.64974  1.0000
  S   S115      1.0  0.23186  0.21031  0.69795  1.0000
  Fe  Fe60      1.0  0.27066  0.21730  0.61435  1.0000
  S   S116      1.0  0.25620  0.20525  0.57216  1.0000
  S   S117      1.0  0.29873  0.22817  0.62097  1.0000
  Fe  Fe61      1.0  0.23915  0.21727  0.58332  1.0000
  S   S118      1.0  0.23109  0.23307  0.55194  1.0000
  S   S119      1.0  0.25494  0.23098  0.62403  1.0000
  H   H570      1.0  0.99651  0.20483  0.78641  1.0000
  C   C724      1.0  0.40866  0.22712  0.53264  1.0000
  C   C725      1.0  0.41615  0.21780  0.54713  1.0000
  C   C726      1.0  0.41154  0.20108  0.53930  1.0000
  H   H571      1.0  0.09453  0.24603  0.95599  1.0000
  C   C727      1.0  0.39631  0.21936  0.51029  1.0000
  C   C728      1.0  0.04198  0.37735  0.83954  1.0000
  C   C729      1.0  0.34777  0.20264  0.69082  1.0000
  C   C730      1.0  0.02761  0.20914  0.67899  1.0000
  C   C731      1.0  0.33346  0.25281  0.54730  1.0000
  C   C732      1.0  0.31628  0.24607  0.54124  1.0000
  C   C733      1.0  0.30547  0.23840  0.56351  1.0000
  C   C734      1.0  0.31177  0.23757  0.59213  1.0000
  C   C735      1.0  0.32893  0.24433  0.59814  1.0000
  C   C736      1.0  0.33973  0.25164  0.57574  1.0000
  H   H572      1.0  0.31131  0.24686  0.51930  1.0000
  H   H573      1.0  0.29228  0.23325  0.55865  1.0000
  H   H574      1.0  0.33396  0.24401  0.62023  1.0000
  H   H575      1.0  0.35290  0.25665  0.58066  1.0000
  C   C737      1.0  0.22278  0.23033  0.51450  1.0000
  C   C738      1.0  0.15611  0.20561  0.48501  1.0000
  C   C739      1.0  0.39954  0.19346  0.51635  1.0000
  C   C740      1.0  0.20624  0.21793  0.95638  1.0000
  C   C741      1.0  0.39187  0.20272  0.50214  1.0000
  H   H576      1.0  0.08381  0.33850  0.75339  1.0000
  H   H577      1.0  0.02829  0.35705  0.80918  1.0000
  H   H578      1.0  0.14343  0.38221  0.90894  1.0000
  H   H579      1.0  0.17096  0.19637  0.94209  1.0000
  H   H580      1.0  0.27049  0.23400  0.52137  1.0000
  C   C742      1.0  0.21252  0.24040  0.75903  1.0000
  C   C743      1.0  0.21550  0.24445  0.72916  1.0000
  C   C744      1.0  0.22142  0.23551  0.71019  1.0000
  C   C745      1.0  0.22448  0.22229  0.72077  1.0000
  C   C746      1.0  0.22157  0.21831  0.75070  1.0000
  C   C747      1.0  0.21567  0.22725  0.76967  1.0000
  H   H581      1.0  0.21314  0.25455  0.72052  1.0000
  H   H582      1.0  0.22354  0.23878  0.68733  1.0000
  H   H583      1.0  0.22382  0.20811  0.75923  1.0000
  H   H584      1.0  0.21343  0.22387  0.79245  1.0000
  C   C748      1.0  0.22846  0.31568  0.91318  1.0000
  C   C749      1.0  0.24349  0.31539  0.90602  1.0000
  C   C750      1.0  0.25802  0.32986  0.90899  1.0000
  C   C751      1.0  0.25749  0.34472  0.91822  1.0000
  C   C752      1.0  0.24244  0.34496  0.92516  1.0000
  C   C753      1.0  0.22810  0.33042  0.92343  1.0000
  H   H585      1.0  0.24395  0.30404  0.89858  1.0000
  H   H586      1.0  0.26968  0.32958  0.90390  1.0000
  H   H587      1.0  0.24191  0.35631  0.93249  1.0000
  H   H588      1.0  0.21658  0.33065  0.92967  1.0000
  C   C754      1.0  0.42027  0.32484  0.63765  1.0000
  C   C755      1.0  0.43699  0.32791  0.63721  1.0000
  C   C756      1.0  0.44836  0.33819  0.65948  1.0000
  C   C757      1.0  0.44322  0.34556  0.68251  1.0000
  C   C758      1.0  0.42637  0.34184  0.68371  1.0000
  C   C759      1.0  0.41501  0.33164  0.66136  1.0000
  H   H589      1.0  0.44124  0.32262  0.61945  1.0000
  H   H590      1.0  0.46131  0.34074  0.65851  1.0000
  H   H591      1.0  0.42215  0.34712  0.70151  1.0000
  H   H592      1.0  0.40208  0.32915  0.66231  1.0000
  C   C760      1.0  0.44098  0.34285  0.88675  1.0000
  C   C761      1.0  0.44579  0.33168  0.90200  1.0000
  C   C762      1.0  0.43657  0.32230  0.92506  1.0000
  C   C763      1.0  0.42246  0.32412  0.93393  1.0000
  C   C764      1.0  0.41771  0.33539  0.91886  1.0000
  C   C765      1.0  0.42676  0.34456  0.89538  1.0000
  H   H593      1.0  0.45672  0.33017  0.89571  1.0000
  H   H594      1.0  0.44042  0.31365  0.93594  1.0000
  H   H595      1.0  0.40686  0.33699  0.92528  1.0000
  H   H596      1.0  0.42282  0.35307  0.88416  1.0000
  C   C766      1.0  0.08786  0.23294  0.86750  1.0000
  C   C767      1.0  0.09543  0.22275  0.85771  1.0000
  C   C768      1.0  0.11273  0.22785  0.86049  1.0000
  C   C769      1.0  0.12275  0.24321  0.87336  1.0000
  C   C770      1.0  0.11522  0.25347  0.88296  1.0000
  C   C771      1.0  0.09791  0.24841  0.88001  1.0000
  H   H597      1.0  0.08782  0.21075  0.84810  1.0000
  H   H598      1.0  0.11828  0.21980  0.85297  1.0000
  H   H599      1.0  0.12282  0.26540  0.89287  1.0000
  H   H600      1.0  0.09233  0.25638  0.88776  1.0000
  C   C772      1.0  0.22567  0.32347  0.72632  1.0000
  H   H601      1.0  0.37908  0.32195  0.58955  1.0000
  C   C773      1.0  0.14038  0.21604  0.92107  1.0000
  P   P24       1.0  0.13686  0.36026  0.85654  1.0000
  C   C774      1.0  0.27338  0.28563  0.89808  1.0000
  C   C775      1.0  0.15567  0.20788  0.95855  1.0000
  C   C776      1.0  0.14451  0.21496  0.95116  1.0000
  C   C777      1.0  0.47953  0.19923  0.92879  1.0000
  C   C778      1.0  0.31200  0.25113  0.69603  1.0000
  H   H602      1.0  0.37604  0.22555  0.55375  1.0000
  C   C779      1.0  0.38456  0.37622  0.67004  1.0000
  C   C780      1.0  0.39591  0.34556  0.57659  1.0000
  C   C781      1.0  0.08196  0.34037  0.93324  1.0000
  C   C782      1.0  0.07629  0.32432  0.94324  1.0000
  C   C783      1.0  0.06867  0.31076  0.92325  1.0000
  C   C784      1.0  0.06664  0.31316  0.89304  1.0000
  C   C785      1.0  0.07227  0.32921  0.88307  1.0000
  C   C786      1.0  0.07996  0.34277  0.90301  1.0000
  H   H603      1.0  0.07772  0.32236  0.96659  1.0000
  H   H604      1.0  0.06436  0.29847  0.93122  1.0000
  H   H605      1.0  0.07060  0.33118  0.85982  1.0000
  H   H606      1.0  0.08419  0.35505  0.89508  1.0000
  C   C787      1.0  0.21665  0.21515  0.49916  1.0000
  H   H607      1.0  0.07490  0.22072  0.92957  1.0000
  H   H608      1.0  0.38466  0.37586  0.55329  1.0000
  C   C788      1.0  0.43356  0.37420  0.58375  1.0000
  H   H609      1.0  0.33292  0.29121  0.55775  1.0000
  H   H610      1.0  0.01700  0.19518  0.63813  1.0000
  H   H611      1.0  0.07771  0.34043  0.80605  1.0000
  C   C789      1.0  0.45237  0.38327  0.62772  1.0000
  H   H612      1.0  0.46987  0.19604  0.91125  1.0000
  C   C790      1.0  0.08578  0.22426  0.74190  1.0000
  H   H613      1.0  0.99105  0.24779  0.50583  1.0000
  H   H614      1.0  0.36037  0.29064  0.56590  1.0000
  C   C791      1.0  0.17144  0.19589  0.52019  1.0000
  C   C792      1.0  0.10245  0.31562  0.79771  1.0000
  H   H615      1.0  0.10143  0.38713  0.81627  1.0000
  C   C793      1.0  0.01722  0.38388  0.73341  1.0000
  H   H616      1.0  0.01090  0.23188  0.71572  1.0000
  H   H617      1.0  0.29366  0.30934  0.90126  1.0000
  C   C794      1.0  0.21192  0.27610  0.98061  1.0000
  C   C795      1.0  0.33597  0.20931  0.69006  1.0000
  H   H618      1.0  0.05080  0.37247  0.84704  1.0000
  H   H619      1.0  0.19175  0.21452  0.54546  1.0000
  H   H620      1.0  0.33343  0.22400  0.50306  1.0000
  H   H621      1.0  0.26403  0.27877  0.52859  1.0000
  H   H622      1.0  0.13223  0.22187  0.91460  1.0000
  C   C796      1.0  0.12927  0.33791  0.80781  1.0000
  H   H623      1.0  0.26758  0.25546  0.55203  1.0000
  C   C797      1.0  0.08634  0.22110  0.93998  1.0000
  H   H624      1.0  0.43008  0.20757  0.96586  1.0000
  C   C798      1.0  0.35582  0.22560  0.52618  1.0000
  H   H625      1.0  0.10257  0.33728  0.86007  1.0000
  H   H626      1.0  0.14172  0.34454  0.80138  1.0000
  C   C799      1.0  0.36275  0.22101  0.55099  1.0000
  H   H627      1.0  0.36376  0.23391  0.51074  1.0000
  C   C800      1.0  0.09013  0.20742  0.93789  1.0000
  C   C801      1.0  0.21673  0.34045  0.76990  1.0000
  C   C802      1.0  0.22925  0.33502  0.77659  1.0000
  C   C803      1.0  0.23386  0.32675  0.75444  1.0000
  P   P25       1.0  0.23993  0.33924  0.81281  1.0000
  C   C804      1.0  0.25870  0.35765  0.81274  1.0000
  C   C805      1.0  0.22631  0.34159  0.83936  1.0000
  C   C806      1.0  0.22852  0.35719  0.85034  1.0000
  C   C807      1.0  0.21810  0.35888  0.87119  1.0000
  C   C808      1.0  0.20497  0.34510  0.88030  1.0000
  C   C809      1.0  0.20236  0.32963  0.86872  1.0000
  C   C810      1.0  0.21301  0.32784  0.84855  1.0000
  C   C811      1.0  0.26727  0.36496  0.83970  1.0000
  C   C812      1.0  0.44277  0.19172  0.95950  1.0000
  H   H628      1.0  0.03729  0.20472  0.68100  1.0000
  S   S120      1.0  0.39062  0.27013  0.49333  1.0000
  C   C813      1.0  0.47764  0.18917  0.95311  1.0000
  C   C814      1.0  0.24436  0.32175  0.82205  1.0000
  C   C815      1.0  0.23268  0.30585  0.81445  1.0000
  C   C816      1.0  0.23614  0.29230  0.82072  1.0000
  C   C817      1.0  0.25129  0.29441  0.83452  1.0000
  C   C818      1.0  0.26305  0.31015  0.84201  1.0000
  C   C819      1.0  0.25962  0.32377  0.83584  1.0000
  C   C820      1.0  0.11635  0.22239  0.96547  1.0000
  H   H629      1.0  0.24373  0.32275  0.75892  1.0000
  H   H630      1.0  0.23841  0.36810  0.84333  1.0000
  H   H631      1.0  0.22050  0.37086  0.88085  1.0000
  H   H632      1.0  0.19715  0.34633  0.89703  1.0000
  H   H633      1.0  0.19265  0.31887  0.87658  1.0000
  H   H634      1.0  0.21097  0.31563  0.84090  1.0000
  H   H635      1.0  0.26283  0.35953  0.86056  1.0000
  H   H636      1.0  0.15954  0.20715  0.98128  1.0000
  C   C821      1.0  0.04877  0.38412  0.72874  1.0000
  C   C822      1.0  0.05606  0.36706  0.63662  1.0000
  H   H637      1.0  0.22088  0.30384  0.80342  1.0000
  H   H638      1.0  0.22707  0.28011  0.81473  1.0000
  H   H639      1.0  0.25384  0.28381  0.83930  1.0000
  H   H640      1.0  0.27480  0.31186  0.85280  1.0000
  H   H641      1.0  0.26891  0.33577  0.84209  1.0000
  C   C823      1.0  0.14894  0.25098  0.79617  1.0000
  C   C824      1.0  0.16349  0.25596  0.78121  1.0000
  C   C825      1.0  0.17236  0.27252  0.77618  1.0000
  C   C826      1.0  0.16666  0.28413  0.78598  1.0000
  C   C827      1.0  0.15182  0.27916  0.80045  1.0000
  C   C828      1.0  0.14312  0.26252  0.80576  1.0000
  P   P26       1.0  0.14440  0.29399  0.81380  1.0000
  C   C829      1.0  0.12202  0.28477  0.80923  1.0000
  C   C830      1.0  0.15113  0.29987  0.85227  1.0000
  C   C831      1.0  0.14860  0.31281  0.86607  1.0000
  C   C832      1.0  0.15411  0.31754  0.89569  1.0000
  C   C833      1.0  0.16217  0.30939  0.91169  1.0000
  C   C834      1.0  0.16481  0.29662  0.89799  1.0000
  C   C835      1.0  0.15943  0.29195  0.86840  1.0000
  C   C836      1.0  0.11419  0.27526  0.78341  1.0000
  C   C837      1.0  0.09699  0.26719  0.78043  1.0000
  C   C838      1.0  0.08741  0.26846  0.80322  1.0000
  C   C839      1.0  0.09501  0.27783  0.82896  1.0000
  C   C840      1.0  0.11221  0.28586  0.83209  1.0000
  C   C841      1.0  0.15295  0.31183  0.79156  1.0000
  C   C842      1.0  0.16622  0.32602  0.80306  1.0000
  C   C843      1.0  0.17300  0.33967  0.78565  1.0000
  C   C844      1.0  0.16683  0.33921  0.75645  1.0000
  C   C845      1.0  0.15410  0.32497  0.74446  1.0000
  C   C846      1.0  0.14727  0.31129  0.76185  1.0000
  H   H642      1.0  0.14238  0.23823  0.80112  1.0000
  H   H643      1.0  0.16823  0.24707  0.77437  1.0000
  H   H644      1.0  0.18393  0.27630  0.76544  1.0000
  H   H645      1.0  0.17396  0.29691  0.78255  1.0000
  H   H646      1.0  0.13202  0.25846  0.81793  1.0000
  H   H647      1.0  0.14236  0.31922  0.85390  1.0000
  H   H648      1.0  0.15211  0.32748  0.90632  1.0000
  H   H649      1.0  0.16647  0.31301  0.93462  1.0000
  H   H650      1.0  0.17132  0.29042  0.90996  1.0000
  H   H651      1.0  0.16187  0.28219  0.85828  1.0000
  H   H652      1.0  0.12138  0.27355  0.76600  1.0000
  H   H653      1.0  0.09108  0.25958  0.76081  1.0000
  H   H654      1.0  0.07410  0.26190  0.80133  1.0000
  H   H655      1.0  0.08753  0.27852  0.84686  1.0000
  H   H656      1.0  0.11763  0.29245  0.85278  1.0000
  H   H657      1.0  0.17159  0.32658  0.82529  1.0000
  H   H658      1.0  0.18315  0.35054  0.79481  1.0000
  H   H659      1.0  0.17208  0.34981  0.74297  1.0000
  H   H660      1.0  0.14955  0.32450  0.72160  1.0000
  H   H661      1.0  0.13757  0.30034  0.75203  1.0000
  C   C847      1.0  0.32865  0.33088  0.67863  1.0000
  C   C848      1.0  0.32432  0.32578  0.64887  1.0000
  C   C849      1.0  0.33204  0.33631  0.62651  1.0000
  C   C850      1.0  0.34409  0.35196  0.63390  1.0000
  C   C851      1.0  0.34846  0.35723  0.66377  1.0000
  C   C852      1.0  0.34066  0.34653  0.68610  1.0000
  P   P27       1.0  0.36467  0.37717  0.67307  1.0000
  C   C853      1.0  0.24049  0.22618  0.87548  1.0000
  H   H662      1.0  0.37459  0.36912  0.73176  1.0000
  H   H663      1.0  0.46767  0.37015  0.63640  1.0000
  C   C854      1.0  0.02979  0.20310  0.81293  1.0000
  C   C855      1.0  0.15868  0.19268  0.49840  1.0000
  H   H664      1.0  0.35089  0.19821  0.71142  1.0000
  H   H665      1.0  0.32608  0.22976  0.96364  1.0000
  C   C856      1.0  0.07189  0.37026  0.74926  1.0000
  C   C857      1.0  0.36870  0.37748  0.73498  1.0000
  H   H666      1.0  0.08765  0.23714  0.67115  1.0000
  C   C858      1.0  0.33988  0.21428  0.63786  1.0000
  C   C859      1.0  0.44919  0.37169  0.95568  1.0000
  H   H667      1.0  0.13735  0.37732  0.96139  1.0000
  C   C860      1.0  0.27947  0.30480  0.94004  1.0000
  C   C861      1.0  0.22138  0.24370  0.50044  1.0000
  C   C862      1.0  0.06694  0.23203  0.69832  1.0000
  H   H668      1.0  0.32265  0.32271  0.69600  1.0000
  H   H669      1.0  0.31491  0.31369  0.64316  1.0000
  H   H670      1.0  0.32861  0.33238  0.60343  1.0000
  H   H671      1.0  0.35000  0.35999  0.61635  1.0000
  H   H672      1.0  0.34378  0.35016  0.70931  1.0000
  C   C863      1.0  0.03141  0.21078  0.76141  1.0000
  H   H673      1.0  0.32299  0.22046  0.66290  1.0000
  C   C864      1.0  0.24604  0.22362  0.90366  1.0000
  C   C865      1.0  0.01938  0.36924  0.73442  1.0000
  C   C866      1.0  0.26935  0.24423  0.51058  1.0000
  H   H674      1.0  0.10433  0.23015  0.70981  1.0000
  H   H675      1.0  0.08159  0.19646  0.92588  1.0000
  H   H676      1.0  0.06442  0.38048  0.78680  1.0000
  H   H677      1.0  0.12270  0.32124  0.76965  1.0000
  H   H678      1.0  0.33942  0.25989  0.96725  1.0000
  C   C867      1.0  0.26784  0.25651  0.52814  1.0000
  H   H679      1.0  0.40846  0.25934  0.61134  1.0000
  H   H680      1.0  0.33690  0.21922  0.61792  1.0000
  H   H681      1.0  0.08433  0.31321  0.82947  1.0000
  C   C868      1.0  0.38365  0.36425  0.56170  1.0000
  H   H682      1.0  0.31522  0.20506  0.53850  1.0000
  C   C869      1.0  0.32561  0.26062  0.68040  1.0000
  C   C870      1.0  0.02934  0.36872  0.81830  1.0000
  C   C871      1.0  0.25160  0.23651  0.85630  1.0000
  C   C872      1.0  0.11857  0.32460  0.78982  1.0000
  C   C873      1.0  0.20862  0.33722  0.74168  1.0000
  C   C874      1.0  0.01605  0.20356  0.65480  1.0000
  C   C875      1.0  0.39777  0.36104  0.56714  1.0000
  H   H683      1.0  0.45261  0.30522  0.97970  1.0000
  S   S121      1.0  0.22274  0.19615  0.60958  1.0000
  C   C876      1.0  0.12370  0.34258  0.83353  1.0000
  C   C877      1.0  0.08478  0.38056  0.67371  1.0000
  H   H684      1.0  0.03657  0.35791  0.73275  1.0000
  H   H685      1.0  0.18791  0.38598  0.80343  1.0000
  H   H686      1.0  0.12610  0.19325  0.51621  1.0000
  C   C878      1.0  0.29943  0.25498  0.95727  1.0000
  C   C879      1.0  0.37540  0.25034  0.67744  1.0000
  H   H687      1.0  0.22749  0.22010  0.86856  1.0000
  C   C880      1.0  0.98634  0.22251  0.77798  1.0000
  C   C881      1.0  0.31657  0.26291  0.96158  1.0000
  C   C882      1.0  0.41131  0.22315  0.62342  1.0000
  H   H688      1.0  0.39049  0.22631  0.49871  1.0000
  C   C883      1.0  0.26733  0.19156  0.51040  1.0000
  H   H689      1.0  0.27629  0.28247  0.87645  1.0000
  H   H690      1.0  0.05990  0.23531  0.68135  1.0000
  H   H691      1.0  0.06543  0.21911  0.76931  1.0000
  H   H692      1.0  0.16316  0.19797  0.88934  1.0000
  C   C884      1.0  0.18624  0.37302  0.87402  1.0000
  C   C885      1.0  0.07749  0.35840  0.74010  1.0000
  C   C886      1.0  0.12602  0.34054  0.90553  1.0000
  Fe  Fe62      1.0  0.40581  0.29753  0.49678  1.0000
  H   H693      1.0  0.22916  0.31689  0.70945  1.0000
  C   C887      1.0  0.38284  0.21891  0.61154  1.0000
  C   C888      1.0  0.26468  0.19659  0.93031  1.0000
  H   H694      1.0  0.28726  0.31653  0.95050  1.0000
  H   H695      1.0  0.27536  0.18845  0.52553  1.0000
  C   C889      1.0  0.15813  0.25436  0.96402  1.0000
  C   C890      1.0  0.01996  0.19489  0.75305  1.0000
  C   C891      1.0  0.06037  0.22674  0.72585  1.0000
  C   C892      1.0  0.18264  0.38007  0.82348  1.0000
  H   H696      1.0  0.22607  0.25549  0.51207  1.0000
  C   C893      1.0  0.00134  0.21879  0.67434  1.0000
  C   C894      1.0  0.33871  0.21989  0.52171  1.0000
  C   C895      1.0  0.35326  0.29062  0.58474  1.0000
  C   C896      1.0  0.33777  0.29101  0.58017  1.0000
  C   C897      1.0  0.32842  0.29065  0.60439  1.0000
  C   C898      1.0  0.33444  0.28956  0.63311  1.0000
  C   C899      1.0  0.34968  0.28834  0.63771  1.0000
  C   C900      1.0  0.35923  0.28930  0.61334  1.0000
  P   P28       1.0  0.35678  0.28553  0.67457  1.0000
  C   C901      1.0  0.36819  0.30513  0.69362  1.0000
  C   C902      1.0  0.33918  0.27335  0.69499  1.0000
  C   C903      1.0  0.33899  0.27625  0.72561  1.0000
  C   C904      1.0  0.32534  0.26668  0.74123  1.0000
  C   C905      1.0  0.36635  0.33712  0.57698  1.0000
  H   H697      1.0  0.00790  0.36831  0.79323  1.0000
  H   H698      1.0  0.39114  0.19965  0.62122  1.0000
  C   C906      1.0  0.38026  0.30675  0.71624  1.0000
  C   C907      1.0  0.38948  0.32196  0.73043  1.0000
  C   C908      1.0  0.38651  0.33561  0.72262  1.0000
  C   C909      1.0  0.37427  0.33402  0.70069  1.0000
  C   C910      1.0  0.36520  0.31889  0.68604  1.0000
  C   C911      1.0  0.37024  0.27489  0.67219  1.0000
  C   C912      1.0  0.38692  0.28366  0.66675  1.0000
  C   C913      1.0  0.39778  0.27590  0.66709  1.0000
  C   C914      1.0  0.39207  0.25929  0.67292  1.0000
  C   C915      1.0  0.32613  0.25379  0.96349  1.0000
  C   C916      1.0  0.36448  0.25807  0.67702  1.0000
  C   C917      1.0  0.35137  0.20715  0.63815  1.0000
  H   H699      1.0  0.35428  0.32782  0.58079  1.0000
  C   C918      1.0  0.27897  0.37953  0.78643  1.0000
  H   H700      1.0  0.32695  0.28910  0.65159  1.0000
  H   H701      1.0  0.37109  0.28859  0.61607  1.0000
  H   H702      1.0  0.34934  0.28582  0.73753  1.0000
  H   H703      1.0  0.32524  0.26897  0.76484  1.0000
  C   C919      1.0  0.33537  0.20464  0.56651  1.0000
  H   H704      1.0  0.20274  0.27497  0.96312  1.0000
  P   P29       1.0  0.41783  0.37597  0.55869  1.0000
  H   H705      1.0  0.38275  0.29633  0.72274  1.0000
  H   H706      1.0  0.39907  0.32324  0.74734  1.0000
  H   H707      1.0  0.39379  0.34743  0.73351  1.0000
  H   H708      1.0  0.37196  0.34458  0.69493  1.0000
  H   H709      1.0  0.35598  0.31801  0.66878  1.0000
  H   H710      1.0  0.39162  0.29659  0.66262  1.0000
  H   H711      1.0  0.41065  0.28286  0.66300  1.0000
  C   C920      1.0  0.09684  0.32017  0.82322  1.0000
  C   C921      1.0  0.21390  0.20818  0.96853  1.0000
  P   P30       1.0  0.06879  0.38406  0.72323  1.0000
  C   C922      1.0  0.26832  0.24431  0.86535  1.0000
  C   C923      1.0  0.26471  0.36502  0.78604  1.0000
  H   H712      1.0  0.42044  0.21822  0.62816  1.0000
  C   C924      1.0  0.01794  0.37509  0.80920  1.0000
  C   C925      1.0  0.26273  0.23162  0.91322  1.0000
  C   C926      1.0  0.27389  0.24191  0.89369  1.0000
  P   P31       1.0  0.26954  0.22800  0.94983  1.0000
  C   C927      1.0  0.98713  0.23477  0.50199  1.0000
  C   C928      1.0  0.29172  0.23783  0.95484  1.0000
  C   C929      1.0  0.06946  0.37762  0.68529  1.0000
  H   H713      1.0  0.19428  0.37366  0.89329  1.0000
  H   H714      1.0  0.07211  0.36749  0.60200  1.0000
  C   C930      1.0  0.31856  0.23673  0.96130  1.0000
  C   C931      1.0  0.30140  0.22873  0.95716  1.0000
  C   C932      1.0  0.21304  0.32867  0.71995  1.0000
  H   H715      1.0  0.30122  0.24679  0.73844  1.0000
  C   C933      1.0  0.41486  0.37326  0.66879  1.0000
  C   C934      1.0  0.25341  0.19829  0.97747  1.0000
  C   C935      1.0  0.41628  0.23996  0.62051  1.0000
  H   H716      1.0  0.24723  0.23833  0.83436  1.0000
  C   C936      1.0  0.33208  0.21519  0.66360  1.0000
  H   H717      1.0  0.04314  0.36883  0.67436  1.0000
  H   H718      1.0  0.19375  0.23344  0.96650  1.0000
  C   C937      1.0  0.45203  0.36096  0.59643  1.0000
  C   C938      1.0  0.07136  0.37008  0.62529  1.0000
  H   H719      1.0  0.27697  0.25211  0.85026  1.0000
  H   H720      1.0  0.37258  0.37827  0.78258  1.0000
  C   C939      1.0  0.15861  0.36607  0.85194  1.0000
  C   C940      1.0  0.12671  0.35112  0.95549  1.0000
  H   H721      1.0  0.28691  0.24793  0.89992  1.0000
  C   C941      1.0  0.22852  0.28557  0.97644  1.0000
  C   C942      1.0  0.35257  0.21089  0.57189  1.0000
  H   H722      1.0  0.29216  0.26219  0.95571  1.0000
  H   H723      1.0  0.01584  0.19142  0.73007  1.0000
  P   P32       1.0  0.13623  0.22350  0.97957  1.0000
  C   C943      1.0  0.06998  0.22298  0.74769  1.0000
  C   C944      1.0  0.08273  0.23323  0.69256  1.0000
  C   C945      1.0  0.27364  0.20613  0.49526  1.0000
  C   C946      1.0  0.12266  0.33787  0.93540  1.0000
  H   H724      1.0  0.21754  0.20473  0.50970  1.0000
  H   H725      1.0  0.24366  0.24101  0.95100  1.0000
  H   H726      1.0  0.32989  0.21001  0.70998  1.0000
  C   C947      1.0  0.43965  0.36226  0.57773  1.0000
  H   H727      1.0  0.32250  0.27613  0.96363  1.0000
  C   C948      1.0  0.14690  0.20977  0.89890  1.0000
  H   H728      1.0  0.16435  0.36104  0.89706  1.0000
  C   C949      1.0  0.36745  0.38253  0.76390  1.0000
  Fe  Fe63      1.0  0.10209  0.38330  0.94448  1.0000
  H   H729      1.0  0.06745  0.36832  0.50099  1.0000
  C   C950      1.0  0.25980  0.27462  0.91196  1.0000
  C   C951      1.0  0.25613  0.27862  0.93997  1.0000
  C   C952      1.0  0.26588  0.29378  0.95424  1.0000
  C   C953      1.0  0.07617  0.34877  0.79023  1.0000
  H   H730      1.0  0.43921  0.37361  0.94399  1.0000
  C   C954      1.0  0.08570  0.37680  0.64384  1.0000
  C   C955      1.0  0.31184  0.25416  0.72643  1.0000
  C   C956      1.0  0.42228  0.37175  0.52150  1.0000
  H   H731      1.0  0.30152  0.24142  0.68444  1.0000
  H   H732      1.0  0.15771  0.37413  0.80717  1.0000
  H   H733      1.0  0.41761  0.19424  0.55044  1.0000
  H   H734      1.0  0.12352  0.34908  0.97838  1.0000
  C   C957      1.0  0.26178  0.23644  0.97901  1.0000
  H   H735      1.0  0.12090  0.24737  0.97852  1.0000
  C   C958      1.0  0.40454  0.24632  0.61409  1.0000
  H   H736      1.0  0.39817  0.35231  0.51027  1.0000
  C   C959      1.0  0.35552  0.20166  0.66502  1.0000
  C   C960      1.0  0.38784  0.23588  0.61016  1.0000
  C   C961      1.0  0.10731  0.33371  0.84076  1.0000
  C   C962      1.0  0.02629  0.21987  0.70082  1.0000
  H   H737      1.0  0.25208  0.26294  0.90110  1.0000
  H   H738      1.0  0.24564  0.26984  0.95035  1.0000
  C   C963      1.0  0.18171  0.21201  0.52882  1.0000
  Fe  Fe64      1.0  0.27404  0.38719  0.92736  1.0000
  H   H739      1.0  0.29586  0.21553  0.95618  1.0000
  C   C964      1.0  0.13435  0.36705  0.94583  1.0000
  H   H740      1.0  0.35717  0.35485  0.56232  1.0000
  C   C965      1.0  0.16552  0.37318  0.82557  1.0000
  H   H741      1.0  0.42924  0.24806  0.62259  1.0000
  C   C966      1.0  0.98145  0.21325  0.96847  1.0000
  C   C967      1.0  0.16899  0.27067  0.96980  1.0000
  C   C968      1.0  0.03511  0.36935  0.73230  1.0000
  H   H742      1.0  0.40056  0.25335  0.67373  1.0000
  C   C969      1.0  0.16915  0.36590  0.87607  1.0000
  H   H743      1.0  0.37098  0.23743  0.68154  1.0000
  C   C970      1.0  0.09214  0.22931  0.71432  1.0000
  P   P33       1.0  0.04018  0.22573  0.73366  1.0000
  C   C971      1.0  0.13249  0.37756  0.84547  1.0000
  C   C972      1.0  0.04258  0.24579  0.74698  1.0000
  C   C973      1.0  0.05602  0.25994  0.73943  1.0000
  C   C974      1.0  0.05769  0.27537  0.75000  1.0000
  C   C975      1.0  0.04583  0.27679  0.76778  1.0000
  C   C976      1.0  0.03225  0.26282  0.77474  1.0000
  C   C977      1.0  0.03072  0.24740  0.76466  1.0000
  H   H744      1.0  0.12292  0.33004  0.89058  1.0000
  P   P34       1.0  0.36133  0.20552  0.60495  1.0000
  C   C978      1.0  0.28317  0.30074  0.91205  1.0000
  C   C979      1.0  0.28150  0.37944  0.84001  1.0000
  C   C980      1.0  0.11695  0.37532  0.83261  1.0000
  C   C981      1.0  0.36278  0.38351  0.71055  1.0000
  C   C982      1.0  0.03627  0.21479  0.79156  1.0000
  S   S122      1.0  0.25645  0.19630  0.64266  1.0000
  C   C983      1.0  0.16665  0.22178  0.49353  1.0000
  H   H745      1.0  0.06523  0.25916  0.72545  1.0000
  H   H746      1.0  0.06812  0.28622  0.74435  1.0000
  H   H747      1.0  0.04711  0.28867  0.77634  1.0000
  H   H748      1.0  0.02302  0.26385  0.78861  1.0000
  H   H749      1.0  0.02029  0.23669  0.77076  1.0000
  H   H750      1.0  0.99109  0.25849  0.95861  1.0000
  H   H751      1.0  0.09307  0.22125  0.75887  1.0000
  H   H752      1.0  0.42579  0.22363  0.56427  1.0000
  C   C984      1.0  0.45836  0.37143  0.62144  1.0000
  H   H753      1.0  0.36469  0.19651  0.66593  1.0000
  H   H754      1.0  0.04521  0.22686  0.79864  1.0000
  H   H755      1.0  0.23186  0.29157  0.95561  1.0000
  C   C985      1.0  0.07076  0.36063  0.79955  1.0000
  H   H756      1.0  0.11649  0.32552  0.94285  1.0000
  C   C986      1.0  0.38029  0.33377  0.58189  1.0000
  H   H757      1.0  0.31629  0.29068  0.60079  1.0000
  H   H758      1.0  0.27114  0.20233  0.91103  1.0000
  H   H759      1.0  0.08010  0.35727  0.71722  1.0000
  H   H760      1.0  0.37890  0.24102  0.60511  1.0000
  H   H761      1.0  0.40646  0.34250  0.58007  1.0000
  H   H762      1.0  0.43475  0.35381  0.55874  1.0000
  C   C987      1.0  0.39464  0.21264  0.61912  1.0000
  C   C988      1.0  0.07959  0.34769  0.76056  1.0000
  H   H763      1.0  0.32546  0.25798  0.65687  1.0000
  C   C989      1.0  0.13755  0.36977  0.91593  1.0000
  C   C990      1.0  0.36801  0.35234  0.56672  1.0000
  C   C991      1.0  0.26217  0.20610  0.95303  1.0000
  C   C992      1.0  0.44009  0.38474  0.60895  1.0000
  C   C993      1.0  0.28732  0.38675  0.81339  1.0000
  C   C994      1.0  0.13295  0.35655  0.89533  1.0000
  H   H764      1.0  0.09429  0.30510  0.78417  1.0000
  H   H765      1.0  0.35168  0.25090  0.68086  1.0000
  H   H766      1.0  0.99078  0.22199  0.67309  1.0000
  H   H767      1.0  0.04498  0.36214  0.62207  1.0000
  H   H768      1.0  0.06840  0.36165  0.82268  1.0000
  C   C995      1.0  0.17936  0.22493  0.51541  1.0000
  H   H769      1.0  0.45647  0.35154  0.59194  1.0000
  C   C996      1.0  0.11239  0.23606  0.96759  1.0000
  H   H770      1.0  0.42644  0.37186  0.66895  1.0000
  H   H771      1.0  0.21325  0.34719  0.78641  1.0000
  C   C997      1.0  0.10504  0.20802  0.95064  1.0000
  C   C998      1.0  0.41306  0.38449  0.68847  1.0000
  C   C999      1.0  0.26578  0.26961  0.51490  1.0000
  C   C1000     1.0  0.40167  0.36365  0.64938  1.0000
  C   C1001     1.0  0.39807  0.38614  0.68887  1.0000
  H   H772      1.0  0.32726  0.19648  0.58187  1.0000
  C   C1002     1.0  0.06070  0.37272  0.48531  1.0000
  C   C1003     1.0  0.42880  0.19510  0.96201  1.0000
  H   H773      1.0  0.20674  0.32614  0.69810  1.0000
  H   H774      1.0  0.18764  0.23740  0.52166  1.0000
  H   H775      1.0  0.45477  0.20179  0.96159  1.0000
  H   H776      1.0  0.17557  0.27795  0.95192  1.0000
  H   H777      1.0  0.14368  0.21076  0.87578  1.0000
  H   H778      1.0  0.21851  0.20149  0.95399  1.0000
  H   H779      1.0  0.25843  0.35972  0.76490  1.0000
  H   H780      1.0  0.98557  0.23997  0.91451  1.0000
  S   S123      1.0  0.41047  0.31292  0.96374  1.0000
  H   H781      1.0  0.19896  0.34139  0.73657  1.0000
  C   C1004     1.0  0.38660  0.36517  0.64976  1.0000
  H   H782      1.0  0.37654  0.35737  0.63484  1.0000
  H   H783      1.0  0.15603  0.24939  0.94145  1.0000
  C   C1005     1.0  0.09744  0.23538  0.95487  1.0000
  S   S124      1.0  0.47618  0.37886  0.78929  1.0000
  H   H784      1.0  0.03369  0.20621  0.83613  1.0000
  H   H785      1.0  0.40311  0.35471  0.63467  1.0000
  C   C1006     1.0  0.24900  0.24159  0.97322  1.0000
  H   H786      1.0  0.10723  0.36327  0.82911  1.0000
  C   C1007     1.0  0.16221  0.20166  0.93628  1.0000
  C   C1008     1.0  0.41043  0.35931  0.50311  1.0000
  C   C1009     1.0  0.05509  0.37084  0.66647  1.0000
  H   H787      1.0  0.98134  0.21075  0.94493  1.0000
  H   H788      1.0  0.33624  0.38000  0.64123  1.0000
  H   H789      1.0  0.00503  0.38387  0.73481  1.0000
  H   H790      1.0  0.46379  0.37614  0.91735  1.0000
  H   H791      1.0  0.00882  0.35781  0.73665  1.0000
  C   C1010     1.0  0.06859  0.37132  0.77917  1.0000
  H   H792      1.0  0.10791  0.19739  0.94838  1.0000
  H   H793      1.0  0.99367  0.20373  0.63420  1.0000
  C   C1011     1.0  0.43825  0.37997  0.51176  1.0000
  H   H794      1.0  0.09606  0.38616  0.68761  1.0000
  H   H795      1.0  0.28794  0.38507  0.86098  1.0000
  H   H796      1.0  0.24312  0.31855  0.98378  1.0000
  C   C1012     1.0  0.15782  0.20257  0.90650  1.0000
  H   H797      1.0  0.09759  0.37947  0.63488  1.0000
  C   C1013     1.0  0.47557  0.36978  0.95498  1.0000
  H   H798      1.0  0.28356  0.38528  0.76587  1.0000
  H   H799      1.0  0.28653  0.21418  0.49931  1.0000
  H   H800      1.0  0.37676  0.19151  0.56343  1.0000
  C   C1014     1.0  0.99540  0.22554  0.98278  1.0000
  C   C1015     1.0  0.19986  0.22608  0.97553  1.0000
  C   C1016     1.0  0.98127  0.19875  0.74526  1.0000
  C   C1017     1.0  0.46304  0.37308  0.94058  1.0000
  H   H801      1.0  0.20627  0.38599  0.84662  1.0000
  H   H802      1.0  0.38259  0.19703  0.48434  1.0000
  Fe  Fe65      1.0  0.04109  0.45336  0.19235  1.0000
  S   S125      1.0  0.05771  0.47195  0.22644  1.0000
  S   S126      1.0  0.01320  0.44497  0.18844  1.0000
  Fe  Fe66      1.0  0.06986  0.45115  0.15996  1.0000
  S   S127      1.0  0.08869  0.46987  0.19212  1.0000
  S   S128      1.0  0.07333  0.43413  0.12409  1.0000
  Fe  Fe67      1.0  0.07247  0.45648  0.22848  1.0000
  S   S129      1.0  0.08154  0.45431  0.27608  1.0000
  Fe  Fe68      1.0  0.07264  0.48423  0.18824  1.0000
  S   S130      1.0  0.08463  0.51235  0.18660  1.0000
  S   S131      1.0  0.05453  0.43694  0.19707  1.0000
  S   S132      1.0  0.05509  0.46646  0.15355  1.0000
  C   C1018     1.0  0.27341  0.49528  0.03411  1.0000
  H   H803      1.0  0.20429  0.51504  0.38448  1.0000
  S   S133      1.0  0.12674  0.42304  0.43045  1.0000
  H   H804      1.0  0.16740  0.41757  0.02772  1.0000
  Fe  Fe69      1.0  0.10933  0.40386  0.39762  1.0000
  S   S134      1.0  0.10416  0.40496  0.34767  1.0000
  Fe  Fe70      1.0  0.13560  0.40358  0.44450  1.0000
  S   S135      1.0  0.16165  0.40581  0.45955  1.0000
  H   H805      1.0  0.38374  0.39419  0.24847  1.0000
  H   H806      1.0  0.47008  0.41845  0.02951  1.0000
  S   S136      1.0  0.05567  0.56767  0.19098  1.0000
  C   C1019     1.0  0.98355  0.49736  0.27536  1.0000
  C   C1020     1.0  0.45844  0.44153  0.15805  1.0000
  C   C1021     1.0  0.05461  0.39490  0.46619  1.0000
  C   C1022     1.0  0.25602  0.44132  0.99228  1.0000
  Fe  Fe71      1.0  0.39212  0.49008  0.18398  1.0000
  S   S137      1.0  0.39027  0.46800  0.15673  1.0000
  S   S138      1.0  0.40950  0.51537  0.16755  1.0000
  Fe  Fe72      1.0  0.36743  0.46790  0.22793  1.0000
  S   S139      1.0  0.36485  0.44468  0.20386  1.0000
  S   S140      1.0  0.35703  0.46963  0.27298  1.0000
  Fe  Fe73      1.0  0.39226  0.45703  0.20025  1.0000
  S   S141      1.0  0.41270  0.44804  0.20542  1.0000
  Fe  Fe74      1.0  0.36276  0.45739  0.16162  1.0000
  S   S142      1.0  0.34360  0.44026  0.12588  1.0000
  S   S143      1.0  0.39528  0.47943  0.22728  1.0000
  S   S144      1.0  0.36417  0.48029  0.18610  1.0000
  Fe  Fe75      1.0  0.28813  0.42024  0.39132  1.0000
  S   S145      1.0  0.30008  0.41408  0.43170  1.0000
  S   S146      1.0  0.29628  0.42082  0.34342  1.0000
  Fe  Fe76      1.0  0.25623  0.41509  0.42413  1.0000
  C   C1023     1.0  0.00971  0.42022  0.12571  1.0000
  S   S147      1.0  0.23074  0.41417  0.40813  1.0000
  C   C1024     1.0  0.05444  0.41544  0.36806  1.0000
  H   H807      1.0  0.19554  0.41862  0.14718  1.0000
  C   C1025     1.0  0.11380  0.39749  0.04515  1.0000
  S   S148      1.0  0.27989  0.43709  0.41728  1.0000
  S   S149      1.0  0.26404  0.39867  0.39618  1.0000
  C   C1026     1.0  0.34005  0.45578  0.29207  1.0000
  C   C1027     1.0  0.32888  0.44085  0.27919  1.0000
  C   C1028     1.0  0.31563  0.43035  0.29525  1.0000
  C   C1029     1.0  0.31341  0.43454  0.32448  1.0000
  C   C1030     1.0  0.32467  0.44941  0.33745  1.0000
  C   C1031     1.0  0.33780  0.45998  0.32126  1.0000
  H   H808      1.0  0.33032  0.43754  0.25671  1.0000
  H   H809      1.0  0.30697  0.41897  0.28484  1.0000
  H   H810      1.0  0.32315  0.45288  0.35980  1.0000
  H   H811      1.0  0.34630  0.47150  0.33147  1.0000
  C   C1032     1.0  0.31393  0.43783  0.03652  1.0000
  C   C1033     1.0  0.31424  0.42371  0.04901  1.0000
  C   C1034     1.0  0.32344  0.42477  0.07608  1.0000
  C   C1035     1.0  0.33264  0.43993  0.09113  1.0000
  C   C1036     1.0  0.33260  0.45408  0.07836  1.0000
  C   C1037     1.0  0.32326  0.45301  0.05145  1.0000
  H   H812      1.0  0.30726  0.41194  0.03795  1.0000
  H   H813      1.0  0.32335  0.41371  0.08554  1.0000
  H   H814      1.0  0.33952  0.46585  0.08945  1.0000
  H   H815      1.0  0.32324  0.46406  0.04212  1.0000
  C   C1038     1.0  0.41014  0.40181  0.25116  1.0000
  C   C1039     1.0  0.42522  0.41421  0.24509  1.0000
  C   C1040     1.0  0.42566  0.42830  0.23134  1.0000
  C   C1041     1.0  0.41111  0.43028  0.22384  1.0000
  C   C1042     1.0  0.39595  0.41803  0.23036  1.0000
  C   C1043     1.0  0.39547  0.40376  0.24393  1.0000
  H   H816      1.0  0.43660  0.41298  0.25097  1.0000
  H   H817      1.0  0.43737  0.43776  0.22662  1.0000
  H   H818      1.0  0.38465  0.41941  0.22439  1.0000
  C   C1044     1.0  0.46539  0.43194  0.17291  1.0000
  C   C1045     1.0  0.45994  0.55748  0.19756  1.0000
  C   C1046     1.0  0.45233  0.54431  0.21616  1.0000
  C   C1047     1.0  0.43735  0.53100  0.20699  1.0000
  C   C1048     1.0  0.42953  0.53074  0.17915  1.0000
  C   C1049     1.0  0.43747  0.54364  0.16020  1.0000
  C   C1050     1.0  0.45264  0.55673  0.16911  1.0000
  H   H819      1.0  0.45785  0.54456  0.23813  1.0000
  H   H820      1.0  0.43152  0.52127  0.22194  1.0000
  H   H821      1.0  0.43170  0.54362  0.13855  1.0000
  H   H822      1.0  0.45843  0.56650  0.15428  1.0000
  C   C1051     1.0  0.03611  0.54585  0.25465  1.0000
  H   H823      1.0  0.42112  0.48060  0.05597  1.0000
  P   P35       1.0  0.46584  0.41390  0.15495  1.0000
  H   H824      1.0  0.16722  0.43049  0.40792  1.0000
  H   H825      1.0  0.01323  0.48684  0.16896  1.0000
  C   C1052     1.0  0.00636  0.58559  0.22844  1.0000
  C   C1053     1.0  0.18050  0.40741  0.44445  1.0000
  C   C1054     1.0  0.19374  0.40841  0.46404  1.0000
  C   C1055     1.0  0.20905  0.41007  0.45345  1.0000
  C   C1056     1.0  0.21139  0.41087  0.42299  1.0000
  C   C1057     1.0  0.19804  0.40950  0.40334  1.0000
  C   C1058     1.0  0.18273  0.40779  0.41393  1.0000
  C   C1059     1.0  0.36257  0.43977  0.33118  1.0000
  C   C1060     1.0  0.04834  0.56028  0.26710  1.0000
  C   C1061     1.0  0.26019  0.48416  0.01630  1.0000
  H   H826      1.0  0.17272  0.40689  0.39844  1.0000
  C   C1062     1.0  0.07630  0.52754  0.18825  1.0000
  C   C1063     1.0  0.08711  0.54415  0.19245  1.0000
  C   C1064     1.0  0.08111  0.55660  0.19351  1.0000
  C   C1065     1.0  0.06416  0.55262  0.19002  1.0000
  C   C1066     1.0  0.05337  0.53602  0.18547  1.0000
  C   C1067     1.0  0.05936  0.52358  0.18475  1.0000
  H   H827      1.0  0.10025  0.54742  0.19498  1.0000
  H   H828      1.0  0.08962  0.56926  0.19682  1.0000
  H   H829      1.0  0.04026  0.53275  0.18241  1.0000
  H   H830      1.0  0.05093  0.51096  0.18093  1.0000
  C   C1068     1.0  0.08755  0.44022  0.29539  1.0000
  C   C1069     1.0  0.08733  0.42599  0.28168  1.0000
  C   C1070     1.0  0.09243  0.41535  0.29803  1.0000
  C   C1071     1.0  0.09756  0.41864  0.32833  1.0000
  C   C1072     1.0  0.09770  0.43282  0.34204  1.0000
  C   C1073     1.0  0.09277  0.44353  0.32565  1.0000
  H   H831      1.0  0.08346  0.42333  0.25842  1.0000
  H   H832      1.0  0.09252  0.40456  0.28704  1.0000
  H   H833      1.0  0.10181  0.43565  0.36519  1.0000
  H   H834      1.0  0.09318  0.45458  0.33645  1.0000
  C   C1074     1.0  0.09615  0.43535  0.03295  1.0000
  C   C1075     1.0  0.09866  0.45002  0.04857  1.0000
  C   C1076     1.0  0.09150  0.44997  0.07598  1.0000
  C   C1077     1.0  0.08178  0.43517  0.08844  1.0000
  C   C1078     1.0  0.07911  0.42049  0.07265  1.0000
  C   C1079     1.0  0.08611  0.42056  0.04508  1.0000
  H   H835      1.0  0.10629  0.46157  0.03948  1.0000
  H   H836      1.0  0.09376  0.46138  0.08770  1.0000
  H   H837      1.0  0.07160  0.40895  0.08189  1.0000
  H   H838      1.0  0.08372  0.40915  0.03324  1.0000
  C   C1080     1.0  0.00053  0.43229  0.21477  1.0000
  C   C1081     1.0  0.00725  0.42805  0.24018  1.0000
  C   C1082     1.0  0.34496  0.44475  0.99388  1.0000
  H   H839      1.0  0.02049  0.43233  0.24369  1.0000
  C   C1083     1.0  0.17681  0.43059  0.09044  1.0000
  C   C1084     1.0  0.14917  0.44686  0.99465  1.0000
  C   C1085     1.0  0.35914  0.45344  0.01203  1.0000
  H   H840      1.0  0.20203  0.43885  0.10765  1.0000
  H   H841      1.0  0.27139  0.49885  0.05611  1.0000
  P   P36       1.0  0.38684  0.45656  0.04800  1.0000
  C   C1086     1.0  0.38829  0.44511  0.08000  1.0000
  C   C1087     1.0  0.46909  0.50605  0.18909  1.0000
  C   C1088     1.0  0.23417  0.39747  0.32365  1.0000
  C   C1089     1.0  0.03972  0.39830  0.15931  1.0000
  H   H842      1.0  0.26443  0.42405  0.01174  1.0000
  C   C1090     1.0  0.08566  0.57746  0.12549  1.0000
  C   C1091     1.0  0.18576  0.41883  0.13210  1.0000
  C   C1092     1.0  0.37393  0.43383  0.09179  1.0000
  C   C1093     1.0  0.37486  0.42595  0.11789  1.0000
  C   C1094     1.0  0.39014  0.42924  0.13250  1.0000
  C   C1095     1.0  0.40453  0.44035  0.12089  1.0000
  C   C1096     1.0  0.40364  0.44828  0.09478  1.0000
  C   C1097     1.0  0.38613  0.47535  0.06172  1.0000
  C   C1098     1.0  0.39346  0.48993  0.04661  1.0000
  C   C1099     1.0  0.39339  0.50452  0.05816  1.0000
  C   C1100     1.0  0.38578  0.50459  0.08454  1.0000
  C   C1101     1.0  0.37786  0.49001  0.09894  1.0000
  C   C1102     1.0  0.37789  0.47543  0.08743  1.0000
  C   C1103     1.0  0.23810  0.41612  0.01348  1.0000
  C   C1104     1.0  0.98488  0.48154  0.13287  1.0000
  H   H843      1.0  0.47023  0.42410  0.45219  1.0000
  C   C1105     1.0  0.98661  0.51305  0.26520  1.0000
  H   H844      1.0  0.99501  0.56018  0.23868  1.0000
  C   C1106     1.0  0.16379  0.45616  0.46480  1.0000
  C   C1107     1.0  0.19308  0.51197  0.45592  1.0000
  Fe  Fe77      1.0  0.27535  0.39387  0.43802  1.0000
  H   H845      1.0  0.36188  0.43160  0.08164  1.0000
  H   H846      1.0  0.36362  0.41782  0.12741  1.0000
  H   H847      1.0  0.39082  0.42361  0.15334  1.0000
  H   H848      1.0  0.41629  0.44325  0.13289  1.0000
  H   H849      1.0  0.41489  0.45719  0.08686  1.0000
  H   H850      1.0  0.39923  0.49008  0.02597  1.0000
  H   H851      1.0  0.47210  0.51444  0.26366  1.0000
  C   C1108     1.0  0.47132  0.45012  0.21663  1.0000
  H   H852      1.0  0.37182  0.49001  0.11925  1.0000
  H   H853      1.0  0.37154  0.46426  0.09876  1.0000
  H   H854      1.0  0.99839  0.41631  0.43657  1.0000
  C   C1109     1.0  0.16424  0.44380  0.48310  1.0000
  H   H855      1.0  0.04516  0.43347  0.07165  1.0000
  C   C1110     1.0  0.04423  0.57007  0.28669  1.0000
  H   H856      1.0  0.07451  0.47968  0.31393  1.0000
  H   H857      1.0  0.38598  0.51591  0.09389  1.0000
  C   C1111     1.0  0.10118  0.57798  0.11969  1.0000
  C   C1112     1.0  0.47023  0.40294  0.42879  1.0000
  C   C1113     1.0  0.47157  0.43621  0.20252  1.0000
  H   H858      1.0  0.99143  0.49126  0.27011  1.0000
  H   H859      1.0  0.45319  0.43832  0.13557  1.0000
  C   C1114     1.0  0.98740  0.46938  0.11669  1.0000
  C   C1115     1.0  0.21882  0.39829  0.32025  1.0000
  H   H860      1.0  0.05500  0.49248  0.30207  1.0000
  C   C1116     1.0  0.43636  0.42109  0.35336  1.0000
  S   S150      1.0  0.10585  0.43634  0.99856  1.0000
  C   C1117     1.0  0.22666  0.43435  0.99254  1.0000
  H   H861      1.0  0.21229  0.41133  0.01152  1.0000
  H   H862      1.0  0.42486  0.43786  0.29388  1.0000
  C   C1118     1.0  0.40337  0.45219  0.99944  1.0000
  C   C1119     1.0  0.02788  0.56537  0.29405  1.0000
  C   C1120     1.0  0.99667  0.57907  0.11014  1.0000
  C   C1121     1.0  0.46758  0.41629  0.11536  1.0000
  H   H863      1.0  0.14420  0.39987  0.11888  1.0000
  H   H864      1.0  0.14680  0.38837  0.06293  1.0000
  H   H865      1.0  0.02524  0.47751  0.31059  1.0000
  H   H866      1.0  0.01514  0.45013  0.33085  1.0000
  C   C1122     1.0  0.43781  0.43119  0.32935  1.0000
  H   H867      1.0  0.99765  0.46230  0.25758  1.0000
  H   H868      1.0  0.05369  0.58146  0.29555  1.0000
  S   S151      1.0  0.45253  0.39329  0.31171  1.0000
  C   C1123     1.0  0.13426  0.43031  0.09083  1.0000
  H   H869      1.0  0.00022  0.41700  0.14154  1.0000
  C   C1124     1.0  0.43225  0.46827  0.99213  1.0000
  H   H870      1.0  0.03936  0.38955  0.42579  1.0000
  H   H871      1.0  0.21594  0.43688  0.98743  1.0000
  C   C1125     1.0  0.43362  0.47712  0.01864  1.0000
  C   C1126     1.0  0.39898  0.40983  0.41707  1.0000
  C   C1127     1.0  0.39054  0.41251  0.44059  1.0000
  H   H872      1.0  0.07575  0.56600  0.13056  1.0000
  C   C1128     1.0  0.00128  0.55143  0.17250  1.0000
  C   C1129     1.0  0.18637  0.49494  0.45769  1.0000
  C   C1130     1.0  0.42076  0.40986  0.36085  1.0000
  C   C1131     1.0  0.40673  0.40867  0.34353  1.0000
  C   C1132     1.0  0.40821  0.41889  0.31975  1.0000
  C   C1133     1.0  0.03496  0.42966  0.08611  1.0000
  C   C1134     1.0  0.47644  0.51302  0.21706  1.0000
  C   C1135     1.0  0.05642  0.58286  0.42701  1.0000
  H   H873      1.0  0.39870  0.41572  0.39648  1.0000
  H   H874      1.0  0.38379  0.42020  0.43776  1.0000
  C   C1136     1.0  0.02861  0.44080  0.09542  1.0000
  H   H875      1.0  0.43695  0.40866  0.19020  1.0000
  C   C1137     1.0  0.01596  0.43606  0.11508  1.0000
  C   C1138     1.0  0.46443  0.45963  0.20165  1.0000
  H   H876      1.0  0.39738  0.41778  0.30620  1.0000
  C   C1139     1.0  0.15153  0.42916  0.36937  1.0000
  C   C1140     1.0  0.14382  0.43729  0.35241  1.0000
  C   C1141     1.0  0.14633  0.45331  0.36041  1.0000
  C   C1142     1.0  0.15679  0.46133  0.38510  1.0000
  C   C1143     1.0  0.16193  0.43713  0.39412  1.0000
  C   C1144     1.0  0.15144  0.43013  0.03502  1.0000
  C   C1145     1.0  0.06802  0.43842  0.41514  1.0000
  C   C1146     1.0  0.02873  0.49392  0.24036  1.0000
  H   H877      1.0  0.36150  0.44801  0.34799  1.0000
  H   H878      1.0  0.14900  0.41651  0.36387  1.0000
  H   H879      1.0  0.13551  0.43101  0.33356  1.0000
  H   H880      1.0  0.13986  0.45934  0.34777  1.0000
  C   C1147     1.0  0.39951  0.39546  0.47148  1.0000
  H   H881      1.0  0.36537  0.41115  0.26831  1.0000
  Fe  Fe78      1.0  0.29036  0.42937  0.45849  1.0000
  H   H882      1.0  0.99893  0.57010  0.09677  1.0000
  H   H883      1.0  0.04971  0.40668  0.34963  1.0000
  H   H884      1.0  0.19342  0.51956  0.47512  1.0000
  S   S152      1.0  0.30225  0.43739  0.00257  1.0000
  C   C1148     1.0  0.15682  0.40823  0.11591  1.0000
  H   H885      1.0  0.45207  0.46235  0.16129  1.0000
  C   C1149     1.0  0.39074  0.40528  0.46774  1.0000
  H   H886      1.0  0.16658  0.39924  0.15283  1.0000
  C   C1150     1.0  0.33957  0.42789  0.98908  1.0000
  C   C1151     1.0  0.25386  0.42691  0.00652  1.0000
  H   H887      1.0  0.17982  0.43975  0.07377  1.0000
  H   H888      1.0  0.99191  0.49429  0.12848  1.0000
  C   C1152     1.0  0.16718  0.43265  0.99136  1.0000
  H   H889      1.0  0.44165  0.41083  0.10643  1.0000
  H   H890      1.0  0.31135  0.39985  0.32859  1.0000
  S   S153      1.0  0.47775  0.57494  0.21183  1.0000
  H   H891      1.0  0.05661  0.40769  0.46742  1.0000
  H   H892      1.0  0.18178  0.48958  0.47850  1.0000
  C   C1153     1.0  0.98333  0.42659  0.21036  1.0000
  H   H893      1.0  0.44039  0.58241  0.15410  1.0000
  H   H894      1.0  0.44531  0.48684  0.02599  1.0000
  C   C1154     1.0  0.98056  0.57760  0.11342  1.0000
  H   H895      1.0  0.20466  0.53240  0.42818  1.0000
  H   H896      1.0  0.04209  0.41211  0.24843  1.0000
  H   H897      1.0  0.00098  0.39678  0.18924  1.0000
  H   H898      1.0  0.44749  0.42184  0.36538  1.0000
  P   P37       1.0  0.33642  0.39229  0.30084  1.0000
  C   C1155     1.0  0.15146  0.46203  0.46808  1.0000
  C   C1156     1.0  0.99631  0.53122  0.21037  1.0000
  H   H899      1.0  0.24805  0.47898  0.02500  1.0000
  C   C1157     1.0  0.13392  0.45544  0.11150  1.0000
  H   H900      1.0  0.24513  0.40743  0.31670  1.0000
  C   C1158     1.0  0.44661  0.39652  0.15913  1.0000
  C   C1159     1.0  0.46938  0.41791  0.05342  1.0000
  P   P38       1.0  0.17749  0.46311  0.43491  1.0000
  H   H901      1.0  0.03042  0.47890  0.20398  1.0000
  C   C1160     1.0  0.19921  0.50943  0.40487  1.0000
  H   H902      1.0  0.39180  0.44257  0.99140  1.0000
  H   H903      1.0  0.01138  0.44486  0.12300  1.0000
  H   H904      1.0  0.28903  0.38879  0.20828  1.0000
  H   H905      1.0  0.00209  0.41501  0.28055  1.0000
  H   H906      1.0  0.47632  0.50855  0.16969  1.0000
  C   C1161     1.0  0.01606  0.40897  0.11652  1.0000
  C   C1162     1.0  0.14133  0.44744  0.09429  1.0000
  C   C1163     1.0  0.43866  0.39829  0.40575  1.0000
  C   C1164     1.0  0.22453  0.41987  0.00663  1.0000
  C   C1165     1.0  0.11964  0.44639  0.12588  1.0000
  H   H907      1.0  0.07195  0.40569  0.38269  1.0000
  H   H908      1.0  0.99811  0.42179  0.32749  1.0000
  C   C1166     1.0  0.36811  0.44528  0.02550  1.0000
  H   H909      1.0  0.99634  0.47269  0.09978  1.0000
  H   H910      1.0  0.98049  0.44544  0.29656  1.0000
  C   C1167     1.0  0.34852  0.41969  0.00208  1.0000
  C   C1168     1.0  0.11283  0.42934  0.12328  1.0000
  C   C1169     1.0  0.06160  0.47338  0.31842  1.0000
  H   H911      1.0  0.21788  0.40892  0.31063  1.0000
  H   H912      1.0  0.06370  0.40584  0.18166  1.0000
  C   C1170     1.0  0.98390  0.41709  0.36580  1.0000
  H   H913      1.0  0.06217  0.57425  0.42570  1.0000
  Fe  Fe79      1.0  0.10679  0.41257  0.46320  1.0000
  Fe  Fe80      1.0  0.47217  0.40086  0.27798  1.0000
  H   H914      1.0  0.47606  0.45319  0.23952  1.0000
  C   C1171     1.0  0.31393  0.40178  0.22634  1.0000
  C   C1172     1.0  0.32562  0.40269  0.24894  1.0000
  H   H915      1.0  0.00966  0.56231  0.16227  1.0000
  C   C1173     1.0  0.36456  0.41895  0.28620  1.0000
  C   C1174     1.0  0.42373  0.43019  0.31273  1.0000
  H   H916      1.0  0.03382  0.45324  0.08802  1.0000
  H   H917      1.0  0.39930  0.51580  0.04676  1.0000
  H   H918      1.0  0.17310  0.43851  0.48021  1.0000
  H   H919      1.0  0.04389  0.40867  0.14521  1.0000
  H   H920      1.0  0.31715  0.41090  0.20947  1.0000
  C   C1175     1.0  0.02221  0.39260  0.26800  1.0000
  H   H921      1.0  0.19256  0.48497  0.38742  1.0000
  C   C1176     1.0  0.36281  0.42836  0.02004  1.0000
  C   C1177     1.0  0.32150  0.39117  0.27125  1.0000
  H   H922      1.0  0.36288  0.46645  0.01571  1.0000
  C   C1178     1.0  0.16046  0.41938  0.09303  1.0000
  S   S154      1.0  0.26606  0.40866  0.46708  1.0000
  H   H923      1.0  0.19596  0.45278  0.39224  1.0000
  C   C1179     1.0  0.29808  0.38934  0.22571  1.0000
  H   H924      1.0  0.06471  0.45239  0.33457  1.0000
  C   C1180     1.0  0.16501  0.45342  0.40168  1.0000
  C   C1181     1.0  0.16261  0.42612  0.01911  1.0000
  S   S155      1.0  0.08898  0.39455  0.42911  1.0000
  H   H925      1.0  0.04492  0.57363  0.46770  1.0000
  C   C1182     1.0  0.45345  0.41369  0.09697  1.0000
  C   C1183     1.0  0.99842  0.41757  0.41273  1.0000
  H   H926      1.0  0.19965  0.41002  0.37972  1.0000
  H   H927      1.0  0.44988  0.43955  0.32318  1.0000
  C   C1184     1.0  0.03796  0.41911  0.29212  1.0000
  C   C1185     1.0  0.12011  0.42130  0.10593  1.0000
  C   C1186     1.0  0.43478  0.39749  0.17772  1.0000
  H   H928      1.0  0.46364  0.47004  0.21300  1.0000
  P   P39       1.0  0.03213  0.42858  0.34823  1.0000
  H   H929      1.0  0.23421  0.44843  0.44806  1.0000
  H   H930      1.0  0.03661  0.49056  0.25538  1.0000
  C   C1187     1.0  0.99324  0.57137  0.23662  1.0000
  C   C1188     1.0  0.20176  0.45375  0.41421  1.0000
  H   H931      1.0  0.02413  0.42302  0.41145  1.0000
  H   H932      1.0  0.38546  0.43989  0.27279  1.0000
  C   C1189     1.0  0.14471  0.44049  0.02252  1.0000
  C   C1190     1.0  0.03484  0.40824  0.26773  1.0000
  C   C1191     1.0  0.04839  0.42752  0.37267  1.0000
  H   H933      1.0  0.38341  0.45842  0.31232  1.0000
  C   C1192     1.0  0.40462  0.46103  0.02613  1.0000
  C   C1193     1.0  0.05056  0.48050  0.31148  1.0000
  H   H934      1.0  0.22040  0.44632  0.39850  1.0000
  C   C1194     1.0  0.06709  0.41482  0.38691  1.0000
  C   C1195     1.0  0.37498  0.44564  0.31112  1.0000
  H   H935      1.0  0.05120  0.44880  0.39974  1.0000
  H   H936      1.0  0.00301  0.54784  0.28704  1.0000
  H   H937      1.0  0.41236  0.57959  0.17612  1.0000
  C   C1196     1.0  0.18942  0.43021  0.10978  1.0000
  H   H938      1.0  0.33771  0.41259  0.24904  1.0000
  H   H939      1.0  0.00172  0.50651  0.18476  1.0000
  C   C1197     1.0  0.99680  0.41836  0.26123  1.0000
  C   C1198     1.0  0.37602  0.43521  0.28871  1.0000
  C   C1199     1.0  0.01308  0.42147  0.39830  1.0000
  C   C1200     1.0  0.45789  0.45527  0.17247  1.0000
  C   C1201     1.0  0.02529  0.48733  0.21137  1.0000
  H   H940      1.0  0.15244  0.45462  0.08342  1.0000
  C   C1202     1.0  0.02228  0.50501  0.24962  1.0000
  H   H941      1.0  0.43265  0.55527  0.25848  1.0000
  C   C1203     1.0  0.01560  0.55090  0.28163  1.0000
  C   C1204     1.0  0.03383  0.47204  0.31623  1.0000
  C   C1205     1.0  0.44760  0.41151  0.42560  1.0000
  C   C1206     1.0  0.21576  0.45030  0.41754  1.0000
  C   C1207     1.0  0.02814  0.45642  0.32782  1.0000
  C   C1208     1.0  0.41684  0.57448  0.19437  1.0000
  H   H942      1.0  0.15817  0.47355  0.39147  1.0000
  C   C1209     1.0  0.99846  0.42077  0.35131  1.0000
  C   C1210     1.0  0.21765  0.45653  0.47026  1.0000
  C   C1211     1.0  0.02863  0.41378  0.09640  1.0000
  C   C1212     1.0  0.00713  0.54492  0.19606  1.0000
  H   H943      1.0  0.03956  0.53890  0.23854  1.0000
  H   H944      1.0  0.11022  0.40770  0.04411  1.0000
  P   P40       1.0  0.14399  0.42004  0.06891  1.0000
  C   C1213     1.0  0.46677  0.50934  0.24185  1.0000
  S   S156      1.0  0.45347  0.39110  0.23923  1.0000
  C   C1214     1.0  0.12953  0.39979  0.05686  1.0000
  C   C1215     1.0  0.03919  0.44915  0.33488  1.0000
  C   C1216     1.0  0.16946  0.40789  0.13524  1.0000
  H   H945      1.0  0.47644  0.42873  0.21503  1.0000
  C   C1217     1.0  0.04669  0.58249  0.45066  1.0000
  H   H946      1.0  0.29960  0.50986  0.03785  1.0000
  H   H947      1.0  0.13912  0.46867  0.11345  1.0000
  C   C1218     1.0  0.02843  0.41440  0.31702  1.0000
  H   H948      1.0  0.15042  0.47106  0.45339  1.0000
  H   H949      1.0  0.10160  0.42241  0.13414  1.0000
  H   H950      1.0  0.10325  0.56684  0.12027  1.0000
  C   C1219     1.0  0.35178  0.41305  0.30584  1.0000
  H   H951      1.0  0.34108  0.41962  0.34358  1.0000
  C   C1220     1.0  0.40830  0.55798  0.20029  1.0000
  C   C1221     1.0  0.41388  0.55113  0.22364  1.0000
  H   H952      1.0  0.11458  0.40808  0.10424  1.0000
  C   C1222     1.0  0.35092  0.42358  0.32847  1.0000
  C   C1223     1.0  0.05108  0.39675  0.18021  1.0000
  C   C1224     1.0  0.22361  0.45154  0.44556  1.0000
  H   H953      1.0  0.39750  0.55034  0.18650  1.0000
  H   H954      1.0  0.40744  0.53823  0.22774  1.0000
  H   H955      1.0  0.01814  0.58527  0.22428  1.0000
  C   C1225     1.0  0.01326  0.42325  0.36741  1.0000
  C   C1226     1.0  0.05597  0.45783  0.33014  1.0000
  H   H956      1.0  0.04773  0.43120  0.29124  1.0000
  C   C1227     1.0  0.44996  0.49913  0.23857  1.0000
  C   C1228     1.0  0.44270  0.49252  0.21060  1.0000
  C   C1229     1.0  0.45225  0.49600  0.18588  1.0000
  H   H957      1.0  0.44249  0.42016  0.43190  1.0000
  H   H958      1.0  0.08378  0.42589  0.42504  1.0000
  H   H959      1.0  0.21915  0.41110  0.46888  1.0000
  H   H960      1.0  0.23640  0.40473  0.02373  1.0000
  C   C1230     1.0  0.00907  0.50299  0.20059  1.0000
  H   H961      1.0  0.11363  0.45256  0.13866  1.0000
  H   H962      1.0  0.39468  0.39970  0.34826  1.0000
  H   H963      1.0  0.13547  0.44314  0.03358  1.0000
  C   C1231     1.0  0.46333  0.41382  0.43707  1.0000
  C   C1232     1.0  0.20372  0.46010  0.46699  1.0000
  H   H964      1.0  0.03396  0.40542  0.08940  1.0000
  C   C1233     1.0  0.28931  0.50145  0.02387  1.0000
  H   H965      1.0  0.07343  0.44735  0.43334  1.0000
  H   H966      1.0  0.02464  0.57315  0.30874  1.0000
  C   C1234     1.0  0.45437  0.41451  0.06615  1.0000
  C   C1235     1.0  0.42810  0.56074  0.24092  1.0000
  C   C1236     1.0  0.07385  0.42627  0.41051  1.0000
  H   H967      1.0  0.44244  0.49645  0.25761  1.0000
  H   H968      1.0  0.42964  0.48476  0.20800  1.0000
  H   H969      1.0  0.44647  0.49099  0.16421  1.0000
  H   H970      1.0  0.02507  0.51008  0.27215  1.0000
  C   C1237     1.0  0.19944  0.51921  0.42950  1.0000
  H   H971      1.0  0.02004  0.55087  0.20338  1.0000
  C   C1238     1.0  0.01553  0.49187  0.19150  1.0000
  H   H972      1.0  0.06091  0.56415  0.26052  1.0000
  H   H973      1.0  0.44341  0.41241  0.05211  1.0000
  C   C1239     1.0  0.41987  0.47353  0.03558  1.0000
  C   C1240     1.0  0.19538  0.45830  0.43906  1.0000
  C   C1241     1.0  0.18576  0.48504  0.43282  1.0000
  C   C1242     1.0  0.05544  0.43916  0.39615  1.0000
  C   C1243     1.0  0.98465  0.54416  0.16270  1.0000
  H   H974      1.0  0.36967  0.42186  0.02981  1.0000
  C   C1244     1.0  0.01240  0.50963  0.22975  1.0000
  C   C1245     1.0  0.01614  0.39844  0.31756  1.0000
  P   P41       1.0  0.00365  0.52352  0.24218  1.0000
  C   C1246     1.0  0.01960  0.54102  0.26167  1.0000
  C   C1247     1.0  0.19249  0.49241  0.40656  1.0000
  C   C1248     1.0  0.98385  0.41544  0.39650  1.0000
  C   C1249     1.0  0.43686  0.57718  0.23473  1.0000
  H   H975      1.0  0.99783  0.58427  0.34093  1.0000
  H   H976      1.0  0.00879  0.39441  0.33665  1.0000
  H   H977      1.0  0.98454  0.46697  0.21158  1.0000
  S   S157      1.0  0.11688  0.39466  0.47961  1.0000
  C   C1250     1.0  0.98432  0.45738  0.25477  1.0000
  C   C1251     1.0  0.31379  0.39115  0.34223  1.0000
  H   H978      1.0  0.29638  0.39086  0.37416  1.0000
  C   C1252     1.0  0.40768  0.39981  0.42052  1.0000
  P   P42       1.0  0.41862  0.39589  0.39050  1.0000
  H   H979      1.0  0.34428  0.40661  0.99833  1.0000
  C   C1253     1.0  0.26269  0.47947  0.98773  1.0000
  C   C1254     1.0  0.43122  0.58422  0.21152  1.0000
  H   H980      1.0  0.44808  0.58419  0.24791  1.0000
  H   H981      1.0  0.45625  0.58577  0.10965  1.0000
  P   P43       1.0  0.00840  0.38852  0.13021  1.0000
  C   C1255     1.0  0.29202  0.49639  0.99593  1.0000
  H   H982      1.0  0.36646  0.39052  0.32535  1.0000
  C   C1256     1.0  0.40809  0.39288  0.44812  1.0000
  H   H983      1.0  0.30443  0.50074  0.98838  1.0000
  H   H984      1.0  0.98007  0.54939  0.14483  1.0000
  C   C1257     1.0  0.46136  0.38972  0.40921  1.0000
  C   C1258     1.0  0.98947  0.38888  0.17757  1.0000
  H   H985      1.0  0.26834  0.44940  0.98673  1.0000
  H   H986      1.0  0.98058  0.44352  0.11028  1.0000
  C   C1259     1.0  0.24244  0.44512  0.98497  1.0000
  H   H987      1.0  0.23800  0.49191  0.98490  1.0000
  H   H988      1.0  0.14338  0.45433  0.98471  1.0000
  Fe  Fe81      1.0  0.04169  0.44963  0.68900  1.0000
  S   S158      1.0  0.05615  0.47210  0.71794  1.0000
  S   S159      1.0  0.01364  0.43647  0.68669  1.0000
  Fe  Fe82      1.0  0.07217  0.45158  0.65524  1.0000
  S   S160      1.0  0.08850  0.47448  0.68193  1.0000
  S   S161      1.0  0.08204  0.43629  0.62616  1.0000
  Fe  Fe83      1.0  0.07550  0.46159  0.72188  1.0000
  S   S162      1.0  0.09139  0.46313  0.76441  1.0000
  Fe  Fe84      1.0  0.06790  0.48326  0.67607  1.0000
  S   S163      1.0  0.07083  0.50853  0.65912  1.0000
  S   S164      1.0  0.06010  0.43843  0.69579  1.0000
  S   S165      1.0  0.05249  0.46110  0.64654  1.0000
  H   H989      1.0  0.38409  0.40731  0.48584  1.0000
  C   C1260     1.0  0.06243  0.38893  0.48757  1.0000
  S   S166      1.0  0.12225  0.42836  0.92281  1.0000
  C   C1261     1.0  0.02432  0.46930  0.77117  1.0000
  Fe  Fe85      1.0  0.10133  0.40775  0.89825  1.0000
  S   S167      1.0  0.08697  0.40695  0.85416  1.0000
  Fe  Fe86      1.0  0.13465  0.41071  0.92866  1.0000
  S   S168      1.0  0.16174  0.41831  0.91586  1.0000
  C   C1262     1.0  0.09889  0.43169  0.70936  1.0000
  C   C1263     1.0  0.01054  0.48432  0.74552  1.0000
  S   S169      1.0  0.06379  0.57350  0.70713  1.0000
  H   H990      1.0  0.11276  0.54872  0.74748  1.0000
  C   C1264     1.0  0.98985  0.52580  0.68975  1.0000
  C   C1265     1.0  0.46280  0.47336  0.71296  1.0000
  Fe  Fe87      1.0  0.44037  0.39235  0.78242  1.0000
  Fe  Fe88      1.0  0.38364  0.48362  0.69120  1.0000
  S   S170      1.0  0.38338  0.46796  0.65131  1.0000
  S   S171      1.0  0.39743  0.51169  0.69522  1.0000
  Fe  Fe89      1.0  0.36200  0.45373  0.72675  1.0000
  S   S172      1.0  0.36102  0.43637  0.68930  1.0000
  S   S173      1.0  0.35176  0.44199  0.77080  1.0000
  Fe  Fe90      1.0  0.38780  0.45181  0.68524  1.0000
  S   S174      1.0  0.40721  0.44198  0.67791  1.0000
  Fe  Fe91      1.0  0.35632  0.45365  0.65797  1.0000
  S   S175      1.0  0.33549  0.43909  0.62288  1.0000
  S   S176      1.0  0.38951  0.46810  0.72457  1.0000
  S   S177      1.0  0.35593  0.47040  0.69598  1.0000
  Fe  Fe92      1.0  0.28262  0.41885  0.89506  1.0000
  S   S178      1.0  0.29740  0.41023  0.92687  1.0000
  S   S179      1.0  0.29103  0.43260  0.85200  1.0000
  Fe  Fe93      1.0  0.25135  0.40532  0.93224  1.0000
  H   H991      1.0  0.42958  0.47914  0.66120  1.0000
  C   C1266     1.0  0.10801  0.42504  0.75676  1.0000
  H   H992      1.0  0.08376  0.43409  0.92401  1.0000
  S   S180      1.0  0.11423  0.39069  0.90172  1.0000
  H   H993      1.0  0.41605  0.44901  0.96189  1.0000
  S   S181      1.0  0.27329  0.42964  0.93203  1.0000
  H   H994      1.0  0.39696  0.39493  0.70434  1.0000
  C   C1267     1.0  0.33492  0.43986  0.79321  1.0000
  C   C1268     1.0  0.33269  0.43066  0.81897  1.0000
  C   C1269     1.0  0.31954  0.42849  0.83737  1.0000
  C   C1270     1.0  0.30824  0.43536  0.83013  1.0000
  C   C1271     1.0  0.31052  0.44462  0.80444  1.0000
  C   C1272     1.0  0.32379  0.44695  0.78623  1.0000
  H   H995      1.0  0.34124  0.42520  0.82481  1.0000
  H   H996      1.0  0.31810  0.42142  0.85706  1.0000
  H   H997      1.0  0.30201  0.45015  0.79867  1.0000
  H   H998      1.0  0.32549  0.45432  0.76692  1.0000
  C   C1273     1.0  0.31620  0.44515  0.52846  1.0000
  C   C1274     1.0  0.32826  0.45869  0.54449  1.0000
  C   C1275     1.0  0.33478  0.45699  0.57283  1.0000
  C   C1276     1.0  0.32900  0.44179  0.58598  1.0000
  C   C1277     1.0  0.31711  0.42821  0.56981  1.0000
  C   C1278     1.0  0.31088  0.42982  0.54116  1.0000
  H   H999      1.0  0.33251  0.47061  0.53496  1.0000
  H   H1000     1.0  0.34407  0.46747  0.58472  1.0000
  H   H1001     1.0  0.31252  0.41637  0.57964  1.0000
  H   H1002     1.0  0.30161  0.41929  0.52928  1.0000
  C   C1279     1.0  0.41737  0.41384  0.75454  1.0000
  C   C1280     1.0  0.42890  0.42015  0.73298  1.0000
  C   C1281     1.0  0.42582  0.42898  0.70966  1.0000
  C   C1282     1.0  0.41138  0.43182  0.70816  1.0000
  C   C1283     1.0  0.40027  0.42623  0.73047  1.0000
  C   C1284     1.0  0.40337  0.41742  0.75372  1.0000
  H   H1003     1.0  0.43992  0.41780  0.73377  1.0000
  H   H1004     1.0  0.43456  0.43347  0.69263  1.0000
  H   H1005     1.0  0.38916  0.42846  0.72959  1.0000
  H   H1006     1.0  0.39470  0.41305  0.77085  1.0000
  C   C1285     1.0  0.45205  0.54686  0.68405  1.0000
  C   C1286     1.0  0.44075  0.55261  0.69481  1.0000
  C   C1287     1.0  0.42421  0.54168  0.69829  1.0000
  C   C1288     1.0  0.41868  0.52481  0.69136  1.0000
  C   C1289     1.0  0.43005  0.51902  0.68108  1.0000
  C   C1290     1.0  0.44656  0.52996  0.67739  1.0000
  H   H1007     1.0  0.44467  0.56552  0.70006  1.0000
  H   H1008     1.0  0.41559  0.54636  0.70623  1.0000
  H   H1009     1.0  0.42606  0.50615  0.67551  1.0000
  H   H1010     1.0  0.45514  0.52529  0.66921  1.0000
  H   H1011     1.0  0.32831  0.42120  0.97561  1.0000
  C   C1291     1.0  0.11718  0.57088  0.72430  1.0000
  C   C1292     1.0  0.01396  0.49494  0.77053  1.0000
  C   C1293     1.0  0.99138  0.56723  0.72741  1.0000
  C   C1294     1.0  0.01164  0.41533  0.86175  1.0000
  H   H1012     1.0  0.99420  0.55672  0.73136  1.0000
  C   C1295     1.0  0.17833  0.41186  0.92178  1.0000
  C   C1296     1.0  0.19212  0.41836  0.90436  1.0000
  C   C1297     1.0  0.20600  0.41449  0.90921  1.0000
  C   C1298     1.0  0.20637  0.40401  0.93169  1.0000
  H   H1013     1.0  0.03487  0.47851  0.81508  1.0000
  C   C1299     1.0  0.17851  0.40107  0.94380  1.0000
  H   H1014     1.0  0.19218  0.42664  0.88712  1.0000
  H   H1015     1.0  0.21637  0.41960  0.89544  1.0000
  C   C1300     1.0  0.35436  0.39969  0.74461  1.0000
  H   H1016     1.0  0.11591  0.42886  0.77691  1.0000
  C   C1301     1.0  0.06738  0.52576  0.67283  1.0000
  C   C1302     1.0  0.06575  0.52844  0.70294  1.0000
  C   C1303     1.0  0.06461  0.54304  0.71286  1.0000
  C   C1304     1.0  0.06484  0.55510  0.69290  1.0000
  C   C1305     1.0  0.06584  0.55211  0.66266  1.0000
  C   C1306     1.0  0.06726  0.53766  0.65282  1.0000
  H   H1017     1.0  0.06588  0.51951  0.71871  1.0000
  H   H1018     1.0  0.06373  0.54507  0.73627  1.0000
  H   H1019     1.0  0.06562  0.56095  0.64681  1.0000
  H   H1020     1.0  0.06844  0.53575  0.62948  1.0000
  C   C1307     1.0  0.08965  0.44746  0.78968  1.0000
  C   C1308     1.0  0.07754  0.43156  0.78547  1.0000
  C   C1309     1.0  0.07665  0.41947  0.80582  1.0000
  C   C1310     1.0  0.08807  0.42300  0.83036  1.0000
  C   C1311     1.0  0.10016  0.43892  0.83474  1.0000
  C   C1312     1.0  0.10089  0.45107  0.81454  1.0000
  H   H1021     1.0  0.06890  0.42859  0.76645  1.0000
  H   H1022     1.0  0.06713  0.40729  0.80230  1.0000
  H   H1023     1.0  0.10900  0.44187  0.85356  1.0000
  H   H1024     1.0  0.11031  0.46333  0.81808  1.0000
  C   C1313     1.0  0.09326  0.43087  0.52777  1.0000
  C   C1314     1.0  0.09567  0.42097  0.54960  1.0000
  C   C1315     1.0  0.09214  0.42282  0.57939  1.0000
  C   C1316     1.0  0.08615  0.43456  0.58796  1.0000
  C   C1317     1.0  0.08371  0.44442  0.56609  1.0000
  C   C1318     1.0  0.08724  0.44258  0.53631  1.0000
  H   H1025     1.0  0.10028  0.41190  0.54359  1.0000
  H   H1026     1.0  0.09410  0.41509  0.59599  1.0000
  H   H1027     1.0  0.07914  0.45351  0.57214  1.0000
  H   H1028     1.0  0.08531  0.45034  0.51978  1.0000
  C   C1319     1.0  0.00011  0.42546  0.71389  1.0000
  C   C1320     1.0  0.00580  0.42363  0.74245  1.0000
  C   C1321     1.0  0.04199  0.43230  0.80501  1.0000
  H   H1029     1.0  0.01882  0.42932  0.74863  1.0000
  H   H1030     1.0  0.05676  0.41022  0.72568  1.0000
  C   C1322     1.0  0.41860  0.48194  0.81916  1.0000
  C   C1323     1.0  0.99456  0.41429  0.76294  1.0000
  H   H1031     1.0  0.00949  0.50456  0.77101  1.0000
  H   H1032     1.0  0.35972  0.39790  0.79107  1.0000
  C   C1324     1.0  0.99093  0.58350  0.81503  1.0000
  S   S182      1.0  0.47302  0.56008  0.67819  1.0000
  C   C1325     1.0  0.34731  0.39039  0.63629  1.0000
  H   H1033     1.0  0.01451  0.43731  0.83845  1.0000
  H   H1034     1.0  0.06798  0.42930  0.87580  1.0000
  C   C1326     1.0  0.04518  0.42179  0.94888  1.0000
  C   C1327     1.0  0.40795  0.45882  0.78417  1.0000
  H   H1035     1.0  0.00409  0.39218  0.88328  1.0000
  H   H1036     1.0  0.41889  0.43979  0.57497  1.0000
  C   C1328     1.0  0.25206  0.44549  0.88635  1.0000
  C   C1329     1.0  0.99616  0.46255  0.63498  1.0000
  C   C1330     1.0  0.43354  0.48797  0.80523  1.0000
  H   H1037     1.0  0.15286  0.42772  0.51809  1.0000
  C   C1331     1.0  0.00281  0.58090  0.71395  1.0000
  H   H1038     1.0  0.12266  0.41508  0.82583  1.0000
  H   H1039     1.0  0.42324  0.39167  0.70389  1.0000
  H   H1040     1.0  0.35863  0.42620  0.60057  1.0000
  C   C1332     1.0  0.42419  0.42347  0.54558  1.0000
  C   C1333     1.0  0.14063  0.44366  0.50807  1.0000
  C   C1334     1.0  0.10797  0.54399  0.70036  1.0000
  C   C1335     1.0  0.41256  0.41610  0.59331  1.0000
  H   H1041     1.0  0.26013  0.48806  0.92161  1.0000
  C   C1336     1.0  0.12559  0.40466  0.83050  1.0000
  C   C1337     1.0  0.98308  0.41824  0.70634  1.0000
  P   P44       1.0  0.24580  0.46383  0.96636  1.0000
  C   C1338     1.0  0.45833  0.53396  0.75369  1.0000
  C   C1339     1.0  0.42402  0.40785  0.54148  1.0000
  S   S183      1.0  0.25982  0.39518  0.89337  1.0000
  C   C1340     1.0  0.06234  0.42721  0.94974  1.0000
  S   S184      1.0  0.46046  0.40026  0.75037  1.0000
  H   H1042     1.0  0.39798  0.44752  0.77609  1.0000
  H   H1043     1.0  0.04906  0.44378  0.76330  1.0000
  C   C1341     1.0  0.00560  0.53831  0.69418  1.0000
  S   S185      1.0  0.26439  0.39569  0.96654  1.0000
  C   C1342     1.0  0.98717  0.50973  0.69647  1.0000
  H   H1044     1.0  0.01665  0.46487  0.60884  1.0000
  H   H1045     1.0  0.44763  0.46683  0.64105  1.0000
  H   H1046     1.0  0.38596  0.42962  0.62254  1.0000
  C   C1343     1.0  0.36285  0.39208  0.64831  1.0000
  S   S186      1.0  0.41923  0.40047  0.78139  1.0000
  C   C1344     1.0  0.35985  0.41654  0.61336  1.0000
  P   P45       1.0  0.99721  0.48534  0.71509  1.0000
  H   H1047     1.0  0.46895  0.46316  0.67418  1.0000
  C   C1345     1.0  0.04649  0.39873  0.72819  1.0000
  C   C1346     1.0  0.37678  0.40625  0.64307  1.0000
  C   C1347     1.0  0.16034  0.44289  0.97902  1.0000
  C   C1348     1.0  0.02813  0.48017  0.79571  1.0000
  H   H1048     1.0  0.47227  0.47183  0.72692  1.0000
  C   C1349     1.0  0.42278  0.46493  0.76990  1.0000
  C   C1350     1.0  0.41199  0.40037  0.58900  1.0000
  C   C1351     1.0  0.25105  0.46210  0.92870  1.0000
  C   C1352     1.0  0.25956  0.45956  0.87031  1.0000
  S   S187      1.0  0.30750  0.44824  0.49371  1.0000
  H   H1049     1.0  0.06458  0.47143  0.78618  1.0000
  C   C1353     1.0  0.19920  0.47440  0.95289  1.0000
  H   H1050     1.0  0.28138  0.48101  0.95712  1.0000
  H   H1051     1.0  0.98491  0.43141  0.83530  1.0000
  H   H1052     1.0  0.02285  0.41482  0.92148  1.0000
  C   C1354     1.0  0.43904  0.47775  0.67552  1.0000
  C   C1355     1.0  0.11271  0.55404  0.72611  1.0000
  H   H1053     1.0  0.02786  0.45908  0.77148  1.0000
  H   H1054     1.0  0.05302  0.39849  0.86835  1.0000
  H   H1055     1.0  0.44773  0.38921  0.52598  1.0000
  C   C1356     1.0  0.41856  0.42762  0.57156  1.0000
  H   H1056     1.0  0.43581  0.39406  0.61455  1.0000
  C   C1357     1.0  0.11227  0.56760  0.67087  1.0000
  C   C1358     1.0  0.47494  0.54273  0.74860  1.0000
  C   C1359     1.0  0.05833  0.46123  0.80006  1.0000
  C   C1360     1.0  0.37527  0.41841  0.62559  1.0000
  H   H1057     1.0  0.05245  0.45257  0.87254  1.0000
  H   H1058     1.0  0.02638  0.51637  0.72105  1.0000
  H   H1059     1.0  0.02913  0.40993  0.72905  1.0000
  H   H1060     1.0  0.03535  0.42031  0.79454  1.0000
  C   C1361     1.0  0.10791  0.55079  0.67277  1.0000
  H   H1061     1.0  0.06631  0.47574  0.84075  1.0000
  C   C1362     1.0  0.04326  0.43457  0.83600  1.0000
  C   C1363     1.0  0.98335  0.39799  0.87201  1.0000
  C   C1364     1.0  0.41798  0.39618  0.56325  1.0000
  H   H1062     1.0  0.21387  0.44584  0.93602  1.0000
  H   H1063     1.0  0.40723  0.39158  0.60612  1.0000
  H   H1064     1.0  0.47938  0.55556  0.74351  1.0000
  H   H1065     1.0  0.11216  0.57256  0.64922  1.0000
  C   C1365     1.0  0.03192  0.39886  0.84254  1.0000
  C   C1366     1.0  0.07046  0.42997  0.92333  1.0000
  H   H1066     1.0  0.24199  0.43567  0.92748  1.0000
  H   H1067     1.0  0.09466  0.40079  0.77104  1.0000
  S   S188      1.0  0.08743  0.39865  0.93947  1.0000
  C   C1367     1.0  0.99128  0.46759  0.66098  1.0000
  H   H1068     1.0  0.44347  0.49911  0.81399  1.0000
  C   C1368     1.0  0.47972  0.51803  0.75359  1.0000
  H   H1069     1.0  0.26803  0.48575  0.87045  1.0000
  C   C1369     1.0  0.08492  0.40443  0.72804  1.0000
  C   C1370     1.0  0.34587  0.40257  0.61879  1.0000
  C   C1371     1.0  0.05937  0.46364  0.83082  1.0000
  C   C1372     1.0  0.03609  0.41899  0.92159  1.0000
  C   C1373     1.0  0.27882  0.48532  0.97803  1.0000
  H   H1070     1.0  0.09563  0.58496  0.73510  1.0000
  H   H1071     1.0  0.44990  0.53998  0.75234  1.0000
  H   H1072     1.0  0.38872  0.40826  0.65344  1.0000
  P   P46       1.0  0.03276  0.41773  0.85927  1.0000
  H   H1073     1.0  0.39959  0.38976  0.49245  1.0000
  C   C1374     1.0  0.06145  0.42725  0.89607  1.0000
  C   C1375     1.0  0.01281  0.46888  0.62878  1.0000
  C   C1376     1.0  0.40576  0.46741  0.80848  1.0000
  C   C1377     1.0  0.08674  0.41579  0.70583  1.0000
  Fe  Fe94      1.0  0.10901  0.41827  0.96468  1.0000
  H   H1074     1.0  0.16324  0.44728  0.95689  1.0000
  C   C1378     1.0  0.02295  0.49301  0.79538  1.0000
  H   H1075     1.0  0.40854  0.41947  0.61372  1.0000
  S   S189      1.0  0.22361  0.39869  0.93930  1.0000
  C   C1379     1.0  0.05168  0.45041  0.84874  1.0000
  C   C1380     1.0  0.19237  0.39715  0.94858  1.0000
  H   H1076     1.0  0.07856  0.41253  0.68595  1.0000
  C   C1381     1.0  0.43554  0.47975  0.77993  1.0000
  Fe  Fe95      1.0  0.28681  0.41945  0.96408  1.0000
  P   P47       1.0  0.45504  0.48729  0.76273  1.0000
  C   C1382     1.0  0.46314  0.50922  0.75965  1.0000
  C   C1383     1.0  0.46778  0.47940  0.78402  1.0000
  C   C1384     1.0  0.46295  0.46239  0.78461  1.0000
  H   H1077     1.0  0.10410  0.53087  0.70171  1.0000
  H   H1078     1.0  0.25000  0.43363  0.87656  1.0000
  H   H1079     1.0  0.35091  0.39961  0.69747  1.0000
  S   S190      1.0  0.45760  0.39810  0.82313  1.0000
  H   H1080     1.0  0.16811  0.39595  0.95752  1.0000
  C   C1385     1.0  0.22726  0.48267  0.97337  1.0000
  C   C1386     1.0  0.45240  0.51726  0.75888  1.0000
  C   C1387     1.0  0.45237  0.48004  0.72459  1.0000
  C   C1388     1.0  0.44055  0.48231  0.70561  1.0000
  H   H1081     1.0  0.25849  0.49202  0.64344  1.0000
  C   C1389     1.0  0.14105  0.40703  0.84331  1.0000
  H   H1082     1.0  0.42422  0.45811  0.75104  1.0000
  H   H1083     1.0  0.45188  0.45412  0.77215  1.0000
  C   C1390     1.0  0.24769  0.44673  0.91537  1.0000
  S   S191      1.0  0.12314  0.40239  0.97223  1.0000
  C   C1391     1.0  0.98926  0.42319  0.84668  1.0000
  H   H1084     1.0  0.27905  0.44303  0.53393  1.0000
  H   H1085     1.0  0.45714  0.39114  0.64751  1.0000
  H   H1086     1.0  0.43929  0.51060  0.76106  1.0000
  H   H1087     1.0  0.43245  0.48756  0.71407  1.0000
  C   C1392     1.0  0.15271  0.43759  0.50465  1.0000
  H   H1088     1.0  0.07032  0.39705  0.50529  1.0000
  H   H1089     1.0  0.18892  0.45130  0.92821  1.0000
  C   C1393     1.0  0.01561  0.47137  0.74616  1.0000
  H   H1090     1.0  0.05345  0.57042  0.78619  1.0000
  H   H1091     1.0  0.01434  0.58086  0.70727  1.0000
  C   C1394     1.0  0.04957  0.44561  0.78717  1.0000
  C   C1395     1.0  0.00015  0.50619  0.70865  1.0000
  C   C1396     1.0  0.00314  0.47863  0.68140  1.0000
  C   C1397     1.0  0.01981  0.48509  0.67479  1.0000
  C   C1398     1.0  0.02457  0.48033  0.64846  1.0000
  H   H1092     1.0  0.11840  0.44889  0.73813  1.0000
  H   H1093     1.0  0.41693  0.48852  0.83818  1.0000
  C   C1399     1.0  0.10944  0.43636  0.73491  1.0000
  H   H1094     1.0  0.06940  0.42926  0.97085  1.0000
  H   H1095     1.0  0.17553  0.42928  0.97884  1.0000
  H   H1096     1.0  0.29827  0.39806  0.81367  1.0000
  C   C1400     1.0  0.01864  0.53484  0.70579  1.0000
  C   C1401     1.0  0.01598  0.51885  0.71287  1.0000
  H   H1097     1.0  0.13143  0.43859  0.52428  1.0000
  H   H1098     1.0  0.01029  0.39485  0.81361  1.0000
  C   C1402     1.0  0.46111  0.46861  0.68290  1.0000
  C   C1403     1.0  0.11655  0.57773  0.69673  1.0000
  H   H1099     1.0  0.10405  0.54288  0.65291  1.0000
  C   C1404     1.0  0.00014  0.40113  0.87368  1.0000
  C   C1405     1.0  0.04416  0.42158  0.89493  1.0000
  H   H1100     1.0  0.26333  0.45856  0.84813  1.0000
  C   C1406     1.0  0.03530  0.57976  0.77379  1.0000
  H   H1101     1.0  0.01257  0.46263  0.72757  1.0000
  H   H1102     1.0  0.03253  0.57374  0.75193  1.0000
  H   H1103     1.0  0.02920  0.49380  0.68992  1.0000
  H   H1104     1.0  0.03745  0.48541  0.64348  1.0000
  H   H1105     1.0  0.09985  0.44050  0.69250  1.0000
  H   H1106     1.0  0.15018  0.41931  0.84856  1.0000
  H   H1107     1.0  0.21289  0.49705  0.97753  1.0000
  H   H1108     1.0  0.19233  0.38888  0.96582  1.0000
  C   C1407     1.0  0.19955  0.46002  0.94111  1.0000
  C   C1408     1.0  0.21308  0.48575  0.96890  1.0000
  H   H1109     1.0  0.03088  0.54455  0.70898  1.0000
  C   C1409     1.0  0.35551  0.39461  0.71566  1.0000
  H   H1110     1.0  0.39407  0.46278  0.81894  1.0000
  C   C1410     1.0  0.44919  0.47076  0.66421  1.0000
  H   H1111     1.0  0.34917  0.40862  0.74837  1.0000
  H   H1112     1.0  0.42884  0.43244  0.52874  1.0000
  C   C1411     1.0  0.35578  0.50528  0.66683  1.0000
  C   C1412     1.0  0.36326  0.50744  0.63979  1.0000
  C   C1413     1.0  0.35367  0.50092  0.61353  1.0000
  C   C1414     1.0  0.33660  0.49216  0.61430  1.0000
  C   C1415     1.0  0.32903  0.48970  0.64148  1.0000
  C   C1416     1.0  0.33877  0.49636  0.66774  1.0000
  P   P48       1.0  0.30705  0.47827  0.64324  1.0000
  C   C1417     1.0  0.29689  0.49186  0.64937  1.0000
  C   C1418     1.0  0.29822  0.46690  0.60870  1.0000
  C   C1419     1.0  0.29323  0.44987  0.60640  1.0000
  C   C1420     1.0  0.28602  0.44129  0.57968  1.0000
  C   C1421     1.0  0.28398  0.44963  0.55497  1.0000
  C   C1422     1.0  0.28905  0.46657  0.55697  1.0000
  C   C1423     1.0  0.29600  0.47517  0.58379  1.0000
  C   C1424     1.0  0.30581  0.50810  0.65979  1.0000
  C   C1425     1.0  0.29769  0.51842  0.66433  1.0000
  C   C1426     1.0  0.28065  0.51263  0.65848  1.0000
  C   C1427     1.0  0.27169  0.49650  0.64805  1.0000
  C   C1428     1.0  0.27977  0.48615  0.64349  1.0000
  C   C1429     1.0  0.30393  0.46438  0.67324  1.0000
  C   C1430     1.0  0.29207  0.46253  0.69402  1.0000
  C   C1431     1.0  0.28997  0.45173  0.71712  1.0000
  C   C1432     1.0  0.29966  0.44272  0.71958  1.0000
  C   C1433     1.0  0.31154  0.44459  0.69911  1.0000
  C   C1434     1.0  0.31367  0.45538  0.67607  1.0000
  H   H1113     1.0  0.36332  0.51015  0.68721  1.0000
  H   H1114     1.0  0.37653  0.51398  0.63938  1.0000
  H   H1115     1.0  0.35951  0.50245  0.59260  1.0000
  H   H1116     1.0  0.32952  0.48704  0.59370  1.0000
  H   H1117     1.0  0.33326  0.49449  0.68902  1.0000
  H   H1118     1.0  0.29506  0.44312  0.62485  1.0000
  H   H1119     1.0  0.28255  0.42822  0.57778  1.0000
  H   H1120     1.0  0.15639  0.39578  0.86166  1.0000
  H   H1121     1.0  0.28790  0.47302  0.53746  1.0000
  H   H1122     1.0  0.29993  0.48832  0.58494  1.0000
  H   H1123     1.0  0.31901  0.51292  0.66434  1.0000
  H   H1124     1.0  0.30466  0.53093  0.67236  1.0000
  H   H1125     1.0  0.27440  0.52065  0.66199  1.0000
  H   H1126     1.0  0.27266  0.47367  0.63540  1.0000
  H   H1127     1.0  0.28451  0.46943  0.69267  1.0000
  H   H1128     1.0  0.28093  0.45041  0.73330  1.0000
  H   H1129     1.0  0.29812  0.43443  0.73757  1.0000
  H   H1130     1.0  0.31926  0.43780  0.70119  1.0000
  H   H1131     1.0  0.32292  0.45669  0.66032  1.0000
  H   H1132     1.0  0.02564  0.50129  0.81456  1.0000
  C   C1435     1.0  0.36030  0.39364  0.76871  1.0000
  H   H1133     1.0  0.99698  0.57729  0.80266  1.0000
  H   H1134     1.0  0.12096  0.57852  0.74443  1.0000
  C   C1436     1.0  0.26232  0.47486  0.88301  1.0000
  C   C1437     1.0  0.25793  0.47613  0.91202  1.0000
  H   H1135     1.0  0.00776  0.55071  0.68852  1.0000
  H   H1136     1.0  0.46869  0.44272  0.80142  1.0000
  C   C1438     1.0  0.01929  0.39015  0.82100  1.0000
  H   H1137     1.0  0.99906  0.41277  0.78486  1.0000
  H   H1138     1.0  0.33782  0.45101  0.98413  1.0000
  C   C1439     1.0  0.21367  0.45690  0.94565  1.0000
  H   H1139     1.0  0.42859  0.40502  0.52133  1.0000
  C   C1440     1.0  0.00608  0.42645  0.84848  1.0000
  C   C1441     1.0  0.09580  0.40912  0.75340  1.0000
  H   H1140     1.0  0.18826  0.47683  0.94926  1.0000
  S   S192      1.0  0.09745  0.42917  0.48964  1.0000
  C   C1442     1.0  0.47236  0.45586  0.80128  1.0000
  C   C1443     1.0  0.22753  0.46801  0.96232  1.0000
  C   C1444     1.0  0.14449  0.39357  0.85082  1.0000
  H   H1141     1.0  0.98706  0.45364  0.61975  1.0000
  C   C1445     1.0  0.03079  0.39861  0.73037  1.0000
  C   C1446     1.0  0.04323  0.39229  0.85169  1.0000
  H   H1142     1.0  0.03893  0.41970  0.96942  1.0000
  C   C1447     1.0  0.41714  0.45582  0.98255  1.0000
  H   H1143     1.0  0.33386  0.40157  0.61023  1.0000
  C   C1448     1.0  0.04713  0.57793  0.79310  1.0000
  H   H1144     1.0  0.44287  0.47109  0.97891  1.0000
  C   C1449     1.0  0.05096  0.58598  0.82102  1.0000
  H   H1145     1.0  0.98672  0.58366  0.64545  1.0000
  H   H1146     1.0  0.19222  0.40811  0.48769  1.0000
  Fe  Fe96      1.0  0.47792  0.40489  0.79085  1.0000
  H   H1147     1.0  0.98052  0.44979  0.71454  1.0000
  H   H1148     1.0  0.09038  0.58413  0.66257  1.0000
  H   H1149     1.0  0.06026  0.58468  0.83591  1.0000
  C   C1450     1.0  0.98923  0.58805  0.62318  1.0000
  C   C1451     1.0  0.14001  0.45588  0.48980  1.0000
  H   H1150     1.0  0.13025  0.46013  0.49190  1.0000
  C   C1452     1.0  0.11359  0.38883  0.82508  1.0000
  H   H1151     1.0  0.22379  0.45749  0.49195  1.0000
  H   H1152     1.0  0.19937  0.46413  0.48629  1.0000
  Fe  Fe97      1.0  0.11155  0.70083  0.41468  1.0000
  S   S193      1.0  0.09810  0.70086  0.45601  1.0000
  S   S194      1.0  0.09534  0.68170  0.37917  1.0000
  Fe  Fe98      1.0  0.14238  0.73125  0.43780  1.0000
  H   H1153     1.0  0.46523  0.59158  0.41220  1.0000
  S   S195      1.0  0.16661  0.74989  0.42040  1.0000
  C   C1453     1.0  0.06008  0.68962  0.29783  1.0000
  S   S196      1.0  0.12171  0.69223  0.03352  1.0000
  Fe  Fe99      1.0  0.10812  0.72808  0.45201  1.0000
  S   S197      1.0  0.09300  0.74239  0.46286  1.0000
  S   S198      1.0  0.13503  0.70381  0.44069  1.0000
  S   S199      1.0  0.11966  0.72789  0.40905  1.0000
  S   S200      1.0  0.06113  0.76751  0.35695  1.0000
  S   S201      1.0  0.02082  0.77629  0.37453  1.0000
  C   C1454     1.0  0.06950  0.77558  0.02395  1.0000
  H   H1154     1.0  0.11441  0.63056  0.32431  1.0000
  Fe  Fe100     1.0  0.08167  0.63004  0.22682  1.0000
  S   S202      1.0  0.06704  0.64079  0.19911  1.0000
  S   S203      1.0  0.10270  0.64607  0.25985  1.0000
  Fe  Fe101     1.0  0.04536  0.61745  0.20781  1.0000
  H   H1155     1.0  0.02933  0.65136  0.29951  1.0000
  Fe  Fe102     1.0  0.07128  0.62718  0.16018  1.0000
  S   S204      1.0  0.07272  0.63510  0.11150  1.0000
  Fe  Fe103     1.0  0.12020  0.70261  0.98733  1.0000
  S   S205      1.0  0.08723  0.61745  0.18726  1.0000
  S   S206      1.0  0.13108  0.73284  0.48062  1.0000
  C   C1455     1.0  0.18245  0.76920  0.43293  1.0000
  C   C1456     1.0  0.19520  0.77751  0.41412  1.0000
  C   C1457     1.0  0.18282  0.77633  0.46094  1.0000
  H   H1156     1.0  0.04323  0.64603  0.35978  1.0000
  C   C1458     1.0  0.22853  0.75565  0.43500  1.0000
  C   C1459     1.0  0.10720  0.67706  0.05535  1.0000
  C   C1460     1.0  0.11169  0.67571  0.08527  1.0000
  C   C1461     1.0  0.10110  0.66337  0.10300  1.0000
  C   C1462     1.0  0.08599  0.65187  0.09093  1.0000
  C   C1463     1.0  0.08137  0.65334  0.06115  1.0000
  C   C1464     1.0  0.09179  0.66591  0.04357  1.0000
  H   H1157     1.0  0.12350  0.68427  0.09476  1.0000
  H   H1158     1.0  0.10466  0.66263  0.12594  1.0000
  H   H1159     1.0  0.06970  0.64458  0.05148  1.0000
  H   H1160     1.0  0.08811  0.66667  0.02067  1.0000
  C   C1465     1.0  0.09796  0.67270  0.34532  1.0000
  C   C1466     1.0  0.11348  0.67542  0.33518  1.0000
  C   C1467     1.0  0.11475  0.66747  0.30868  1.0000
  C   C1468     1.0  0.10056  0.65678  0.29194  1.0000
  C   C1469     1.0  0.08509  0.65439  0.30177  1.0000
  C   C1470     1.0  0.08382  0.66234  0.32817  1.0000
  H   H1161     1.0  0.12447  0.68340  0.34798  1.0000
  H   H1162     1.0  0.12679  0.66940  0.30131  1.0000
  H   H1163     1.0  0.07413  0.64618  0.28920  1.0000
  H   H1164     1.0  0.07177  0.66033  0.33547  1.0000
  C   C1471     1.0  0.08521  0.75054  0.43356  1.0000
  C   C1472     1.0  0.08928  0.74935  0.40434  1.0000
  C   C1473     1.0  0.08210  0.75498  0.38117  1.0000
  C   C1474     1.0  0.07097  0.76202  0.38701  1.0000
  C   C1475     1.0  0.06743  0.76390  0.41635  1.0000
  C   C1476     1.0  0.07450  0.75809  0.43957  1.0000
  H   H1165     1.0  0.09759  0.74370  0.39943  1.0000
  H   H1166     1.0  0.08502  0.75371  0.35862  1.0000
  H   H1167     1.0  0.05890  0.76938  0.42105  1.0000
  H   H1168     1.0  0.07137  0.75914  0.46215  1.0000
  C   C1477     1.0  0.05074  0.66412  0.39523  1.0000
  H   H1169     1.0  0.02463  0.68518  0.02788  1.0000
  C   C1478     1.0  0.18836  0.72347  0.41302  1.0000
  H   H1170     1.0  0.99710  0.75086  0.05811  1.0000
  C   C1479     1.0  0.09646  0.73748  0.31447  1.0000
  C   C1480     1.0  0.12305  0.73666  0.32618  1.0000
  H   H1171     1.0  0.05033  0.62966  0.31777  1.0000
  C   C1481     1.0  0.13760  0.64954  0.06369  1.0000
  H   H1172     1.0  0.19955  0.69907  0.40667  1.0000
  H   H1173     1.0  0.02732  0.71097  0.38770  1.0000
  P   P49       1.0  0.06644  0.71003  0.31399  1.0000
  C   C1482     1.0  0.14707  0.62431  0.10490  1.0000
  C   C1483     1.0  0.99540  0.76967  0.46581  1.0000
  H   H1174     1.0  0.04594  0.67196  0.38374  1.0000
  C   C1484     1.0  0.04531  0.75765  0.99381  1.0000
  H   H1175     1.0  0.16712  0.61176  0.05393  1.0000
  C   C1485     1.0  0.05150  0.60561  0.40677  1.0000
  C   C1486     1.0  0.09582  0.60668  0.11956  1.0000
  C   C1487     1.0  0.01113  0.60085  0.30805  1.0000
  P   P50       1.0  0.20183  0.72672  0.44603  1.0000
  H   H1176     1.0  0.07121  0.71364  0.99232  1.0000
  H   H1177     1.0  0.47561  0.64618  0.46790  1.0000
  C   C1488     1.0  0.21499  0.71591  0.44173  1.0000
  H   H1178     1.0  0.03552  0.70881  0.33697  1.0000
  C   C1489     1.0  0.11539  0.71968  0.32776  1.0000
  C   C1490     1.0  0.13297  0.65650  0.13793  1.0000
  C   C1491     1.0  0.45706  0.61654  0.23301  1.0000
  H   H1179     1.0  0.07977  0.69639  0.26747  1.0000
  C   C1492     1.0  0.05276  0.71657  0.26100  1.0000
  C   C1493     1.0  0.08297  0.59179  0.12529  1.0000
  H   H1180     1.0  0.08936  0.74463  0.30982  1.0000
  H   H1181     1.0  0.02726  0.61873  0.27984  1.0000
  H   H1182     1.0  0.05949  0.73881  0.32601  1.0000
  H   H1183     1.0  0.05417  0.70620  0.25091  1.0000
  C   C1494     1.0  0.00936  0.59416  0.33606  1.0000
  C   C1495     1.0  0.05299  0.72383  0.98872  1.0000
  C   C1496     1.0  0.04042  0.66122  0.29286  1.0000
  H   H1184     1.0  0.07020  0.66893  0.24350  1.0000
  C   C1497     1.0  0.45321  0.60766  0.16997  1.0000
  C   C1498     1.0  0.99102  0.60243  0.14450  1.0000
  S   S207      1.0  0.04843  0.60454  0.16732  1.0000
  C   C1499     1.0  0.11971  0.65082  0.02258  1.0000
  H   H1185     1.0  0.13627  0.74290  0.33055  1.0000
  C   C1500     1.0  0.04570  0.72519  0.24370  1.0000
  C   C1501     1.0  0.40201  0.61621  0.21474  1.0000
  H   H1186     1.0  0.07318  0.71148  0.42350  1.0000
  H   H1187     1.0  0.06984  0.63736  0.43550  1.0000
  C   C1502     1.0  0.11358  0.74556  0.31942  1.0000
  H   H1188     1.0  0.08164  0.70922  0.37326  1.0000
  P   P51       1.0  0.05460  0.62056  0.37865  1.0000
  C   C1503     1.0  0.22105  0.69460  0.41779  1.0000
  H   H1189     1.0  0.02265  0.75536  0.03335  1.0000
  H   H1190     1.0  0.21773  0.68457  0.40155  1.0000
  H   H1191     1.0  0.15901  0.71588  0.34231  1.0000
  S   S208      1.0  0.02090  0.61846  0.21761  1.0000
  H   H1192     1.0  0.14124  0.61543  0.05910  1.0000
  H   H1193     1.0  0.13084  0.66658  0.21028  1.0000
  C   C1504     1.0  0.15879  0.62802  0.12892  1.0000
  H   H1194     1.0  0.18242  0.62878  0.14445  1.0000
  C   C1505     1.0  0.03740  0.61296  0.35130  1.0000
  C   C1506     1.0  0.05593  0.63943  0.39615  1.0000
  H   H1195     1.0  0.06015  0.68052  0.43357  1.0000
  H   H1196     1.0  0.23303  0.73038  0.47622  1.0000
  C   C1507     1.0  0.10677  0.63728  0.03289  1.0000
  C   C1508     1.0  0.13092  0.65928  0.19092  1.0000
  C   C1509     1.0  0.10346  0.63718  0.36115  1.0000
  C   C1510     1.0  0.08878  0.63502  0.37417  1.0000
  C   C1511     1.0  0.16479  0.61628  0.07489  1.0000
  C   C1512     1.0  0.06337  0.67115  0.26110  1.0000
  C   C1513     1.0  0.04160  0.60507  0.43045  1.0000
  H   H1197     1.0  0.41292  0.60121  0.23535  1.0000
  H   H1198     1.0  0.17310  0.73115  0.46609  1.0000
  H   H1199     1.0  0.19508  0.77218  0.39239  1.0000
  C   C1514     1.0  0.45875  0.59617  0.12468  1.0000
  H   H1200     1.0  0.09876  0.61974  0.06650  1.0000
  C   C1515     1.0  0.02591  0.61362  0.30163  1.0000
  C   C1516     1.0  0.03251  0.69595  0.01678  1.0000
  C   C1517     1.0  0.09831  0.71162  0.32282  1.0000
  C   C1518     1.0  0.05574  0.73489  0.30303  1.0000
  H   H1201     1.0  0.07904  0.77719  0.04108  1.0000
  C   C1519     1.0  0.08868  0.72041  0.31617  1.0000
  C   C1520     1.0  0.04865  0.74346  0.28574  1.0000
  C   C1521     1.0  0.06483  0.71048  0.40456  1.0000
  C   C1522     1.0  0.17369  0.70927  0.40959  1.0000
  C   C1523     1.0  0.99696  0.74255  0.04024  1.0000
  C   C1524     1.0  0.98746  0.77768  0.01865  1.0000
  Fe  Fe104     1.0  0.06403  0.59562  0.19670  1.0000
  C   C1525     1.0  0.10310  0.62834  0.33514  1.0000
  H   H1202     1.0  0.24355  0.69279  0.43337  1.0000
  C   C1526     1.0  0.45477  0.62814  0.25153  1.0000
  C   C1527     1.0  0.13355  0.66614  0.16304  1.0000
  S   S209      1.0  0.05962  0.60753  0.23820  1.0000
  C   C1528     1.0  0.12800  0.64284  0.19380  1.0000
  C   C1529     1.0  0.04912  0.65845  0.26990  1.0000
  H   H1203     1.0  0.24920  0.77798  0.42608  1.0000
  H   H1204     1.0  0.04625  0.71264  0.43109  1.0000
  H   H1205     1.0  0.15177  0.69568  0.38187  1.0000
  H   H1206     1.0  0.39200  0.61274  0.22956  1.0000
  C   C1530     1.0  0.11143  0.60734  0.11351  1.0000
  C   C1531     1.0  0.06555  0.65924  0.43774  1.0000
  C   C1532     1.0  0.06420  0.64457  0.42420  1.0000
  C   C1533     1.0  0.06967  0.70941  0.37586  1.0000
  C   C1534     1.0  0.13510  0.65697  0.03801  1.0000
  S   S210      1.0  0.99763  0.78374  0.30617  1.0000
  C   C1535     1.0  0.00176  0.78799  0.00478  1.0000
  C   C1536     1.0  0.40305  0.62719  0.19245  1.0000
  H   H1207     1.0  0.12469  0.62033  0.17133  1.0000
  C   C1537     1.0  0.16321  0.70651  0.38409  1.0000
  C   C1538     1.0  0.47270  0.60462  0.41269  1.0000
  H   H1208     1.0  0.14475  0.76534  0.38494  1.0000
  H   H1209     1.0  0.05794  0.74963  0.02823  1.0000
  C   C1539     1.0  0.00994  0.59226  0.12383  1.0000
  C   C1540     1.0  0.42782  0.62511  0.17640  1.0000
  C   C1541     1.0  0.10913  0.62995  0.05882  1.0000
  C   C1542     1.0  0.05879  0.66900  0.42329  1.0000
  C   C1543     1.0  0.04929  0.64940  0.38167  1.0000
  C   C1544     1.0  0.12736  0.63315  0.16874  1.0000
  H   H1210     1.0  0.04694  0.75378  0.29558  1.0000
  H   H1211     1.0  0.13461  0.66204  0.11657  1.0000
  C   C1545     1.0  0.01140  0.74510  0.02597  1.0000
  H   H1212     1.0  0.15674  0.63260  0.14999  1.0000
  H   H1213     1.0  0.14960  0.65456  0.07549  1.0000
  H   H1214     1.0  0.12259  0.71271  0.33351  1.0000
  H   H1215     1.0  0.03880  0.67874  0.32416  1.0000
  C   C1546     1.0  0.12966  0.63986  0.14052  1.0000
  H   H1216     1.0  0.07219  0.66327  0.45914  1.0000
  H   H1217     1.0  0.13559  0.67884  0.16070  1.0000
  C   C1547     1.0  0.17641  0.62001  0.09887  1.0000
  H   H1218     1.0  0.17023  0.70037  0.42674  1.0000
  H   H1219     1.0  0.04174  0.72140  0.22070  1.0000
  H   H1220     1.0  0.98920  0.61154  0.15819  1.0000
  H   H1221     1.0  0.44366  0.63033  0.24925  1.0000
  H   H1222     1.0  0.11507  0.64620  0.37062  1.0000
  C   C1548     1.0  0.42687  0.61408  0.19876  1.0000
  C   C1549     1.0  0.17341  0.62587  0.12586  1.0000
  C   C1550     1.0  0.07339  0.61479  0.33550  1.0000
  C   C1551     1.0  0.04963  0.71112  0.40884  1.0000
  C   C1552     1.0  0.04379  0.70915  0.35564  1.0000
  C   C1553     1.0  0.21507  0.74814  0.45267  1.0000
  C   C1554     1.0  0.05937  0.70920  0.35111  1.0000
  H   H1223     1.0  0.04482  0.64650  0.25877  1.0000
  C   C1555     1.0  0.00428  0.60019  0.22606  1.0000
  C   C1556     1.0  0.41594  0.63163  0.17331  1.0000
  H   H1224     1.0  0.01436  0.70594  0.01393  1.0000
  H   H1225     1.0  0.03792  0.74513  0.24282  1.0000
  H   H1226     1.0  0.11945  0.75873  0.31843  1.0000
  C   C1557     1.0  0.04585  0.67676  0.30679  1.0000
  H   H1227     1.0  0.08938  0.64239  0.39378  1.0000
  C   C1558     1.0  0.06883  0.68667  0.27494  1.0000
  C   C1559     1.0  0.05774  0.72129  0.29094  1.0000
  H   H1228     1.0  0.09251  0.69853  0.32498  1.0000
  C   C1560     1.0  0.15017  0.61840  0.07787  1.0000
  C   C1561     1.0  0.04358  0.73858  0.25610  1.0000
  C   C1562     1.0  0.03903  0.71026  0.38440  1.0000
  H   H1229     1.0  0.46542  0.64654  0.28677  1.0000
  H   H1230     1.0  0.98721  0.61168  0.22977  1.0000
  P   P52       1.0  0.44208  0.60551  0.20328  1.0000
  H   H1231     1.0  0.01744  0.61392  0.15222  1.0000
  C   C1563     1.0  0.07359  0.62387  0.36133  1.0000
  H   H1232     1.0  0.02076  0.59470  0.37908  1.0000
  C   C1564     1.0  0.03897  0.61973  0.32316  1.0000
  H   H1233     1.0  0.12565  0.63750  0.21540  1.0000
  H   H1234     1.0  0.99667  0.76534  0.44395  1.0000
  P   P53       1.0  0.12810  0.62695  0.10825  1.0000
  C   C1565     1.0  0.12460  0.63604  0.07450  1.0000
  C   C1566     1.0  0.47178  0.61425  0.23650  1.0000
  H   H1235     1.0  0.39384  0.63224  0.18999  1.0000
  H   H1236     1.0  0.12533  0.77141  0.47064  1.0000
  C   C1567     1.0  0.41387  0.60968  0.21792  1.0000
  H   H1237     1.0  0.06191  0.60603  0.32528  1.0000
  C   C1568     1.0  0.46569  0.62286  0.16400  1.0000
  H   H1238     1.0  0.41673  0.64013  0.15600  1.0000
  C   C1569     1.0  0.98088  0.77395  0.20574  1.0000
  C   C1570     1.0  0.99617  0.72156  0.99310  1.0000
  H   H1239     1.0  0.14493  0.66781  0.03041  1.0000
  C   C1571     1.0  0.04851  0.69801  0.01080  1.0000
  H   H1240     1.0  0.12100  0.78749  0.34913  1.0000
  H   H1241     1.0  0.09364  0.61776  0.12016  1.0000
  C   C1572     1.0  0.11404  0.59284  0.11366  1.0000
  H   H1242     1.0  0.09471  0.63284  0.02136  1.0000
  Fe  Fe105     1.0  0.04756  0.78354  0.36610  1.0000
  C   C1573     1.0  0.99183  0.77983  0.26721  1.0000
  H   H1243     1.0  0.05307  0.68888  0.01716  1.0000
  C   C1574     1.0  0.23626  0.78121  0.46304  1.0000
  H   H1244     1.0  0.46874  0.63330  0.17920  1.0000
  C   C1575     1.0  0.05756  0.75991  0.01639  1.0000
  H   H1245     1.0  0.00102  0.59613  0.29130  1.0000
  H   H1246     1.0  0.12598  0.59293  0.10964  1.0000
  H   H1247     1.0  0.15180  0.77933  0.33724  1.0000
  C   C1576     1.0  0.08807  0.61716  0.32231  1.0000
  C   C1577     1.0  0.19242  0.73480  0.39041  1.0000
  C   C1578     1.0  0.16729  0.71789  0.36180  1.0000
  H   H1248     1.0  0.43764  0.62871  0.16124  1.0000
  H   H1249     1.0  0.46416  0.60784  0.36873  1.0000
  H   H1250     1.0  0.08781  0.61069  0.30165  1.0000
  C   C1579     1.0  0.03925  0.59357  0.45234  1.0000
  C   C1580     1.0  0.46711  0.63740  0.27290  1.0000
  C   C1581     1.0  0.21235  0.75740  0.47562  1.0000
  C   C1582     1.0  0.23901  0.77215  0.44007  1.0000
  C   C1583     1.0  0.98889  0.60039  0.23159  1.0000
  C   C1584     1.0  0.18190  0.73201  0.36493  1.0000
  C   C1585     1.0  0.01113  0.73454  0.00237  1.0000
  H   H1251     1.0  0.98509  0.78089  0.04062  1.0000
  C   C1586     1.0  0.44976  0.59432  0.15002  1.0000
  H   H1252     1.0  0.20338  0.74603  0.39264  1.0000
  C   C1587     1.0  0.05881  0.59434  0.40509  1.0000
  H   H1253     1.0  0.12277  0.77910  0.99677  1.0000
  H   H1254     1.0  0.18489  0.74101  0.34797  1.0000
  C   C1588     1.0  0.02244  0.60015  0.35764  1.0000
  C   C1589     1.0  0.02671  0.70781  0.00867  1.0000
  H   H1255     1.0  0.03568  0.61352  0.43199  1.0000
  H   H1256     1.0  0.02244  0.59355  0.12088  1.0000
  C   C1590     1.0  0.47119  0.61132  0.11901  1.0000
  C   C1591     1.0  0.05874  0.71195  0.99680  1.0000
  C   C1592     1.0  0.23559  0.69922  0.43572  1.0000
  H   H1257     1.0  0.05143  0.78699  0.25019  1.0000
  H   H1258     1.0  0.23086  0.74877  0.41716  1.0000
  C   C1593     1.0  0.99732  0.78427  0.21477  1.0000
  C   C1594     1.0  0.21075  0.70288  0.42077  1.0000
  H   H1259     1.0  0.17318  0.77017  0.47574  1.0000
  C   C1595     1.0  0.15125  0.77854  0.38478  1.0000
  C   C1596     1.0  0.47456  0.62468  0.13854  1.0000
  C   C1597     1.0  0.03689  0.72186  0.99436  1.0000
  H   H1260     1.0  0.18776  0.61839  0.09652  1.0000
  H   H1261     1.0  0.11766  0.65695  0.00324  1.0000
  H   H1262     1.0  0.06639  0.59440  0.38697  1.0000
  H   H1263     1.0  0.03170  0.59327  0.47068  1.0000
  H   H1264     1.0  0.47379  0.60541  0.22235  1.0000
  C   C1598     1.0  0.00711  0.60381  0.14124  1.0000
  C   C1599     1.0  0.47208  0.61378  0.38821  1.0000
  Fe  Fe106     1.0  0.12177  0.70524  0.48180  1.0000
  C   C1600     1.0  0.13027  0.78467  0.47106  1.0000
  C   C1601     1.0  0.98179  0.71904  0.00749  1.0000
  C   C1602     1.0  0.98221  0.72948  0.03115  1.0000
  C   C1603     1.0  0.00566  0.78568  0.47557  1.0000
  H   H1265     1.0  0.15359  0.78132  0.43228  1.0000
  C   C1604     1.0  0.00280  0.78704  0.24515  1.0000
  H   H1266     1.0  0.25112  0.71571  0.47064  1.0000
  C   C1605     1.0  0.15525  0.78642  0.35800  1.0000
  C   C1606     1.0  0.22960  0.72045  0.45973  1.0000
  H   H1267     1.0  0.47078  0.67095  0.47912  1.0000
  H   H1268     1.0  0.47841  0.61271  0.09971  1.0000
  C   C1607     1.0  0.05668  0.78700  0.98757  1.0000
  H   H1269     1.0  0.11033  0.78507  0.44299  1.0000
  H   H1270     1.0  0.07098  0.59142  0.13015  1.0000
  C   C1608     1.0  0.23986  0.71214  0.45669  1.0000
  C   C1609     1.0  0.15618  0.78761  0.41161  1.0000
  C   C1610     1.0  0.18910  0.71886  0.47704  1.0000
  C   C1611     1.0  0.17568  0.72303  0.48107  1.0000
  C   C1612     1.0  0.22303  0.77381  0.48090  1.0000
  Fe  Fe107     1.0  0.11046  0.69676  0.92011  1.0000
  S   S211      1.0  0.09675  0.69818  0.96050  1.0000
  S   S212      1.0  0.09649  0.67424  0.88856  1.0000
  Fe  Fe108     1.0  0.14166  0.72746  0.94197  1.0000
  S   S213      1.0  0.04847  0.60207  0.65560  1.0000
  S   S214      1.0  0.16626  0.74596  0.92503  1.0000
  C   C1613     1.0  0.98724  0.76798  0.72227  1.0000
  S   S215      1.0  0.12340  0.69368  0.52671  1.0000
  Fe  Fe109     1.0  0.10749  0.72533  0.95425  1.0000
  S   S216      1.0  0.09454  0.74201  0.96364  1.0000
  S   S217      1.0  0.13374  0.70012  0.94738  1.0000
  S   S218      1.0  0.11914  0.72372  0.91203  1.0000
  S   S219      1.0  0.06537  0.77124  0.85984  1.0000
  H   H1271     1.0  0.99637  0.76655  0.93960  1.0000
  H   H1272     1.0  0.14564  0.60188  0.64939  1.0000
  C   C1614     1.0  0.00999  0.74077  0.90157  1.0000
  Fe  Fe110     1.0  0.07511  0.63420  0.71755  1.0000
  S   S220      1.0  0.05951  0.63961  0.68194  1.0000
  S   S221      1.0  0.09131  0.65581  0.74907  1.0000
  Fe  Fe111     1.0  0.04005  0.61477  0.69022  1.0000
  C   C1615     1.0  0.11503  0.60797  0.72430  1.0000
  Fe  Fe112     1.0  0.06928  0.62686  0.64961  1.0000
  S   S222      1.0  0.07293  0.63557  0.60133  1.0000
  S   S223      1.0  0.05489  0.61026  0.72789  1.0000
  S   S224      1.0  0.08606  0.62254  0.68473  1.0000
  S   S225      1.0  0.01346  0.61188  0.69232  1.0000
  C   C1616     1.0  0.18257  0.76483  0.93845  1.0000
  H   H1273     1.0  0.01798  0.77503  0.77672  1.0000
  C   C1617     1.0  0.16544  0.71672  0.50443  1.0000
  C   C1618     1.0  0.18377  0.77113  0.96749  1.0000
  C   C1619     1.0  0.03102  0.59776  0.81028  1.0000
  H   H1274     1.0  0.98163  0.77548  0.90357  1.0000
  H   H1275     1.0  0.19252  0.62584  0.69748  1.0000
  C   C1620     1.0  0.10884  0.67784  0.54743  1.0000
  C   C1621     1.0  0.11320  0.67569  0.57704  1.0000
  C   C1622     1.0  0.10232  0.66317  0.59412  1.0000
  C   C1623     1.0  0.08691  0.65238  0.58172  1.0000
  C   C1624     1.0  0.08249  0.65461  0.55221  1.0000
  C   C1625     1.0  0.09328  0.66727  0.53527  1.0000
  H   H1276     1.0  0.12515  0.68377  0.58683  1.0000
  H   H1277     1.0  0.10600  0.66168  0.61668  1.0000
  H   H1278     1.0  0.07065  0.64639  0.54225  1.0000
  H   H1279     1.0  0.08965  0.66870  0.51266  1.0000
  C   C1626     1.0  0.09537  0.66945  0.84967  1.0000
  C   C1627     1.0  0.10399  0.68100  0.82931  1.0000
  C   C1628     1.0  0.10253  0.67660  0.79874  1.0000
  C   C1629     1.0  0.09237  0.66064  0.78796  1.0000
  C   C1630     1.0  0.08383  0.64905  0.80835  1.0000
  C   C1631     1.0  0.08537  0.65343  0.83892  1.0000
  H   H1280     1.0  0.11187  0.69328  0.83722  1.0000
  H   H1281     1.0  0.10941  0.68565  0.78338  1.0000
  H   H1282     1.0  0.07633  0.63663  0.80074  1.0000
  H   H1283     1.0  0.07889  0.64428  0.85445  1.0000
  C   C1632     1.0  0.08722  0.75055  0.93436  1.0000
  C   C1633     1.0  0.08757  0.74601  0.90471  1.0000
  C   C1634     1.0  0.08085  0.75246  0.88202  1.0000
  C   C1635     1.0  0.07387  0.76357  0.88883  1.0000
  C   C1636     1.0  0.07371  0.76826  0.91845  1.0000
  C   C1637     1.0  0.08037  0.76177  0.94112  1.0000
  H   H1284     1.0  0.09278  0.73733  0.89932  1.0000
  H   H1285     1.0  0.08094  0.74873  0.85916  1.0000
  C   C1638     1.0  0.98832  0.64588  0.59567  1.0000
  H   H1286     1.0  0.08007  0.76533  0.96402  1.0000
  H   H1287     1.0  0.09374  0.61721  0.59295  1.0000
  P   P54       1.0  0.02107  0.61115  0.81986  1.0000
  C   C1639     1.0  0.00744  0.77590  0.76514  1.0000
  H   H1288     1.0  0.99568  0.71335  0.97481  1.0000
  H   H1289     1.0  0.08559  0.70620  0.73039  1.0000
  H   H1290     1.0  0.20227  0.70470  0.49427  1.0000
  C   C1640     1.0  0.04262  0.63918  0.85276  1.0000
  C   C1641     1.0  0.07207  0.69698  0.54059  1.0000
  C   C1642     1.0  0.98148  0.76447  0.51300  1.0000
  C   C1643     1.0  0.04130  0.77025  0.72452  1.0000
  H   H1291     1.0  0.10203  0.68950  0.72875  1.0000
  C   C1644     1.0  0.13631  0.78549  0.91559  1.0000
  C   C1645     1.0  0.03544  0.62427  0.90734  1.0000
  C   C1646     1.0  0.05554  0.73254  0.63727  1.0000
  C   C1647     1.0  0.08533  0.69939  0.71016  1.0000
  C   C1648     1.0  0.11547  0.62364  0.62225  1.0000
  C   C1649     1.0  0.07543  0.69965  0.68531  1.0000
  H   H1292     1.0  0.98469  0.67421  0.53410  1.0000
  H   H1293     1.0  0.08447  0.59707  0.77292  1.0000
  S   S226      1.0  0.02702  0.78085  0.87634  1.0000
  C   C1650     1.0  0.04084  0.64261  0.75368  1.0000
  C   C1651     1.0  0.02744  0.61555  0.88112  1.0000
  H   H1294     1.0  0.05289  0.64855  0.74479  1.0000
  H   H1295     1.0  0.10075  0.67302  0.68345  1.0000
  C   C1652     1.0  0.02326  0.62438  0.78906  1.0000
  C   C1653     1.0  0.02456  0.63597  0.62930  1.0000
  H   H1296     1.0  0.15505  0.71990  0.50741  1.0000
  H   H1297     1.0  0.11143  0.76425  0.84380  1.0000
  H   H1298     1.0  0.99042  0.78483  0.54457  1.0000
  H   H1299     1.0  0.04206  0.73263  0.87935  1.0000
  C   C1654     1.0  0.12269  0.61921  0.64693  1.0000
  H   H1300     1.0  0.04661  0.73161  0.93302  1.0000
  H   H1301     1.0  0.05644  0.66053  0.59029  1.0000
  C   C1655     1.0  0.00838  0.59700  0.58420  1.0000
  H   H1302     1.0  0.01652  0.62322  0.63101  1.0000
  H   H1303     1.0  0.99974  0.60517  0.54489  1.0000
  Fe  Fe113     1.0  0.06447  0.59853  0.69273  1.0000
  H   H1304     1.0  0.09583  0.70858  0.52208  1.0000
  H   H1305     1.0  0.06347  0.74537  0.64128  1.0000
  C   C1656     1.0  0.04703  0.65721  0.60631  1.0000
  C   C1657     1.0  0.04631  0.66889  0.62669  1.0000
  C   C1658     1.0  0.14017  0.77471  0.93356  1.0000
  H   H1306     1.0  0.98608  0.63507  0.68760  1.0000
  C   C1659     1.0  0.11543  0.63175  0.75174  1.0000
  C   C1660     1.0  0.03104  0.62290  0.85357  1.0000
  H   H1307     1.0  0.98178  0.60526  0.71564  1.0000
  C   C1661     1.0  0.03356  0.73438  0.89409  1.0000
  C   C1662     1.0  0.02743  0.58977  0.78222  1.0000
  C   C1663     1.0  0.00503  0.78424  0.97598  1.0000
  C   C1664     1.0  0.02396  0.64747  0.64993  1.0000
  C   C1665     1.0  0.03489  0.66385  0.64884  1.0000
  C   C1666     1.0  0.06239  0.72095  0.63602  1.0000
  C   C1667     1.0  0.05220  0.70431  0.63081  1.0000
  C   C1668     1.0  0.07496  0.69064  0.65924  1.0000
  H   H1308     1.0  0.17607  0.61336  0.65067  1.0000
  C   C1669     1.0  0.08975  0.70253  0.59553  1.0000
  H   H1309     1.0  0.04581  0.64526  0.83207  1.0000
  H   H1310     1.0  0.99716  0.61979  0.84992  1.0000
  C   C1670     1.0  0.99949  0.59967  0.82615  1.0000
  C   C1671     1.0  0.00101  0.66689  0.56065  1.0000
  H   H1311     1.0  0.00011  0.74384  0.89260  1.0000
  C   C1672     1.0  0.04353  0.78609  0.71699  1.0000
  C   C1673     1.0  0.99170  0.78049  0.52273  1.0000
  H   H1312     1.0  0.05975  0.66030  0.87825  1.0000
  C   C1674     1.0  0.99392  0.76979  0.96146  1.0000
  C   C1675     1.0  0.03511  0.69953  0.62577  1.0000
  C   C1676     1.0  0.19734  0.78567  0.97732  1.0000
  H   H1313     1.0  0.04631  0.60214  0.85117  1.0000
  H   H1314     1.0  0.09705  0.62704  0.78379  1.0000
  C   C1677     1.0  0.15398  0.61491  0.72208  1.0000
  H   H1315     1.0  0.00472  0.74335  0.94668  1.0000
  C   C1678     1.0  0.20847  0.78824  0.92905  1.0000
  P   P55       1.0  0.02973  0.73752  0.98395  1.0000
  C   C1679     1.0  0.19499  0.77361  0.91931  1.0000
  H   H1316     1.0  0.01865  0.59151  0.76678  1.0000
  C   C1680     1.0  0.19210  0.70824  0.49679  1.0000
  C   C1681     1.0  0.04486  0.77134  0.97968  1.0000
  C   C1682     1.0  0.18175  0.70186  0.52004  1.0000
  C   C1683     1.0  0.02050  0.73781  0.88248  1.0000
  C   C1684     1.0  0.03850  0.72764  0.63288  1.0000
  C   C1685     1.0  0.00460  0.59086  0.61242  1.0000
  H   H1317     1.0  0.11143  0.71335  0.57052  1.0000
  H   H1318     1.0  0.04564  0.75528  0.75801  1.0000
  H   H1319     1.0  0.06132  0.77871  0.79292  1.0000
  C   C1686     1.0  0.98443  0.59460  0.71858  1.0000
  C   C1687     1.0  0.09463  0.68999  0.70929  1.0000
  H   H1320     1.0  0.08346  0.67345  0.63925  1.0000
  H   H1321     1.0  0.01548  0.64350  0.66752  1.0000
  H   H1322     1.0  0.45349  0.78705  0.96499  1.0000
  H   H1323     1.0  0.02041  0.59932  0.57610  1.0000
  H   H1324     1.0  0.03277  0.61850  0.92850  1.0000
  S   S227      1.0  0.13013  0.73009  0.98384  1.0000
  H   H1325     1.0  0.00592  0.75865  0.72983  1.0000
  H   H1326     1.0  0.05351  0.64713  0.92646  1.0000
  C   C1688     1.0  0.08926  0.70475  0.54213  1.0000
  C   C1689     1.0  0.14461  0.60821  0.69550  1.0000
  C   C1690     1.0  0.00980  0.62709  0.77675  1.0000
  C   C1691     1.0  0.01191  0.63757  0.75313  1.0000
  C   C1692     1.0  0.02744  0.64539  0.74171  1.0000
  H   H1327     1.0  0.01860  0.60300  0.88226  1.0000
  H   H1328     1.0  0.06824  0.77669  0.92397  1.0000
  C   C1693     1.0  0.15268  0.60748  0.66986  1.0000
  H   H1329     1.0  0.01438  0.65697  0.58942  1.0000
  P   P56       1.0  0.12241  0.59951  0.69455  1.0000
  H   H1330     1.0  0.99764  0.62101  0.78496  1.0000
  C   C1694     1.0  0.04295  0.59586  0.82964  1.0000
  H   H1331     1.0  0.02907  0.65332  0.72319  1.0000
  C   C1695     1.0  0.16991  0.61390  0.67056  1.0000
  C   C1696     1.0  0.03611  0.73381  0.92476  1.0000
  C   C1697     1.0  0.09944  0.61359  0.61168  1.0000
  C   C1698     1.0  0.98047  0.77837  0.73380  1.0000
  H   H1332     1.0  0.07565  0.72496  0.63887  1.0000
  C   C1699     1.0  0.04706  0.64040  0.90627  1.0000
  H   H1333     1.0  0.02702  0.68692  0.62040  1.0000
  C   C1700     1.0  0.12698  0.78133  0.97448  1.0000
  H   H1334     1.0  0.09688  0.70503  0.61650  1.0000
  H   H1335     1.0  0.06531  0.69497  0.51926  1.0000
  C   C1701     1.0  0.00063  0.76669  0.73838  1.0000
  H   H1336     1.0  0.17837  0.62660  0.74324  1.0000
  H   H1337     1.0  0.03717  0.63177  0.59253  1.0000
  C   C1702     1.0  0.99090  0.60725  0.84155  1.0000
  C   C1703     1.0  0.14173  0.74313  0.85296  1.0000
  C   C1704     1.0  0.12632  0.73499  0.83804  1.0000
  C   C1705     1.0  0.11551  0.74275  0.83484  1.0000
  C   C1706     1.0  0.12015  0.75871  0.84631  1.0000
  C   C1707     1.0  0.13571  0.76708  0.86106  1.0000
  C   C1708     1.0  0.14637  0.75904  0.86455  1.0000
  C   C1709     1.0  0.10215  0.62168  0.76748  1.0000
  H   H1338     1.0  0.13172  0.63299  0.71736  1.0000
  H   H1339     1.0  0.18398  0.69357  0.53508  1.0000
  H   H1340     1.0  0.16018  0.70098  0.54152  1.0000
  C   C1710     1.0  0.98861  0.75811  0.83597  1.0000
  H   H1341     1.0  0.01883  0.73857  0.85874  1.0000
  H   H1342     1.0  0.17446  0.76455  0.98262  1.0000
  C   C1711     1.0  0.04760  0.76757  0.75194  1.0000
  C   C1712     1.0  0.17917  0.62089  0.69694  1.0000
  H   H1343     1.0  0.05033  0.68626  0.56511  1.0000
  C   C1713     1.0  0.02552  0.73660  0.94418  1.0000
  C   C1714     1.0  0.13566  0.77279  0.96293  1.0000
  C   C1715     1.0  0.10157  0.59798  0.74000  1.0000
  C   C1716     1.0  0.09052  0.59921  0.62598  1.0000
  C   C1717     1.0  0.98552  0.66633  0.55149  1.0000
  H   H1344     1.0  0.06124  0.73467  0.97836  1.0000
  H   H1345     1.0  0.01193  0.67521  0.55050  1.0000
  H   H1346     1.0  0.01108  0.75717  0.82209  1.0000
  P   P57       1.0  0.06138  0.68970  0.62761  1.0000
  H   H1347     1.0  0.14990  0.73693  0.85657  1.0000
  H   H1348     1.0  0.12261  0.72252  0.82970  1.0000
  H   H1349     1.0  0.10338  0.73626  0.82400  1.0000
  H   H1350     1.0  0.13846  0.76428  0.97648  1.0000
  H   H1351     1.0  0.15820  0.76484  0.87680  1.0000
  C   C1718     1.0  0.98184  0.78505  0.88904  1.0000
  H   H1352     1.0  0.14655  0.76763  0.92498  1.0000
  C   C1719     1.0  0.16839  0.70606  0.52378  1.0000
  H   H1353     1.0  0.00144  0.63939  0.74339  1.0000
  H   H1354     1.0  0.20203  0.75214  0.48944  1.0000
  C   C1720     1.0  0.09515  0.60482  0.76150  1.0000
  C   C1721     1.0  0.03869  0.63199  0.77696  1.0000
  H   H1355     1.0  0.03441  0.76002  0.70927  1.0000
  H   H1356     1.0  0.03528  0.77003  0.96280  1.0000
  H   H1357     1.0  0.04912  0.62976  0.78566  1.0000
  C   C1722     1.0  0.05056  0.64785  0.87903  1.0000
  H   H1358     1.0  0.12212  0.63505  0.61168  1.0000
  H   H1359     1.0  0.06794  0.70659  0.68684  1.0000
  C   C1723     1.0  0.06367  0.69198  0.56654  1.0000
  C   C1724     1.0  0.00240  0.65663  0.58262  1.0000
  C   C1725     1.0  0.11395  0.60455  0.66094  1.0000
  C   C1726     1.0  0.03611  0.64081  0.60757  1.0000
  H   H1360     1.0  0.12043  0.64489  0.75582  1.0000
  H   H1361     1.0  0.01513  0.70743  0.62315  1.0000
  H   H1362     1.0  0.03321  0.73665  0.63360  1.0000
  C   C1727     1.0  0.02831  0.71115  0.62704  1.0000
  H   H1363     1.0  0.03477  0.67252  0.66578  1.0000
  C   C1728     1.0  0.07247  0.69458  0.59417  1.0000
  C   C1729     1.0  0.09807  0.70752  0.56955  1.0000
  C   C1730     1.0  0.09397  0.68075  0.68365  1.0000
  C   C1731     1.0  0.08415  0.68102  0.65872  1.0000
  H   H1364     1.0  0.13490  0.62742  0.65541  1.0000
  C   C1732     1.0  0.05641  0.78076  0.77162  1.0000
  C   C1733     1.0  0.17120  0.62134  0.72270  1.0000
  C   C1734     1.0  0.01259  0.74036  0.93228  1.0000
  C   C1735     1.0  0.99776  0.75091  0.82160  1.0000
  H   H1365     1.0  0.19429  0.76892  0.89682  1.0000
  C   C1736     1.0  0.12179  0.62495  0.73006  1.0000
  C   C1737     1.0  0.99940  0.59466  0.70960  1.0000
  H   H1366     1.0  0.10741  0.78420  0.87204  1.0000
  H   H1367     1.0  0.14802  0.61509  0.74239  1.0000
  H   H1368     1.0  0.98944  0.63791  0.61266  1.0000
  H   H1369     1.0  0.99686  0.73071  0.79393  1.0000
  H   H1370     1.0  0.99501  0.76992  0.84718  1.0000
  C   C1738     1.0  0.98126  0.59735  0.57728  1.0000
  P   P58       1.0  0.14179  0.78748  0.87733  1.0000
  H   H1371     1.0  0.22078  0.78100  0.49834  1.0000
  C   C1739     1.0  0.09767  0.59483  0.65076  1.0000
  C   C1740     1.0  0.98729  0.78760  0.76056  1.0000
  H   H1372     1.0  0.98454  0.61195  0.65582  1.0000
  C   C1741     1.0  0.00085  0.78649  0.77640  1.0000
  C   C1742     1.0  0.99675  0.60033  0.56670  1.0000
  C   C1743     1.0  0.98975  0.73605  0.80564  1.0000
  S   S228      1.0  0.98021  0.75699  0.68733  1.0000
  H   H1373     1.0  0.07787  0.59173  0.61849  1.0000
  H   H1374     1.0  0.15197  0.78776  0.49826  1.0000
  H   H1375     1.0  0.01368  0.58856  0.62631  1.0000
  H   H1376     1.0  0.06589  0.78792  0.48812  1.0000
  H   H1377     1.0  0.03851  0.78787  0.69567  1.0000
  C   C1744     1.0  0.98345  0.75920  0.48436  1.0000
  H   H1378     1.0  0.32741  0.85760  0.23883  1.0000
  S   S229      1.0  0.05681  0.80418  0.39994  1.0000
  H   H1379     1.0  0.29865  0.89022  0.16059  1.0000
  S   S230      1.0  0.02913  0.81575  0.37022  1.0000
  H   H1380     1.0  0.27350  0.86101  0.08827  1.0000
  Fe  Fe114     1.0  0.05576  0.82007  0.36246  1.0000
  S   S231      1.0  0.07985  0.84129  0.34875  1.0000
  C   C1745     1.0  0.33768  0.86014  0.28374  1.0000
  C   C1746     1.0  0.33090  0.87697  0.42387  1.0000
  H   H1381     1.0  0.14816  0.83200  0.47219  1.0000
  C   C1747     1.0  0.25901  0.83869  0.06396  1.0000
  Fe  Fe115     1.0  0.38387  0.91146  0.21043  1.0000
  S   S232      1.0  0.37644  0.92025  0.16771  1.0000
  S   S233      1.0  0.40941  0.91226  0.22671  1.0000
  Fe  Fe116     1.0  0.35127  0.90826  0.23974  1.0000
  S   S234      1.0  0.34237  0.91740  0.19919  1.0000
  S   S235      1.0  0.33953  0.90596  0.28497  1.0000
  Fe  Fe117     1.0  0.35069  0.90088  0.17249  1.0000
  S   S236      1.0  0.33260  0.88269  0.13688  1.0000
  Fe  Fe118     1.0  0.36857  0.93602  0.19734  1.0000
  S   S237      1.0  0.37408  0.96264  0.18819  1.0000
  S   S238      1.0  0.35861  0.89076  0.21370  1.0000
  S   S239      1.0  0.37692  0.92818  0.23943  1.0000
  Fe  Fe119     1.0  0.16399  0.93030  0.36492  1.0000
  S   S240      1.0  0.17533  0.93059  0.32115  1.0000
  S   S241      1.0  0.13797  0.91290  0.37888  1.0000
  Fe  Fe120     1.0  0.19683  0.95724  0.39347  1.0000
  S   S242      1.0  0.21036  0.95844  0.35170  1.0000
  H   H1382     1.0  0.29045  0.96402  0.44334  1.0000
  Fe  Fe121     1.0  0.18776  0.95825  0.32646  1.0000
  S   S243      1.0  0.18848  0.97615  0.28907  1.0000
  Fe  Fe122     1.0  0.19719  0.93100  0.34912  1.0000
  S   S244      1.0  0.20844  0.91330  0.33646  1.0000
  S   S245      1.0  0.17457  0.95819  0.36867  1.0000
  S   S246      1.0  0.18553  0.92960  0.39245  1.0000
  Fe  Fe123     1.0  0.24847  0.83895  0.44882  1.0000
  Fe  Fe124     1.0  0.02100  0.79357  0.33833  1.0000
  S   S247      1.0  0.22601  0.81747  0.46586  1.0000
  Fe  Fe125     1.0  0.27350  0.85679  0.40264  1.0000
  S   S248      1.0  0.28323  0.88049  0.42892  1.0000
  S   S249      1.0  0.28201  0.85369  0.35657  1.0000
  H   H1383     1.0  0.16915  0.81121  0.43294  1.0000
  S   S250      1.0  0.29871  0.88469  0.00808  1.0000
  Fe  Fe126     1.0  0.25682  0.87482  0.43681  1.0000
  S   S251      1.0  0.24716  0.89448  0.44048  1.0000
  S   S252      1.0  0.27485  0.84207  0.44235  1.0000
  S   S253      1.0  0.24672  0.85211  0.40762  1.0000
  C   C1748     1.0  0.21891  0.90769  0.36533  1.0000
  C   C1749     1.0  0.22171  0.91549  0.39331  1.0000
  C   C1750     1.0  0.23047  0.91127  0.41592  1.0000
  C   C1751     1.0  0.23632  0.89912  0.41095  1.0000
  C   C1752     1.0  0.23357  0.89126  0.38295  1.0000
  C   C1753     1.0  0.22493  0.89562  0.36009  1.0000
  H   H1384     1.0  0.21729  0.92491  0.39746  1.0000
  H   H1385     1.0  0.23274  0.91748  0.43737  1.0000
  H   H1386     1.0  0.23815  0.88194  0.37890  1.0000
  H   H1387     1.0  0.22296  0.88971  0.33831  1.0000
  C   C1754     1.0  0.25111  0.89224  0.05104  1.0000
  C   C1755     1.0  0.06479  0.86985  0.17519  1.0000
  C   C1756     1.0  0.20021  0.83592  0.36551  1.0000
  H   H1388     1.0  0.16612  0.93215  0.06313  1.0000
  Fe  Fe127     1.0  0.02982  0.79833  0.40594  1.0000
  H   H1389     1.0  0.21219  0.88089  0.17435  1.0000
  C   C1757     1.0  0.32260  0.89174  0.30358  1.0000
  C   C1758     1.0  0.32058  0.89529  0.33328  1.0000
  C   C1759     1.0  0.30788  0.88411  0.34946  1.0000
  C   C1760     1.0  0.29721  0.86901  0.33633  1.0000
  C   C1761     1.0  0.29899  0.86565  0.30644  1.0000
  C   C1762     1.0  0.31140  0.87705  0.29003  1.0000
  H   H1390     1.0  0.32903  0.90670  0.34397  1.0000
  H   H1391     1.0  0.30665  0.88699  0.37232  1.0000
  H   H1392     1.0  0.29077  0.85410  0.29590  1.0000
  H   H1393     1.0  0.31246  0.87435  0.26700  1.0000
  C   C1763     1.0  0.32371  0.88353  0.10064  1.0000
  C   C1764     1.0  0.31125  0.86919  0.08743  1.0000
  C   C1765     1.0  0.30365  0.86922  0.05913  1.0000
  C   C1766     1.0  0.30825  0.88365  0.04355  1.0000
  C   C1767     1.0  0.32086  0.89794  0.05654  1.0000
  C   C1768     1.0  0.32858  0.89788  0.08472  1.0000
  H   H1394     1.0  0.30746  0.85794  0.09921  1.0000
  H   H1395     1.0  0.29425  0.85806  0.04933  1.0000
  H   H1396     1.0  0.32467  0.90918  0.04476  1.0000
  H   H1397     1.0  0.33819  0.90899  0.09426  1.0000
  H   H1398     1.0  0.47290  0.95979  0.29963  1.0000
  H   H1399     1.0  0.28394  0.91083  0.06702  1.0000
  C   C1769     1.0  0.39990  0.97549  0.23094  1.0000
  H   H1400     1.0  0.19827  0.79009  0.00005  1.0000
  H   H1401     1.0  0.39827  0.96305  0.23466  1.0000
  C   C1770     1.0  0.45624  0.91173  0.18540  1.0000
  C   C1771     1.0  0.44172  0.90848  0.16751  1.0000
  C   C1772     1.0  0.42750  0.90907  0.17945  1.0000
  C   C1773     1.0  0.42745  0.91272  0.20970  1.0000
  C   C1774     1.0  0.44207  0.91629  0.22754  1.0000
  C   C1775     1.0  0.45637  0.91590  0.21550  1.0000
  H   H1402     1.0  0.44140  0.90526  0.14422  1.0000
  H   H1403     1.0  0.41643  0.90626  0.16536  1.0000
  H   H1404     1.0  0.44228  0.91922  0.25093  1.0000
  C   C1776     1.0  0.44980  0.90871  0.31820  1.0000
  C   C1777     1.0  0.09641  0.86077  0.35883  1.0000
  C   C1778     1.0  0.09605  0.87056  0.38311  1.0000
  C   C1779     1.0  0.10890  0.88627  0.38894  1.0000
  C   C1780     1.0  0.12248  0.89253  0.37091  1.0000
  C   C1781     1.0  0.12304  0.88258  0.34702  1.0000
  C   C1782     1.0  0.11015  0.86689  0.34110  1.0000
  H   H1405     1.0  0.08567  0.86619  0.39703  1.0000
  H   H1406     1.0  0.10820  0.89373  0.40748  1.0000
  H   H1407     1.0  0.13323  0.88715  0.33270  1.0000
  H   H1408     1.0  0.11069  0.85957  0.32225  1.0000
  C   C1783     1.0  0.27518  0.89223  0.09984  1.0000
  H   H1409     1.0  0.17418  0.90856  0.45864  1.0000
  C   C1784     1.0  0.30232  0.91461  0.10203  1.0000
  C   C1785     1.0  0.29512  0.89488  0.14061  1.0000
  C   C1786     1.0  0.30652  0.90889  0.12843  1.0000
  C   C1787     1.0  0.27944  0.88669  0.12659  1.0000
  C   C1788     1.0  0.23945  0.89918  0.05083  1.0000
  H   H1410     1.0  0.28449  0.97904  0.32059  1.0000
  H   H1411     1.0  0.46738  0.91855  0.22956  1.0000
  H   H1412     1.0  0.46461  0.97657  0.13831  1.0000
  C   C1789     1.0  0.14291  0.81882  0.47180  1.0000
  H   H1413     1.0  0.24243  0.81796  0.03685  1.0000
  C   C1790     1.0  0.16422  0.80337  0.35808  1.0000
  H   H1414     1.0  0.23261  0.89893  0.07013  1.0000
  C   C1791     1.0  0.06736  0.86721  0.30110  1.0000
  C   C1792     1.0  0.17204  0.84586  0.36640  1.0000
  C   C1793     1.0  0.15667  0.83808  0.35067  1.0000
  C   C1794     1.0  0.14928  0.84734  0.33616  1.0000
  C   C1795     1.0  0.15711  0.86440  0.33736  1.0000
  C   C1796     1.0  0.17214  0.87224  0.35367  1.0000
  C   C1797     1.0  0.17949  0.86305  0.36838  1.0000
  Fe  Fe128     1.0  0.28317  0.86597  0.46943  1.0000
  H   H1415     1.0  0.05543  0.85965  0.30877  1.0000
  H   H1416     1.0  0.37932  0.81726  0.37487  1.0000
  H   H1417     1.0  0.03061  0.84334  0.21648  1.0000
  H   H1418     1.0  0.13742  0.84130  0.32410  1.0000
  H   H1419     1.0  0.15145  0.87159  0.32602  1.0000
  H   H1420     1.0  0.17817  0.88551  0.35480  1.0000
  H   H1421     1.0  0.19116  0.86940  0.38095  1.0000
  C   C1798     1.0  0.24452  0.90635  0.99956  1.0000
  H   H1422     1.0  0.09227  0.81993  0.39010  1.0000
  H   H1423     1.0  0.42926  0.94879  0.22101  1.0000
  C   C1799     1.0  0.20889  0.79949  0.45154  1.0000
  H   H1424     1.0  0.47087  0.89031  0.37083  1.0000
  H   H1425     1.0  0.37663  0.86299  0.48041  1.0000
  H   H1426     1.0  0.09710  0.83966  0.43900  1.0000
  S   S254      1.0  0.25716  0.86182  0.47865  1.0000
  C   C1800     1.0  0.46989  0.97038  0.15325  1.0000
  H   H1427     1.0  0.20723  0.85527  0.14563  1.0000
  H   H1428     1.0  0.18644  0.89002  0.03486  1.0000
  H   H1429     1.0  0.22225  0.83002  0.02627  1.0000
  C   C1801     1.0  0.40499  0.95739  0.13867  1.0000
  C   C1802     1.0  0.06636  0.82850  0.25941  1.0000
  H   H1430     1.0  0.27528  0.96475  0.39620  1.0000
  H   H1431     1.0  0.20596  0.96299  0.14185  1.0000
  C   C1803     1.0  0.07512  0.80223  0.27130  1.0000
  C   C1804     1.0  0.23624  0.85240  0.05176  1.0000
  C   C1805     1.0  0.20087  0.98720  0.25959  1.0000
  S   S255      1.0  0.21275  0.97123  0.43523  1.0000
  C   C1806     1.0  0.10182  0.79616  0.34166  1.0000
  H   H1432     1.0  0.47721  0.89245  0.22150  1.0000
  C   C1807     1.0  0.47934  0.96259  0.14187  1.0000
  C   C1808     1.0  0.22038  0.82493  0.35413  1.0000
  C   C1809     1.0  0.28675  0.90628  0.08765  1.0000
  H   H1433     1.0  0.07325  0.88381  0.33921  1.0000
  H   H1434     1.0  0.40150  0.89150  0.28521  1.0000
  H   H1435     1.0  0.43765  0.90082  0.30873  1.0000
  H   H1436     1.0  0.44262  0.92819  0.33027  1.0000
  H   H1437     1.0  0.14708  0.97628  0.34843  1.0000
  H   H1438     1.0  0.17656  0.86102  0.47770  1.0000
  H   H1439     1.0  0.22098  0.98242  0.04065  1.0000
  H   H1440     1.0  0.10107  0.90145  0.32372  1.0000
  H   H1441     1.0  0.16038  0.88215  0.06051  1.0000
  C   C1810     1.0  0.21282  0.95083  0.00914  1.0000
  C   C1811     1.0  0.26876  0.96118  0.41633  1.0000
  C   C1812     1.0  0.12775  0.80967  0.45630  1.0000
  C   C1813     1.0  0.20831  0.79252  0.42328  1.0000
  P   P59       1.0  0.06034  0.84517  0.25207  1.0000
  H   H1442     1.0  0.31137  0.92521  0.09225  1.0000
  C   C1814     1.0  0.34347  0.86857  0.37310  1.0000
  C   C1815     1.0  0.00512  0.82479  0.27070  1.0000
  P   P60       1.0  0.45352  0.97875  0.19723  1.0000
  S   S256      1.0  0.47346  0.90978  0.16905  1.0000
  H   H1443     1.0  0.18986  0.81445  0.99218  1.0000
  H   H1444     1.0  0.34812  0.86140  0.47221  1.0000
  H   H1445     1.0  0.37621  0.83592  0.41303  1.0000
  C   C1816     1.0  0.33666  0.85288  0.31139  1.0000
  H   H1446     1.0  0.14815  0.88901  0.43198  1.0000
  C   C1817     1.0  0.24328  0.95209  0.44155  1.0000
  H   H1447     1.0  0.06309  0.82758  0.19783  1.0000
  H   H1448     1.0  0.14264  0.87210  0.38598  1.0000
  H   H1449     1.0  0.14120  0.87578  0.48045  1.0000
  C   C1818     1.0  0.14304  0.87579  0.43309  1.0000
  H   H1450     1.0  0.25389  0.90698  0.12352  1.0000
  H   H1451     1.0  0.30727  0.85943  0.40647  1.0000
  H   H1452     1.0  0.09746  0.82042  0.29227  1.0000
  C   C1819     1.0  0.24084  0.88124  0.11143  1.0000
  C   C1820     1.0  0.37758  0.90903  0.31397  1.0000
  H   H1453     1.0  0.07823  0.80127  0.01547  1.0000
  H   H1454     1.0  0.26840  0.88710  0.02493  1.0000
  C   C1821     1.0  0.09388  0.80541  0.35328  1.0000
  H   H1455     1.0  0.01030  0.79906  0.01640  1.0000
  C   C1822     1.0  0.09883  0.88704  0.28372  1.0000
  C   C1823     1.0  0.18661  0.91518  0.46815  1.0000
  C   C1824     1.0  0.32655  0.85185  0.26003  1.0000
  C   C1825     1.0  0.36794  0.88058  0.32722  1.0000
  C   C1826     1.0  0.21277  0.98625  0.46205  1.0000
  C   C1827     1.0  0.15623  0.96240  0.98935  1.0000
  C   C1828     1.0  0.23868  0.94849  0.00082  1.0000
  C   C1829     1.0  0.20625  0.96184  0.06619  1.0000
  H   H1456     1.0  0.22536  0.85528  0.10615  1.0000
  C   C1830     1.0  0.26206  0.85433  0.07545  1.0000
  H   H1457     1.0  0.40297  0.98014  0.14793  1.0000
  H   H1458     1.0  0.34692  0.87225  0.28021  1.0000
  C   C1831     1.0  0.31295  0.82914  0.29127  1.0000
  C   C1832     1.0  0.11977  0.80225  0.38632  1.0000
  C   C1833     1.0  0.28695  0.92517  0.44116  1.0000
  C   C1834     1.0  0.30012  0.92148  0.45128  1.0000
  C   C1835     1.0  0.31135  0.92066  0.43136  1.0000
  C   C1836     1.0  0.30940  0.92350  0.40134  1.0000
  C   C1837     1.0  0.29635  0.92751  0.39109  1.0000
  C   C1838     1.0  0.28496  0.92807  0.41118  1.0000
  P   P61       1.0  0.29358  0.93016  0.35189  1.0000
  C   C1839     1.0  0.28148  0.94207  0.34514  1.0000
  C   C1840     1.0  0.31404  0.94048  0.33847  1.0000
  C   C1841     1.0  0.32517  0.95498  0.35319  1.0000
  C   C1842     1.0  0.34097  0.96331  0.34311  1.0000
  C   C1843     1.0  0.34586  0.95714  0.31845  1.0000
  C   C1844     1.0  0.33504  0.94254  0.30416  1.0000
  C   C1845     1.0  0.31928  0.93409  0.31431  1.0000
  C   C1846     1.0  0.26434  0.93478  0.34786  1.0000
  C   C1847     1.0  0.25465  0.94345  0.34112  1.0000
  C   C1848     1.0  0.26190  0.95941  0.33152  1.0000
  C   C1849     1.0  0.27891  0.96676  0.32861  1.0000
  C   C1850     1.0  0.28867  0.95813  0.33524  1.0000
  C   C1851     1.0  0.28196  0.91054  0.33335  1.0000
  C   C1852     1.0  0.27506  0.89636  0.34964  1.0000
  C   C1853     1.0  0.26574  0.88132  0.33506  1.0000
  C   C1854     1.0  0.26340  0.88025  0.30417  1.0000
  C   C1855     1.0  0.26980  0.89438  0.28787  1.0000
  C   C1856     1.0  0.27880  0.90952  0.30245  1.0000
  H   H1459     1.0  0.27786  0.92513  0.45634  1.0000
  H   H1460     1.0  0.00591  0.79016  0.19808  1.0000
  H   H1461     1.0  0.32122  0.91721  0.43905  1.0000
  H   H1462     1.0  0.31789  0.92223  0.38603  1.0000
  H   H1463     1.0  0.27429  0.93024  0.40383  1.0000
  H   H1464     1.0  0.32157  0.95989  0.37239  1.0000
  H   H1465     1.0  0.34946  0.97455  0.35437  1.0000
  H   H1466     1.0  0.35807  0.96356  0.31048  1.0000
  H   H1467     1.0  0.33895  0.93763  0.28530  1.0000
  H   H1468     1.0  0.31152  0.92251  0.30338  1.0000
  H   H1469     1.0  0.25838  0.92229  0.35479  1.0000
  H   H1470     1.0  0.24142  0.93768  0.34291  1.0000
  H   H1471     1.0  0.25425  0.96595  0.32588  1.0000
  H   H1472     1.0  0.30326  0.81720  0.29424  1.0000
  H   H1473     1.0  0.30169  0.96397  0.33184  1.0000
  H   H1474     1.0  0.27681  0.89677  0.37356  1.0000
  H   H1475     1.0  0.26066  0.87042  0.34778  1.0000
  H   H1476     1.0  0.25669  0.86847  0.29291  1.0000
  H   H1477     1.0  0.26789  0.89358  0.26393  1.0000
  H   H1478     1.0  0.28351  0.92041  0.28958  1.0000
  C   C1857     1.0  0.36246  0.83771  0.33080  1.0000
  H   H1479     1.0  0.16773  0.80925  0.33720  1.0000
  C   C1858     1.0  0.18373  0.85562  0.46634  1.0000
  C   C1859     1.0  0.41432  0.94819  0.14361  1.0000
  H   H1480     1.0  0.22041  0.97902  0.26647  1.0000
  C   C1860     1.0  0.20695  0.84797  0.46615  1.0000
  H   H1481     1.0  0.20955  0.83615  0.42641  1.0000
  C   C1861     1.0  0.03878  0.83801  0.25962  1.0000
  C   C1862     1.0  0.25618  0.89955  0.99969  1.0000
  C   C1863     1.0  0.06362  0.83944  0.19195  1.0000
  C   C1864     1.0  0.06504  0.84361  0.16217  1.0000
  C   C1865     1.0  0.06564  0.85880  0.15379  1.0000
  H   H1482     1.0  0.39322  0.95207  0.12611  1.0000
  C   C1866     1.0  0.37413  0.82593  0.36858  1.0000
  C   C1867     1.0  0.02702  0.83834  0.23792  1.0000
  C   C1868     1.0  0.16561  0.97152  0.01421  1.0000
  C   C1869     1.0  0.19244  0.93198  0.47433  1.0000
  C   C1870     1.0  0.01673  0.82456  0.29241  1.0000
  C   C1871     1.0  0.03346  0.83086  0.28677  1.0000
  H   H1483     1.0  0.24502  0.95691  0.39506  1.0000
  H   H1484     1.0  0.41983  0.98581  0.26437  1.0000
  H   H1485     1.0  0.32342  0.83127  0.33577  1.0000
  C   C1872     1.0  0.13988  0.86621  0.40698  1.0000
  C   C1873     1.0  0.46691  0.96980  0.18359  1.0000
  C   C1874     1.0  0.19777  0.85504  0.48074  1.0000
  P   P62       1.0  0.18213  0.83420  0.38470  1.0000
  C   C1875     1.0  0.08591  0.81818  0.28011  1.0000
  H   H1486     1.0  0.47372  0.84913  0.05352  1.0000
  C   C1876     1.0  0.22662  0.94818  0.01995  1.0000
  H   H1487     1.0  0.46021  0.89139  0.30884  1.0000
  H   H1488     1.0  0.06557  0.83499  0.14553  1.0000
  H   H1489     1.0  0.06668  0.86197  0.13067  1.0000
  C   C1877     1.0  0.08155  0.83127  0.27425  1.0000
  H   H1490     1.0  0.04374  0.80999  0.23937  1.0000
  C   C1878     1.0  0.09084  0.82855  0.45066  1.0000
  H   H1491     1.0  0.31881  0.91498  0.13898  1.0000
  C   C1879     1.0  0.08819  0.80191  0.46660  1.0000
  H   H1492     1.0  0.04221  0.82998  0.30350  1.0000
  C   C1880     1.0  0.07582  0.82607  0.46267  1.0000
  C   C1881     1.0  0.42909  0.95479  0.16105  1.0000
  S   S257      1.0  0.04717  0.79919  0.32811  1.0000
  H   H1493     1.0  0.19338  0.94415  0.09853  1.0000
  C   C1882     1.0  0.17897  0.84927  0.43724  1.0000
  C   C1883     1.0  0.32657  0.86104  0.37786  1.0000
  H   H1494     1.0  0.16799  0.84970  0.42652  1.0000
  C   C1884     1.0  0.18843  0.84255  0.42215  1.0000
  C   C1885     1.0  0.06907  0.78912  0.00951  1.0000
  C   C1886     1.0  0.25949  0.89256  0.02532  1.0000
  H   H1495     1.0  0.30533  0.83019  0.24555  1.0000
  P   P63       1.0  0.25460  0.88177  0.08284  1.0000
  H   H1496     1.0  0.26801  0.83352  0.06808  1.0000
  H   H1497     1.0  0.27073  0.87587  0.13639  1.0000
  H   H1498     1.0  0.35586  0.89386  0.43522  1.0000
  C   C1887     1.0  0.31411  0.83643  0.26384  1.0000
  C   C1888     1.0  0.13903  0.86833  0.46026  1.0000
  H   H1499     1.0  0.23558  0.90667  0.16325  1.0000
  H   H1500     1.0  0.21774  0.84732  0.47736  1.0000
  C   C1889     1.0  0.22765  0.86666  0.11802  1.0000
  H   H1501     1.0  0.38208  0.86774  0.31024  1.0000
  C   C1890     1.0  0.39198  0.89271  0.29800  1.0000
  C   C1891     1.0  0.23318  0.83672  0.04052  1.0000
  C   C1892     1.0  0.24364  0.89565  0.12798  1.0000
  C   C1893     1.0  0.20928  0.96705  0.11966  1.0000
  C   C1894     1.0  0.19696  0.90706  0.47346  1.0000
  C   C1895     1.0  0.25067  0.86130  0.06948  1.0000
  C   C1896     1.0  0.24460  0.82991  0.04646  1.0000
  C   C1897     1.0  0.38088  0.87925  0.31218  1.0000
  C   C1898     1.0  0.39029  0.90755  0.29884  1.0000
  P   P64       1.0  0.11650  0.81967  0.43605  1.0000
  H   H1502     1.0  0.22717  0.91149  0.02502  1.0000
  H   H1503     1.0  0.08986  0.84343  0.28212  1.0000
  C   C1899     1.0  0.22844  0.83827  0.33668  1.0000
  H   H1504     1.0  0.22749  0.85769  0.04615  1.0000
  C   C1900     1.0  0.32428  0.83723  0.31485  1.0000
  H   H1505     1.0  0.32595  0.88022  0.44331  1.0000
  H   H1506     1.0  0.09242  0.79222  0.46808  1.0000
  C   C1901     1.0  0.21733  0.86658  0.14056  1.0000
  C   C1902     1.0  0.18216  0.89929  0.04140  1.0000
  H   H1507     1.0  0.36708  0.88646  0.39087  1.0000
  C   C1903     1.0  0.16745  0.89484  0.05573  1.0000
  C   C1904     1.0  0.22014  0.88099  0.15677  1.0000
  C   C1905     1.0  0.16178  0.90674  0.06365  1.0000
  C   C1906     1.0  0.23330  0.89552  0.15050  1.0000
  P   P65       1.0  0.35196  0.86271  0.34138  1.0000
  C   C1907     1.0  0.18565  0.92771  0.04297  1.0000
  C   C1908     1.0  0.35400  0.88045  0.39403  1.0000
  C   C1909     1.0  0.43476  0.97076  0.17357  1.0000
  H   H1508     1.0  0.39843  0.91772  0.28674  1.0000
  C   C1910     1.0  0.34772  0.88464  0.41925  1.0000
  C   C1911     1.0  0.22239  0.85039  0.33347  1.0000
  H   H1509     1.0  0.18543  0.97521  0.04624  1.0000
  H   H1510     1.0  0.35602  0.89673  0.33799  1.0000
  C   C1912     1.0  0.32037  0.86518  0.40320  1.0000
  H   H1511     1.0  0.37580  0.92033  0.31346  1.0000
  C   C1913     1.0  0.20214  0.95643  0.09495  1.0000
  H   H1512     1.0  0.16020  0.80912  0.99328  1.0000
  H   H1513     1.0  0.19258  0.89411  0.46800  1.0000
  C   C1914     1.0  0.19125  0.91565  0.03508  1.0000
  C   C1915     1.0  0.36639  0.89559  0.32799  1.0000
  H   H1514     1.0  0.36445  0.85563  0.39899  1.0000
  C   C1916     1.0  0.09312  0.89098  0.30977  1.0000
  C   C1917     1.0  0.36917  0.82656  0.33896  1.0000
  C   C1918     1.0  0.09864  0.81285  0.38157  1.0000
  H   H1515     1.0  0.31797  0.85219  0.36197  1.0000
  H   H1516     1.0  0.11116  0.89457  0.27742  1.0000
  H   H1517     1.0  0.35873  0.83805  0.30769  1.0000
  H   H1518     1.0  0.23956  0.83936  0.32618  1.0000
  H   H1519     1.0  0.20052  0.81349  0.38246  1.0000
  C   C1919     1.0  0.20636  0.82376  0.36853  1.0000
  H   H1520     1.0  0.20409  0.85886  0.34488  1.0000
  C   C1920     1.0  0.20835  0.84924  0.34775  1.0000
  C   C1921     1.0  0.16504  0.80457  0.41181  1.0000
  C   C1922     1.0  0.18122  0.95461  0.01597  1.0000
  C   C1923     1.0  0.45607  0.98325  0.25912  1.0000
  C   C1924     1.0  0.08881  0.87318  0.26633  1.0000
  H   H1521     1.0  0.22868  0.86084  0.32020  1.0000
  C   C1925     1.0  0.36068  0.84837  0.35223  1.0000
  C   C1926     1.0  0.16905  0.81261  0.38498  1.0000
  C   C1927     1.0  0.37239  0.83645  0.39006  1.0000
  C   C1928     1.0  0.44799  0.97271  0.23457  1.0000
  H   H1522     1.0  0.15025  0.82493  0.34964  1.0000
  H   H1523     1.0  0.01264  0.81895  0.31328  1.0000
  H   H1524     1.0  0.42086  0.94107  0.27123  1.0000
  C   C1929     1.0  0.43831  0.96366  0.29222  1.0000
  C   C1930     1.0  0.22058  0.98306  0.11584  1.0000
  H   H1525     1.0  0.20239  0.91867  0.02350  1.0000
  H   H1526     1.0  0.18459  0.93840  0.46945  1.0000
  H   H1527     1.0  0.07071  0.83517  0.46033  1.0000
  C   C1931     1.0  0.47346  0.96127  0.20234  1.0000
  C   C1932     1.0  0.36571  0.84765  0.38196  1.0000
  H   H1528     1.0  0.08359  0.80642  0.34089  1.0000
  H   H1529     1.0  0.06245  0.87432  0.22128  1.0000
  C   C1933     1.0  0.13248  0.84916  0.40778  1.0000
  H   H1530     1.0  0.09757  0.78982  0.32027  1.0000
  H   H1531     1.0  0.15030  0.90329  0.07458  1.0000
  C   C1934     1.0  0.46265  0.90346  0.31810  1.0000
  H   H1532     1.0  0.06518  0.88161  0.16869  1.0000
  C   C1935     1.0  0.21772  0.97790  0.06260  1.0000
  C   C1936     1.0  0.06276  0.85049  0.21361  1.0000
  H   H1533     1.0  0.07827  0.79204  0.27658  1.0000
  H   H1534     1.0  0.40985  0.93574  0.13468  1.0000
  C   C1937     1.0  0.11491  0.79475  0.35802  1.0000
  H   H1535     1.0  0.43581  0.94719  0.16537  1.0000
  C   C1938     1.0  0.17079  0.92309  0.05721  1.0000
  S   S258      1.0  0.02118  0.79956  0.45330  1.0000
  C   C1939     1.0  0.01026  0.83167  0.24345  1.0000
  C   C1940     1.0  0.06689  0.81147  0.47632  1.0000
  H   H1536     1.0  0.22787  0.94559  0.04308  1.0000
  C   C1941     1.0  0.06331  0.86571  0.20498  1.0000
  P   P66       1.0  0.19664  0.94882  0.03368  1.0000
  C   C1942     1.0  0.45102  0.97885  0.28776  1.0000
  C   C1943     1.0  0.05999  0.79938  0.25645  1.0000
  C   C1944     1.0  0.07292  0.86320  0.27474  1.0000
  C   C1945     1.0  0.27730  0.96082  0.44292  1.0000
  H   H1537     1.0  0.12991  0.80097  0.39857  1.0000
  C   C1946     1.0  0.45261  0.92415  0.33027  1.0000
  C   C1947     1.0  0.11130  0.81094  0.39868  1.0000
  C   C1948     1.0  0.42529  0.97992  0.16842  1.0000
  C   C1949     1.0  0.43074  0.95285  0.26805  1.0000
  C   C1950     1.0  0.20228  0.84168  0.43704  1.0000
  C   C1951     1.0  0.43553  0.95732  0.23937  1.0000
  C   C1952     1.0  0.07743  0.88105  0.31847  1.0000
  C   C1953     1.0  0.23624  0.90627  0.02519  1.0000
  C   C1954     1.0  0.12818  0.84153  0.43492  1.0000
  H   H1538     1.0  0.45676  0.98737  0.30638  1.0000
  H   H1539     1.0  0.99212  0.81921  0.27481  1.0000
  H   H1540     1.0  0.23011  0.94874  0.44029  1.0000
  C   C1955     1.0  0.38983  0.97869  0.20945  1.0000
  H   H1541     1.0  0.09354  0.87015  0.24647  1.0000
  H   H1542     1.0  0.21821  0.79845  0.40883  1.0000
  C   C1956     1.0  0.26882  0.95594  0.46881  1.0000
  H   H1543     1.0  0.37053  0.81841  0.32227  1.0000
  H   H1544     1.0  0.22525  0.81568  0.35711  1.0000
  H   H1545     1.0  0.24416  0.79409  0.46671  1.0000
  C   C1957     1.0  0.41052  0.97325  0.15095  1.0000
  C   C1958     1.0  0.25175  0.95677  0.41565  1.0000
  H   H1546     1.0  0.24914  0.94613  0.00911  1.0000
  H   H1547     1.0  0.47173  0.87375  0.41348  1.0000
  H   H1548     1.0  0.12961  0.84209  0.38708  1.0000
  H   H1549     1.0  0.43419  0.96035  0.31431  1.0000
  C   C1959     1.0  0.05561  0.81244  0.25057  1.0000
  C   C1960     1.0  0.09728  0.81653  0.45270  1.0000
  H   H1550     1.0  0.30128  0.91863  0.47432  1.0000
  C   C1961     1.0  0.46829  0.93432  0.34241  1.0000
  H   H1551     1.0  0.25213  0.92017  0.48062  1.0000
  C   C1962     1.0  0.17816  0.96775  0.02737  1.0000
  C   C1963     1.0  0.13157  0.85126  0.46118  1.0000
  C   C1964     1.0  0.07306  0.79941  0.47823  1.0000
  H   H1552     1.0  0.00118  0.83150  0.22642  1.0000
  H   H1553     1.0  0.15925  0.98727  0.30099  1.0000
  C   C1965     1.0  0.17141  0.94520  0.99151  1.0000
  C   C1966     1.0  0.21589  0.98650  0.25328  1.0000
  H   H1554     1.0  0.12789  0.84564  0.48223  1.0000
  H   H1555     1.0  0.16349  0.98185  0.02275  1.0000
  H   H1556     1.0  0.47095  0.96025  0.22558  1.0000
  H   H1557     1.0  0.25017  0.98615  0.43706  1.0000
  C   C1967     1.0  0.12166  0.79250  0.45568  1.0000
  H   H1558     1.0  0.47454  0.83432  0.00756  1.0000
  H   H1559     1.0  0.47043  0.94622  0.35209  1.0000
  C   C1968     1.0  0.19593  0.79134  0.47011  1.0000
  C   C1969     1.0  0.25171  0.95149  0.46832  1.0000
  H   H1560     1.0  0.37208  0.98699  0.99545  1.0000
  H   H1561     1.0  0.01541  0.79503  0.25159  1.0000
  C   C1970     1.0  0.15838  0.98726  0.34861  1.0000
  C   C1971     1.0  0.47858  0.91383  0.32932  1.0000
  H   H1562     1.0  0.23169  0.94553  0.82239  1.0000
  S   S259      1.0  0.06149  0.80654  0.91166  1.0000
  H   H1563     1.0  0.14025  0.83155  0.81328  1.0000
  S   S260      1.0  0.03508  0.81988  0.88306  1.0000
  C   C1972     1.0  0.29422  0.94927  0.86940  1.0000
  Fe  Fe129     1.0  0.06211  0.82549  0.87888  1.0000
  S   S261      1.0  0.08107  0.85234  0.88554  1.0000
  H   H1564     1.0  0.37295  0.93680  0.81504  1.0000
  H   H1565     1.0  0.12552  0.80340  0.91502  1.0000
  S   S262      1.0  0.05650  0.80833  0.83886  1.0000
  H   H1566     1.0  0.16925  0.80377  0.92245  1.0000
  Fe  Fe130     1.0  0.37906  0.90708  0.71751  1.0000
  S   S263      1.0  0.37609  0.91738  0.67377  1.0000
  S   S264      1.0  0.40086  0.90072  0.73236  1.0000
  Fe  Fe131     1.0  0.34732  0.90886  0.74052  1.0000
  S   S265      1.0  0.34278  0.91996  0.69821  1.0000
  S   S266      1.0  0.33075  0.90755  0.77906  1.0000
  Fe  Fe132     1.0  0.34891  0.90110  0.67394  1.0000
  S   S267      1.0  0.33158  0.88384  0.63660  1.0000
  Fe  Fe133     1.0  0.37015  0.93541  0.70114  1.0000
  S   S268      1.0  0.38188  0.96217  0.68898  1.0000
  S   S269      1.0  0.35223  0.88922  0.71644  1.0000
  S   S270      1.0  0.37434  0.92589  0.74491  1.0000
  Fe  Fe134     1.0  0.17294  0.92861  0.86170  1.0000
  S   S271      1.0  0.19476  0.93518  0.83302  1.0000
  S   S272      1.0  0.15468  0.90137  0.85594  1.0000
  Fe  Fe135     1.0  0.18811  0.96320  0.89185  1.0000
  S   S273      1.0  0.21050  0.97197  0.86476  1.0000
  H   H1567     1.0  0.33522  0.87035  0.51241  1.0000
  Fe  Fe136     1.0  0.19315  0.95940  0.82531  1.0000
  S   S274      1.0  0.19551  0.96674  0.77618  1.0000
  Fe  Fe137     1.0  0.21050  0.94733  0.87383  1.0000
  S   S275      1.0  0.23489  0.94615  0.88680  1.0000
  S   S276      1.0  0.17024  0.95217  0.85168  1.0000
  S   S277      1.0  0.18923  0.93927  0.90332  1.0000
  Fe  Fe138     1.0  0.24772  0.83510  0.95386  1.0000
  C   C1973     1.0  0.99264  0.81382  0.87868  1.0000
  H   H1568     1.0  0.07647  0.85430  0.71998  1.0000
  Fe  Fe139     1.0  0.27279  0.85591  0.90895  1.0000
  S   S278      1.0  0.27648  0.87973  0.93177  1.0000
  S   S279      1.0  0.28534  0.85388  0.86652  1.0000
  C   C1974     1.0  0.98329  0.81013  0.85169  1.0000
  H   H1569     1.0  0.09384  0.79958  0.84535  1.0000
  Fe  Fe140     1.0  0.24906  0.86835  0.93580  1.0000
  S   S280      1.0  0.22866  0.87715  0.92945  1.0000
  S   S281      1.0  0.27559  0.84377  0.95152  1.0000
  S   S282      1.0  0.24500  0.84532  0.90992  1.0000
  C   C1975     1.0  0.23339  0.92681  0.89728  1.0000
  C   C1976     1.0  0.21807  0.91361  0.89657  1.0000
  C   C1977     1.0  0.21697  0.89832  0.90559  1.0000
  C   C1978     1.0  0.23112  0.89615  0.91552  1.0000
  C   C1979     1.0  0.24655  0.90923  0.91548  1.0000
  C   C1980     1.0  0.24767  0.92460  0.90641  1.0000
  H   H1570     1.0  0.20703  0.91515  0.88916  1.0000
  H   H1571     1.0  0.20506  0.88812  0.90484  1.0000
  H   H1572     1.0  0.25751  0.90757  0.92293  1.0000
  H   H1573     1.0  0.25959  0.93477  0.90660  1.0000
  H   H1574     1.0  0.44510  0.82096  0.90716  1.0000
  C   C1981     1.0  0.13201  0.83788  0.90531  1.0000
  H   H1575     1.0  0.33390  0.92792  0.87478  1.0000
  C   C1982     1.0  0.02218  0.80824  0.70543  1.0000
  C   C1983     1.0  0.23013  0.86135  0.85086  1.0000
  C   C1984     1.0  0.17170  0.90225  0.94470  1.0000
  C   C1985     1.0  0.31806  0.89229  0.80283  1.0000
  C   C1986     1.0  0.31001  0.89688  0.82517  1.0000
  C   C1987     1.0  0.30022  0.88542  0.84508  1.0000
  C   C1988     1.0  0.29790  0.86902  0.84242  1.0000
  C   C1989     1.0  0.30580  0.86438  0.81990  1.0000
  C   C1990     1.0  0.31591  0.87593  0.80040  1.0000
  H   H1576     1.0  0.31131  0.90938  0.82708  1.0000
  H   H1577     1.0  0.29441  0.88924  0.86241  1.0000
  H   H1578     1.0  0.30416  0.85175  0.81760  1.0000
  H   H1579     1.0  0.32195  0.87212  0.78339  1.0000
  C   C1991     1.0  0.32408  0.88373  0.59898  1.0000
  C   C1992     1.0  0.31115  0.86946  0.58675  1.0000
  C   C1993     1.0  0.30515  0.86843  0.55684  1.0000
  C   C1994     1.0  0.31226  0.88158  0.53837  1.0000
  C   C1995     1.0  0.32522  0.89585  0.55055  1.0000
  C   C1996     1.0  0.33091  0.89704  0.58069  1.0000
  H   H1580     1.0  0.30574  0.85906  0.60054  1.0000
  H   H1581     1.0  0.29533  0.85728  0.54791  1.0000
  H   H1582     1.0  0.33096  0.90607  0.53654  1.0000
  H   H1583     1.0  0.34076  0.90813  0.58960  1.0000
  H   H1584     1.0  0.22106  0.90924  0.48797  1.0000
  C   C1997     1.0  0.42491  0.94953  0.64126  1.0000
  C   C1998     1.0  0.05876  0.79662  0.76403  1.0000
  C   C1999     1.0  0.17106  0.79746  0.84821  1.0000
  H   H1585     1.0  0.38687  0.96350  0.75361  1.0000
  C   C2000     1.0  0.45082  0.91145  0.69054  1.0000
  C   C2001     1.0  0.43892  0.91599  0.67624  1.0000
  C   C2002     1.0  0.42374  0.91308  0.68882  1.0000
  C   C2003     1.0  0.42012  0.90538  0.71590  1.0000
  C   C2004     1.0  0.43209  0.90103  0.73044  1.0000
  C   C2005     1.0  0.44733  0.90406  0.71793  1.0000
  H   H1586     1.0  0.44145  0.92176  0.65518  1.0000
  H   H1587     1.0  0.41480  0.91666  0.67741  1.0000
  H   H1588     1.0  0.42948  0.89506  0.75138  1.0000
  H   H1589     1.0  0.45622  0.90035  0.72918  1.0000
  C   C2006     1.0  0.10168  0.86560  0.87721  1.0000
  C   C2007     1.0  0.11161  0.86044  0.86016  1.0000
  C   C2008     1.0  0.12774  0.87150  0.85410  1.0000
  C   C2009     1.0  0.13420  0.88796  0.86464  1.0000
  C   C2010     1.0  0.12428  0.89310  0.88170  1.0000
  C   C2011     1.0  0.10820  0.88201  0.88792  1.0000
  H   H1590     1.0  0.10684  0.84796  0.85152  1.0000
  H   H1591     1.0  0.13522  0.86731  0.84087  1.0000
  H   H1592     1.0  0.12895  0.90566  0.89000  1.0000
  H   H1593     1.0  0.10069  0.88623  0.90102  1.0000
  C   C2012     1.0  0.01291  0.81724  0.66054  1.0000
  H   H1594     1.0  0.39206  0.87331  0.52844  1.0000
  C   C2013     1.0  0.17253  0.84195  0.94873  1.0000
  H   H1595     1.0  0.19728  0.85391  0.93423  1.0000
  P   P67       1.0  0.24073  0.94450  0.50162  1.0000
  C   C2014     1.0  0.47929  0.82622  0.95121  1.0000
  C   C2015     1.0  0.14249  0.84703  0.92929  1.0000
  H   H1596     1.0  0.29942  0.96250  0.86935  1.0000
  C   C2016     1.0  0.18918  0.84455  0.94782  1.0000
  S   S283      1.0  0.25091  0.85804  0.97990  1.0000
  H   H1597     1.0  0.19326  0.92211  0.96380  1.0000
  C   C2017     1.0  0.35617  0.87647  0.54355  1.0000
  C   C2018     1.0  0.37206  0.87688  0.54882  1.0000
  P   P68       1.0  0.38329  0.88533  0.58385  1.0000
  C   C2019     1.0  0.40268  0.88323  0.58819  1.0000
  C   C2020     1.0  0.38609  0.90643  0.58426  1.0000
  C   C2021     1.0  0.37563  0.91152  0.59998  1.0000
  C   C2022     1.0  0.37729  0.92773  0.59915  1.0000
  C   C2023     1.0  0.38914  0.93887  0.58205  1.0000
  C   C2024     1.0  0.39929  0.93376  0.56560  1.0000
  C   C2025     1.0  0.39773  0.91757  0.56658  1.0000
  C   C2026     1.0  0.40306  0.86785  0.58312  1.0000
  C   C2027     1.0  0.41765  0.86566  0.58873  1.0000
  C   C2028     1.0  0.43190  0.87871  0.60002  1.0000
  C   C2029     1.0  0.43156  0.89395  0.60579  1.0000
  C   C2030     1.0  0.41698  0.89620  0.60021  1.0000
  C   C2031     1.0  0.37989  0.88023  0.64405  1.0000
  H   H1598     1.0  0.17345  0.93493  0.98253  1.0000
  H   H1599     1.0  0.35040  0.88055  0.56071  1.0000
  H   H1600     1.0  0.36602  0.90292  0.61264  1.0000
  H   H1601     1.0  0.36927  0.93158  0.61170  1.0000
  H   H1602     1.0  0.39034  0.95140  0.58141  1.0000
  H   H1603     1.0  0.40832  0.94234  0.55200  1.0000
  H   H1604     1.0  0.40548  0.91369  0.55341  1.0000
  H   H1605     1.0  0.39195  0.85746  0.57549  1.0000
  H   H1606     1.0  0.41784  0.85374  0.58503  1.0000
  C   C2032     1.0  0.46224  0.94828  0.74710  1.0000
  C   C2033     1.0  0.10697  0.80307  0.84382  1.0000
  H   H1607     1.0  0.41682  0.90787  0.60634  1.0000
  H   H1608     1.0  0.39194  0.89021  0.64725  1.0000
  H   H1609     1.0  0.44895  0.95089  0.63152  1.0000
  C   C2034     1.0  0.35677  0.86213  0.61216  1.0000
  C   C2035     1.0  0.32714  0.87629  0.89479  1.0000
  H   H1610     1.0  0.03161  0.83643  0.63828  1.0000
  H   H1611     1.0  0.27557  0.95547  0.48914  1.0000
  Fe  Fe141     1.0  0.02948  0.80110  0.84531  1.0000
  C   C2036     1.0  0.02899  0.82859  0.65710  1.0000
  S   S284      1.0  0.46934  0.91462  0.67241  1.0000
  C   C2037     1.0  0.23074  0.93662  0.77751  1.0000
  C   C2038     1.0  0.19143  0.81102  0.89922  1.0000
  C   C2039     1.0  0.25649  0.97681  0.52396  1.0000
  H   H1612     1.0  0.24640  0.95180  0.95588  1.0000
  H   H1613     1.0  0.37522  0.91550  0.92983  1.0000
  C   C2040     1.0  0.39371  0.97556  0.74564  1.0000
  C   C2041     1.0  0.30087  0.91909  0.75942  1.0000
  H   H1614     1.0  0.26741  0.88033  0.82171  1.0000
  H   H1615     1.0  0.38375  0.95510  0.87030  1.0000
  H   H1616     1.0  0.11014  0.82342  0.81625  1.0000
  H   H1617     1.0  0.31328  0.92816  0.75723  1.0000
  H   H1618     1.0  0.30237  0.90356  0.72380  1.0000
  H   H1619     1.0  0.35366  0.90151  0.81376  1.0000
  C   C2042     1.0  0.37233  0.87525  0.61546  1.0000
  C   C2043     1.0  0.32144  0.88077  0.92031  1.0000
  C   C2044     1.0  0.19596  0.89929  0.96518  1.0000
  H   H1620     1.0  0.06581  0.80669  0.77934  1.0000
  H   H1621     1.0  0.40428  0.92532  0.78031  1.0000
  H   H1622     1.0  0.32159  0.86369  0.88640  1.0000
  Fe  Fe142     1.0  0.05430  0.78910  0.87201  1.0000
  C   C2045     1.0  0.13174  0.79865  0.85708  1.0000
  H   H1623     1.0  0.44255  0.90385  0.61545  1.0000
  C   C2046     1.0  0.37953  0.87231  0.52561  1.0000
  C   C2047     1.0  0.25864  0.98560  0.91819  1.0000
  H   H1624     1.0  0.22310  0.95820  0.93735  1.0000
  C   C2048     1.0  0.25164  0.93281  0.55194  1.0000
  C   C2049     1.0  0.13308  0.82103  0.82573  1.0000
  H   H1625     1.0  0.46162  0.96223  0.68090  1.0000
  H   H1626     1.0  0.26811  0.90456  0.56087  1.0000
  C   C2050     1.0  0.46885  0.82989  0.93104  1.0000
  C   C2051     1.0  0.13561  0.85025  0.95474  1.0000
  H   H1627     1.0  0.22262  0.84991  0.86050  1.0000
  C   C2052     1.0  0.26292  0.91223  0.54978  1.0000
  C   C2053     1.0  0.37198  0.87232  0.66889  1.0000
  H   H1628     1.0  0.37791  0.87621  0.69086  1.0000
  C   C2054     1.0  0.38947  0.89646  0.81194  1.0000
  C   C2055     1.0  0.21184  0.95481  0.97936  1.0000
  C   C2056     1.0  0.12828  0.79465  0.92785  1.0000
  C   C2057     1.0  0.39781  0.96125  0.91195  1.0000
  P   P69       1.0  0.16462  0.85468  0.92788  1.0000
  C   C2058     1.0  0.17314  0.87565  0.94236  1.0000
  H   H1629     1.0  0.27423  0.88234  0.72914  1.0000
  H   H1630     1.0  0.40203  0.98668  0.78949  1.0000
  H   H1631     1.0  0.29416  0.91810  0.91173  1.0000
  C   C2059     1.0  0.17007  0.85560  0.88956  1.0000
  C   C2060     1.0  0.16809  0.86728  0.87120  1.0000
  C   C2061     1.0  0.17272  0.86848  0.84189  1.0000
  C   C2062     1.0  0.17930  0.85795  0.83050  1.0000
  C   C2063     1.0  0.18110  0.84611  0.84840  1.0000
  C   C2064     1.0  0.17637  0.84483  0.87770  1.0000
  H   H1632     1.0  0.13699  0.83516  0.88556  1.0000
  C   C2065     1.0  0.24282  0.96181  0.52525  1.0000
  C   C2066     1.0  0.37088  0.86663  0.49813  1.0000
  P   P70       1.0  0.26329  0.91112  0.81467  1.0000
  C   C2067     1.0  0.17429  0.80409  0.90101  1.0000
  H   H1633     1.0  0.16305  0.87560  0.87937  1.0000
  H   H1634     1.0  0.17130  0.87777  0.82823  1.0000
  H   H1635     1.0  0.18310  0.85907  0.80789  1.0000
  H   H1636     1.0  0.18627  0.83797  0.83967  1.0000
  H   H1637     1.0  0.17775  0.83551  0.89098  1.0000
  H   H1638     1.0  0.24986  0.85400  0.84166  1.0000
  C   C2068     1.0  0.16395  0.79738  0.87541  1.0000
  H   H1639     1.0  0.15392  0.81597  0.83876  1.0000
  C   C2069     1.0  0.38249  0.98610  0.62605  1.0000
  C   C2070     1.0  0.99189  0.80128  0.89737  1.0000
  C   C2071     1.0  0.34756  0.87079  0.51610  1.0000
  C   C2072     1.0  0.46540  0.96463  0.74120  1.0000
  H   H1640     1.0  0.24821  0.94099  0.56519  1.0000
  H   H1641     1.0  0.00076  0.82636  0.88484  1.0000
  C   C2073     1.0  0.20982  0.79439  0.95823  1.0000
  H   H1642     1.0  0.27541  0.90195  0.87048  1.0000
  H   H1643     1.0  0.34585  0.92139  0.92418  1.0000
  C   C2074     1.0  0.32825  0.89703  0.93083  1.0000
  C   C2075     1.0  0.34076  0.90883  0.91575  1.0000
  C   C2076     1.0  0.19838  0.81117  0.87208  1.0000
  H   H1644     1.0  0.41947  0.97244  0.82455  1.0000
  C   C2077     1.0  0.16211  0.82912  0.96538  1.0000
  H   H1645     1.0  0.24891  0.93182  0.84239  1.0000
  C   C2078     1.0  0.42062  0.96477  0.80676  1.0000
  C   C2079     1.0  0.44755  0.80266  0.93506  1.0000
  C   C2080     1.0  0.16457  0.88562  0.93654  1.0000
  C   C2081     1.0  0.24567  0.91953  0.76968  1.0000
  H   H1646     1.0  0.39576  0.89124  0.79768  1.0000
  C   C2082     1.0  0.29143  0.92086  0.78203  1.0000
  C   C2083     1.0  0.39363  0.97814  0.71517  1.0000
  H   H1647     1.0  0.36322  0.98156  0.65621  1.0000
  H   H1648     1.0  0.38068  0.97337  0.62444  1.0000
  C   C2084     1.0  0.14083  0.81213  0.84036  1.0000
  H   H1649     1.0  0.24933  0.91226  0.75460  1.0000
  C   C2085     1.0  0.34877  0.85445  0.63716  1.0000
  H   H1650     1.0  0.21873  0.98569  0.94362  1.0000
  C   C2086     1.0  0.25001  0.89144  0.82775  1.0000
  H   H1651     1.0  0.19942  0.81578  0.91909  1.0000
  H   H1652     1.0  0.22382  0.97193  0.58143  1.0000
  C   C2087     1.0  0.43186  0.97176  0.78504  1.0000
  C   C2088     1.0  0.27562  0.90877  0.78568  1.0000
  C   C2089     1.0  0.37765  0.93392  0.89757  1.0000
  C   C2090     1.0  0.38131  0.92829  0.92472  1.0000
  H   H1653     1.0  0.10325  0.86770  0.69744  1.0000
  C   C2091     1.0  0.45779  0.79900  0.95546  1.0000
  C   C2092     1.0  0.21319  0.91575  0.48483  1.0000
  C   C2093     1.0  0.44157  0.95323  0.64794  1.0000
  C   C2094     1.0  0.24543  0.86366  0.84029  1.0000
  C   C2095     1.0  0.23114  0.96008  0.54634  1.0000
  C   C2096     1.0  0.24546  0.93057  0.81890  1.0000
  C   C2097     1.0  0.27660  0.92297  0.84575  1.0000
  C   C2098     1.0  0.18747  0.90912  0.95869  1.0000
  H   H1654     1.0  0.20011  0.96894  0.71355  1.0000
  H   H1655     1.0  0.42340  0.93751  0.74143  1.0000
  H   H1656     1.0  0.19596  0.87551  0.96179  1.0000
  C   C2099     1.0  0.25066  0.92120  0.79999  1.0000
  P   P71       1.0  0.44843  0.97071  0.73414  1.0000
  C   C2100     1.0  0.41084  0.94799  0.80534  1.0000
  C   C2101     1.0  0.19547  0.83494  0.96399  1.0000
  S   S285      1.0  0.00931  0.79902  0.80936  1.0000
  S   S286      1.0  0.22688  0.81255  0.97237  1.0000
  C   C2102     1.0  0.18880  0.88260  0.95734  1.0000
  H   H1657     1.0  0.23435  0.98656  0.48645  1.0000
  C   C2103     1.0  0.23470  0.88907  0.83872  1.0000
  C   C2104     1.0  0.22482  0.87406  0.85015  1.0000
  S   S287      1.0  0.02307  0.79805  0.95934  1.0000
  H   H1658     1.0  0.23053  0.89888  0.83936  1.0000
  H   H1659     1.0  0.47266  0.93063  0.75510  1.0000
  C   C2105     1.0  0.18503  0.82218  0.98037  1.0000
  C   C2106     1.0  0.43917  0.96225  0.69789  1.0000
  H   H1660     1.0  0.35064  0.85777  0.59059  1.0000
  C   C2107     1.0  0.26061  0.91126  0.51888  1.0000
  H   H1661     1.0  0.32294  0.94392  0.84358  1.0000
  C   C2108     1.0  0.20577  0.98394  0.75377  1.0000
  H   H1662     1.0  0.21333  0.87254  0.85961  1.0000
  C   C2109     1.0  0.11853  0.84500  0.95567  1.0000
  H   H1663     1.0  0.41035  0.96395  0.95505  1.0000
  H   H1664     1.0  0.26019  0.92369  0.59029  1.0000
  H   H1665     1.0  0.19624  0.79650  0.49207  1.0000
  C   C2110     1.0  0.23294  0.97325  0.56540  1.0000
  C   C2111     1.0  0.11472  0.79428  0.85877  1.0000
  H   H1666     1.0  0.22063  0.94856  0.54808  1.0000
  P   P72       1.0  0.05499  0.81993  0.72766  1.0000
  C   C2112     1.0  0.05507  0.83098  0.76168  1.0000
  C   C2113     1.0  0.07453  0.82970  0.71097  1.0000
  C   C2114     1.0  0.08211  0.82033  0.69805  1.0000
  C   C2115     1.0  0.09724  0.82800  0.68515  1.0000
  C   C2116     1.0  0.10487  0.84506  0.68498  1.0000
  C   C2117     1.0  0.09735  0.85447  0.69760  1.0000
  C   C2118     1.0  0.08221  0.84684  0.71045  1.0000
  C   C2119     1.0  0.04023  0.83006  0.77282  1.0000
  C   C2120     1.0  0.04032  0.83800  0.79982  1.0000
  C   C2121     1.0  0.05519  0.84694  0.81592  1.0000
  C   C2122     1.0  0.07001  0.84788  0.80511  1.0000
  C   C2123     1.0  0.06996  0.83982  0.77829  1.0000
  C   C2124     1.0  0.03845  0.81941  0.70195  1.0000
  C   C2125     1.0  0.04173  0.82967  0.67765  1.0000
  S   S288      1.0  0.30668  0.88030  0.49942  1.0000
  H   H1667     1.0  0.43914  0.98480  0.78658  1.0000
  H   H1668     1.0  0.19361  0.80414  0.82564  1.0000
  C   C2126     1.0  0.24935  0.93192  0.52086  1.0000
  H   H1669     1.0  0.44315  0.87697  0.60504  1.0000
  C   C2127     1.0  0.25844  0.92300  0.56631  1.0000
  H   H1670     1.0  0.31162  0.87163  0.93177  1.0000
  H   H1671     1.0  0.41498  0.96104  0.70706  1.0000
  H   H1672     1.0  0.40223  0.94253  0.82224  1.0000
  H   H1673     1.0  0.07637  0.80711  0.69784  1.0000
  H   H1674     1.0  0.10304  0.82071  0.67524  1.0000
  H   H1675     1.0  0.11660  0.85100  0.67502  1.0000
  C   C2128     1.0  0.41203  0.93828  0.78184  1.0000
  C   C2129     1.0  0.00951  0.80709  0.68471  1.0000
  H   H1676     1.0  0.02848  0.82287  0.76129  1.0000
  H   H1677     1.0  0.02876  0.83680  0.80866  1.0000
  H   H1678     1.0  0.05525  0.85284  0.83714  1.0000
  H   H1679     1.0  0.08148  0.85458  0.81799  1.0000
  H   H1680     1.0  0.08156  0.84026  0.77096  1.0000
  H   H1681     1.0  0.05408  0.83842  0.67421  1.0000
  C   C2130     1.0  0.43338  0.96199  0.76162  1.0000
  H   H1682     1.0  0.40254  0.94977  0.65734  1.0000
  H   H1683     1.0  0.30615  0.94843  0.91169  1.0000
  C   C2131     1.0  0.29471  0.90517  0.74050  1.0000
  H   H1684     1.0  0.29665  0.93157  0.79675  1.0000
  H   H1685     1.0  0.16888  0.97691  0.72706  1.0000
  C   C2132     1.0  0.05193  0.79936  0.73707  1.0000
  H   H1686     1.0  0.26387  0.90278  0.50595  1.0000
  C   C2133     1.0  0.35596  0.94764  0.80438  1.0000
  C   C2134     1.0  0.26931  0.89503  0.76600  1.0000
  C   C2135     1.0  0.35636  0.85955  0.66549  1.0000
  Fe  Fe143     1.0  0.03410  0.79985  0.91360  1.0000
  C   C2136     1.0  0.38895  0.91120  0.85716  1.0000
  H   H1687     1.0  0.35005  0.85374  0.68486  1.0000
  C   C2137     1.0  0.34033  0.93349  0.85545  1.0000
  C   C2138     1.0  0.29127  0.92430  0.89329  1.0000
  C   C2139     1.0  0.37331  0.91051  0.84804  1.0000
  H   H1688     1.0  0.33651  0.84476  0.63461  1.0000
  C   C2140     1.0  0.23575  0.92723  0.75852  1.0000
  H   H1689     1.0  0.23190  0.92590  0.73515  1.0000
  H   H1690     1.0  0.36803  0.88953  0.78183  1.0000
  H   H1691     1.0  0.40912  0.90494  0.84600  1.0000
  H   H1692     1.0  0.36178  0.95279  0.78421  1.0000
  H   H1693     1.0  0.39503  0.91713  0.87805  1.0000
  H   H1694     1.0  0.98210  0.79579  0.76890  1.0000
  C   C2141     1.0  0.39700  0.90425  0.83907  1.0000
  C   C2142     1.0  0.38609  0.95047  0.89124  1.0000
  C   C2143     1.0  0.33954  0.88805  0.87949  1.0000
  C   C2144     1.0  0.34655  0.90443  0.88995  1.0000
  C   C2145     1.0  0.36221  0.93846  0.82190  1.0000
  H   H1695     1.0  0.20841  0.83712  0.96321  1.0000
  H   H1696     1.0  0.34338  0.88423  0.85941  1.0000
  H   H1697     1.0  0.15259  0.88077  0.92458  1.0000
  C   C2146     1.0  0.10820  0.83626  0.93143  1.0000
  C   C2147     1.0  0.45307  0.81810  0.92291  1.0000
  C   C2148     1.0  0.40123  0.95560  0.93905  1.0000
  C   C2149     1.0  0.27891  0.89318  0.74370  1.0000
  C   C2150     1.0  0.35440  0.93123  0.84754  1.0000
  C   C2151     1.0  0.36579  0.90245  0.82094  1.0000
  C   C2152     1.0  0.34185  0.94967  0.81225  1.0000
  H   H1698     1.0  0.33682  0.95644  0.79820  1.0000
  C   C2153     1.0  0.20576  0.98130  0.72288  1.0000
  P   P73       1.0  0.36282  0.91977  0.87066  1.0000
  H   H1699     1.0  0.24178  0.91146  0.97944  1.0000
  C   C2154     1.0  0.33407  0.94264  0.83781  1.0000
  C   C2155     1.0  0.28060  0.91513  0.86969  1.0000
  C   C2156     1.0  0.37386  0.89554  0.80292  1.0000
  H   H1700     1.0  0.40432  0.97400  0.90689  1.0000
  C   C2157     1.0  0.23563  0.93830  0.80765  1.0000
  C   C2158     1.0  0.47358  0.81075  0.96363  1.0000
  C   C2159     1.0  0.39300  0.93912  0.94541  1.0000
  H   H1701     1.0  0.22299  0.94256  0.76899  1.0000
  H   H1702     1.0  0.47283  0.84180  0.92147  1.0000
  C   C2160     1.0  0.29802  0.94136  0.89323  1.0000
  H   H1703     1.0  0.21168  0.81615  0.87110  1.0000
  H   H1704     1.0  0.10678  0.82584  0.88774  1.0000
  H   H1705     1.0  0.99933  0.80410  0.91812  1.0000
  C   C2161     1.0  0.28367  0.94013  0.84563  1.0000
  H   H1706     1.0  0.20842  0.90472  0.97505  1.0000
  Fe  Fe144     1.0  0.27824  0.86741  0.97463  1.0000
  H   H1707     1.0  0.28095  0.94644  0.82722  1.0000
  C   C2162     1.0  0.25537  0.87865  0.82891  1.0000
  C   C2163     1.0  0.11491  0.83251  0.90648  1.0000
  H   H1708     1.0  0.32375  0.90040  0.95073  1.0000
  H   H1709     1.0  0.09498  0.83264  0.93173  1.0000
  C   C2164     1.0  0.11615  0.81648  0.82742  1.0000
  C   C2165     1.0  0.25392  0.92111  0.50453  1.0000
  H   H1710     1.0  0.25705  0.88566  0.76800  1.0000
  C   C2166     1.0  0.14524  0.79388  0.48664  1.0000
  H   H1711     1.0  0.01931  0.80023  0.72391  1.0000
  C   C2167     1.0  0.44871  0.95961  0.67611  1.0000
  H   H1712     1.0  0.41932  0.94432  0.61966  1.0000
  H   H1713     1.0  0.20175  0.95755  0.97048  1.0000
  C   C2168     1.0  0.15911  0.94923  0.97805  1.0000
  H   H1714     1.0  0.21795  0.79460  0.91408  1.0000
  C   C2169     1.0  0.23725  0.95181  0.97094  1.0000
  H   H1715     1.0  0.16520  0.90989  0.93900  1.0000
  H   H1716     1.0  0.16336  0.81806  0.49857  1.0000
  C   C2170     1.0  0.12337  0.79233  0.95700  1.0000
  H   H1717     1.0  0.14349  0.85717  0.97357  1.0000
  C   C2171     1.0  0.22400  0.95525  0.96039  1.0000
  C   C2172     1.0  0.42252  0.95884  0.69079  1.0000
  H   H1718     1.0  0.01145  0.80327  0.51212  1.0000
  H   H1719     1.0  0.16331  0.79186  0.82839  1.0000
  H   H1720     1.0  0.43532  0.79354  0.92871  1.0000
  H   H1721     1.0  0.14694  0.96572  0.97847  1.0000
  C   C2173     1.0  0.41543  0.95247  0.66257  1.0000
  H   H1722     1.0  0.11649  0.79883  0.96584  1.0000
  H   H1723     1.0  0.14915  0.82654  0.96616  1.0000
  H   H1724     1.0  0.26578  0.97846  0.50824  1.0000
  C   C2174     1.0  0.42305  0.94525  0.75985  1.0000
  C   C2175     1.0  0.20865  0.94070  0.48558  1.0000
  H   H1725     1.0  0.44981  0.93915  0.74788  1.0000
  H   H1726     1.0  0.25108  0.98217  0.87171  1.0000
  S   S289      1.0  0.18394  0.97895  0.92846  1.0000
  H   H1727     1.0  0.00306  0.81621  0.64442  1.0000
  C   C2176     1.0  0.18820  0.80439  0.84656  1.0000
  H   H1728     1.0  0.25946  0.97387  0.91952  1.0000
  H   H1729     1.0  0.20156  0.86002  0.50322  1.0000
  C   C2177     1.0  0.24650  0.98816  0.56379  1.0000
  H   H1730     1.0  0.11326  0.84795  0.97489  1.0000
  H   H1731     1.0  0.05607  0.79750  0.97681  1.0000
  C   C2178     1.0  0.35487  0.86579  0.49344  1.0000
  C   C2179     1.0  0.47522  0.94331  0.75109  1.0000
  H   H1732     1.0  0.99706  0.79815  0.68717  1.0000
  H   H1733     1.0  0.15204  0.94237  0.95843  1.0000
  C   C2180     1.0  0.21922  0.93271  0.49071  1.0000
  H   H1734     1.0  0.98429  0.81980  0.83677  1.0000
  C   C2181     1.0  0.15161  0.81094  0.48685  1.0000
  H   H1735     1.0  0.26243  0.89934  0.97972  1.0000
  C   C2182     1.0  0.00366  0.79095  0.50420  1.0000
  H   H1736     1.0  0.39571  0.93469  0.96634  1.0000
  C   C2183     1.0  0.16834  0.81922  0.98096  1.0000
  H   H1737     1.0  0.21308  0.95382  0.48917  1.0000
  H   H1738     1.0  0.05491  0.80930  0.48455  1.0000
  C   C2184     1.0  0.83145  0.01103  0.40845  1.0000
  H   H1739     1.0  0.56700  0.04017  0.99765  1.0000
  C   C2185     1.0  0.76534  0.14982  0.10618  1.0000
  Fe  Fe145     1.0  0.90973  0.16436  0.11226  1.0000
  S   S290      1.0  0.88777  0.13980  0.09916  1.0000
  C   C2186     1.0  0.80657  0.99299  0.00347  1.0000
  Fe  Fe146     1.0  0.69261  0.12847  0.04762  1.0000
  S   S291      1.0  0.69270  0.11318  0.00724  1.0000
  S   S292      1.0  0.66961  0.11607  0.07477  1.0000
  Fe  Fe147     1.0  0.72442  0.15752  0.02951  1.0000
  C   C2187     1.0  0.90867  0.17028  0.30437  1.0000
  H   H1740     1.0  0.54752  0.00519  0.21850  1.0000
  C   C2188     1.0  0.91041  0.16198  0.32959  1.0000
  S   S293      1.0  0.68267  0.13782  0.44900  1.0000
  Fe  Fe148     1.0  0.72011  0.12274  0.01700  1.0000
  S   S294      1.0  0.73534  0.10783  0.01231  1.0000
  S   S295      1.0  0.69700  0.15080  0.02082  1.0000
  S   S296      1.0  0.71980  0.13617  0.05920  1.0000
  Fe  Fe149     1.0  0.79921  0.06366  0.13756  1.0000
  S   S297      1.0  0.77771  0.05938  0.16611  1.0000
  S   S298      1.0  0.82353  0.08538  0.15334  1.0000
  Fe  Fe150     1.0  0.77725  0.03622  0.09280  1.0000
  S   S299      1.0  0.75440  0.03056  0.11786  1.0000
  S   S300      1.0  0.77885  0.02649  0.04608  1.0000
  Fe  Fe151     1.0  0.76305  0.05777  0.12355  1.0000
  S   S301      1.0  0.74544  0.07033  0.12433  1.0000
  Fe  Fe152     1.0  0.77032  0.03227  0.15959  1.0000
  S   S302      1.0  0.75603  0.01560  0.19669  1.0000
  S   S303      1.0  0.78469  0.06360  0.09548  1.0000
  S   S304      1.0  0.79305  0.03639  0.13404  1.0000
  Fe  Fe153     1.0  0.62783  0.09143  0.23791  1.0000
  S   S305      1.0  0.63294  0.07582  0.27237  1.0000
  S   S306      1.0  0.65001  0.10664  0.21077  1.0000
  Fe  Fe154     1.0  0.59196  0.08111  0.25654  1.0000
  S   S307      1.0  0.59504  0.06499  0.29203  1.0000
  S   S308      1.0  0.56754  0.08243  0.23954  1.0000
  Fe  Fe155     1.0  0.62004  0.08542  0.30442  1.0000
  S   S309      1.0  0.62845  0.08771  0.35435  1.0000
  Fe  Fe156     1.0  0.60793  0.05655  0.25825  1.0000
  S   S310      1.0  0.60605  0.03046  0.25292  1.0000
  S   S311      1.0  0.61613  0.10236  0.27088  1.0000
  S   S312      1.0  0.60366  0.07139  0.22168  1.0000
  S   S313      1.0  0.49890  0.07808  0.28702  1.0000
  C   C2189     1.0  0.54795  0.07958  0.25297  1.0000
  C   C2190     1.0  0.54439  0.07694  0.28280  1.0000
  C   C2191     1.0  0.52917  0.07612  0.29257  1.0000
  C   C2192     1.0  0.51718  0.07766  0.27270  1.0000
  C   C2193     1.0  0.52044  0.07951  0.24263  1.0000
  C   C2194     1.0  0.53575  0.08059  0.23294  1.0000
  H   H1741     1.0  0.55356  0.07608  0.29850  1.0000
  H   H1742     1.0  0.52680  0.07461  0.31585  1.0000
  H   H1743     1.0  0.51138  0.08060  0.22696  1.0000
  H   H1744     1.0  0.53829  0.08252  0.20979  1.0000
  C   C2195     1.0  0.79701  0.99190  0.43813  1.0000
  C   C2196     1.0  0.58724  0.99836  0.23630  1.0000
  C   C2197     1.0  0.58752  0.01411  0.24009  1.0000
  C   C2198     1.0  0.57312  0.01649  0.23359  1.0000
  C   C2199     1.0  0.55856  0.00320  0.22355  1.0000
  H   H1745     1.0  0.60022  0.99410  0.05218  1.0000
  H   H1746     1.0  0.57318  0.02856  0.23641  1.0000
  C   C2200     1.0  0.76663  0.00876  0.02352  1.0000
  C   C2201     1.0  0.80104  0.99154  0.05583  1.0000
  H   H1747     1.0  0.79027  0.02235  0.31986  1.0000
  S   S314      1.0  0.72589  0.14428  0.98772  1.0000
  C   C2202     1.0  0.79511  0.12673  0.05986  1.0000
  H   H1748     1.0  0.72325  0.11871  0.12902  1.0000
  C   C2203     1.0  0.79084  0.99280  0.11753  1.0000
  C   C2204     1.0  0.75611  0.00277  0.22687  1.0000
  C   C2205     1.0  0.48807  0.10393  0.21754  1.0000
  H   H1749     1.0  0.88647  0.18345  0.03736  1.0000
  C   C2206     1.0  0.61308  0.08127  0.44475  1.0000
  C   C2207     1.0  0.48774  0.03581  0.28176  1.0000
  H   H1750     1.0  0.81772  0.15541  0.98516  1.0000
  C   C2208     1.0  0.66424  0.11441  0.11272  1.0000
  C   C2209     1.0  0.64825  0.10356  0.11948  1.0000
  C   C2210     1.0  0.64358  0.10114  0.14914  1.0000
  C   C2211     1.0  0.65487  0.10951  0.17265  1.0000
  C   C2212     1.0  0.67076  0.12057  0.16584  1.0000
  C   C2213     1.0  0.67542  0.12304  0.13618  1.0000
  H   H1751     1.0  0.63937  0.09697  0.10168  1.0000
  H   H1752     1.0  0.63120  0.09293  0.15379  1.0000
  H   H1753     1.0  0.67953  0.12734  0.18368  1.0000
  H   H1754     1.0  0.68772  0.13149  0.13153  1.0000
  C   C2214     1.0  0.66844  0.12337  0.42212  1.0000
  C   C2215     1.0  0.66059  0.10664  0.42719  1.0000
  C   C2216     1.0  0.64875  0.09594  0.40590  1.0000
  C   C2217     1.0  0.64467  0.10167  0.37904  1.0000
  C   C2218     1.0  0.65275  0.11834  0.37375  1.0000
  C   C2219     1.0  0.66440  0.12908  0.39522  1.0000
  H   H1755     1.0  0.66342  0.10199  0.44769  1.0000
  H   H1756     1.0  0.64264  0.08311  0.41038  1.0000
  H   H1757     1.0  0.64973  0.12305  0.35345  1.0000
  H   H1758     1.0  0.67030  0.14198  0.39100  1.0000
  C   C2220     1.0  0.74370  0.08146  0.09347  1.0000
  C   C2221     1.0  0.73414  0.09061  0.09521  1.0000
  C   C2222     1.0  0.73167  0.09891  0.07056  1.0000
  C   C2223     1.0  0.73884  0.09815  0.04399  1.0000
  C   C2224     1.0  0.74872  0.08927  0.04241  1.0000
  C   C2225     1.0  0.75118  0.08096  0.06711  1.0000
  H   H1759     1.0  0.72848  0.09112  0.11563  1.0000
  H   H1760     1.0  0.72402  0.10567  0.07194  1.0000
  H   H1761     1.0  0.75429  0.08862  0.02190  1.0000
  H   H1762     1.0  0.75858  0.07392  0.06556  1.0000
  C   C2226     1.0  0.55911  0.04034  0.32627  1.0000
  C   C2227     1.0  0.86937  0.12549  0.11430  1.0000
  C   C2228     1.0  0.86559  0.12665  0.14377  1.0000
  C   C2229     1.0  0.85142  0.11444  0.15508  1.0000
  C   C2230     1.0  0.84058  0.10104  0.13705  1.0000
  C   C2231     1.0  0.84401  0.10026  0.10722  1.0000
  C   C2232     1.0  0.85832  0.11231  0.09606  1.0000
  H   H1763     1.0  0.87372  0.13684  0.15793  1.0000
  H   H1764     1.0  0.84889  0.11532  0.17810  1.0000
  H   H1765     1.0  0.83589  0.09012  0.09294  1.0000
  H   H1766     1.0  0.86101  0.11127  0.07319  1.0000
  C   C2233     1.0  0.71199  0.10948  0.13659  1.0000
  H   H1767     1.0  0.70952  0.99447  0.06001  1.0000
  C   C2234     1.0  0.64936  0.05181  0.22455  1.0000
  C   C2235     1.0  0.65078  0.03690  0.22164  1.0000
  C   C2236     1.0  0.66595  0.03661  0.21549  1.0000
  C   C2237     1.0  0.67974  0.05127  0.21259  1.0000
  C   C2238     1.0  0.67842  0.06632  0.21595  1.0000
  C   C2239     1.0  0.66300  0.06646  0.22121  1.0000
  C   C2240     1.0  0.69409  0.09998  0.23902  1.0000
  C   C2241     1.0  0.72185  0.08494  0.25100  1.0000
  C   C2242     1.0  0.69389  0.12659  0.25000  1.0000
  C   C2243     1.0  0.68799  0.12150  0.27786  1.0000
  C   C2244     1.0  0.68528  0.10574  0.28653  1.0000
  C   C2245     1.0  0.68833  0.09502  0.26724  1.0000
  H   H1768     1.0  0.63763  0.05203  0.22952  1.0000
  H   H1769     1.0  0.64008  0.02562  0.22435  1.0000
  H   H1770     1.0  0.66706  0.02503  0.21333  1.0000
  H   H1771     1.0  0.69140  0.05079  0.20806  1.0000
  H   H1772     1.0  0.66151  0.07790  0.22314  1.0000
  H   H1773     1.0  0.71651  0.08911  0.26866  1.0000
  H   H1774     1.0  0.82378  0.00797  0.03793  1.0000
  C   C2246     1.0  0.62460  0.02565  0.14383  1.0000
  H   H1775     1.0  0.68521  0.12964  0.29254  1.0000
  H   H1776     1.0  0.68038  0.10171  0.30794  1.0000
  H   H1777     1.0  0.68570  0.08271  0.27405  1.0000
  H   H1778     1.0  0.48990  0.16786  0.42765  1.0000
  C   C2247     1.0  0.78134  0.10176  0.17015  1.0000
  C   C2248     1.0  0.89875  0.15803  0.35118  1.0000
  H   H1779     1.0  0.60575  0.01538  0.17524  1.0000
  C   C2249     1.0  0.89414  0.14030  0.21517  1.0000
  C   C2250     1.0  0.87325  0.17654  0.03673  1.0000
  H   H1780     1.0  0.61337  0.11853  0.43009  1.0000
  C   C2251     1.0  0.79772  0.17419  0.02375  1.0000
  H   H1781     1.0  0.52016  0.15568  0.23849  1.0000
  C   C2252     1.0  0.61395  0.10861  0.44291  1.0000
  H   H1782     1.0  0.84397  0.00786  0.09892  1.0000
  H   H1783     1.0  0.60780  0.04222  0.19411  1.0000
  C   C2253     1.0  0.88339  0.17044  0.32262  1.0000
  C   C2254     1.0  0.66291  0.05758  0.05392  1.0000
  C   C2255     1.0  0.81163  0.99841  0.03298  1.0000
  H   H1784     1.0  0.63540  0.08197  0.05305  1.0000
  H   H1785     1.0  0.62357  0.01376  0.13602  1.0000
  H   H1786     1.0  0.75001  0.99611  0.05676  1.0000
  C   C2256     1.0  0.77180  0.16605  0.09772  1.0000
  H   H1787     1.0  0.54358  0.99844  0.28376  1.0000
  H   H1788     1.0  0.53534  0.18548  0.23548  1.0000
  P   P74       1.0  0.80641  0.13975  0.11757  1.0000
  H   H1789     1.0  0.68333  0.06321  0.10127  1.0000
  H   H1790     1.0  0.48791  0.14181  0.26027  1.0000
  C   C2257     1.0  0.94276  0.17587  0.29304  1.0000
  C   C2258     1.0  0.49940  0.11100  0.24160  1.0000
  H   H1791     1.0  0.84473  0.13873  0.05032  1.0000
  C   C2259     1.0  0.49983  0.12502  0.25671  1.0000
  C   C2260     1.0  0.76956  0.99887  0.23442  1.0000
  P   P75       1.0  0.51372  0.13378  0.28888  1.0000
  C   C2261     1.0  0.50088  0.12871  0.32022  1.0000
  C   C2262     1.0  0.80861  0.13173  0.17693  1.0000
  H   H1792     1.0  0.53681  0.04192  0.30993  1.0000
  C   C2263     1.0  0.49566  0.11309  0.33184  1.0000
  C   C2264     1.0  0.53007  0.12661  0.29141  1.0000
  C   C2265     1.0  0.53865  0.12638  0.26612  1.0000
  C   C2266     1.0  0.55161  0.12128  0.26787  1.0000
  C   C2267     1.0  0.55640  0.11677  0.29499  1.0000
  C   C2268     1.0  0.54823  0.11734  0.32041  1.0000
  C   C2269     1.0  0.53519  0.12236  0.31872  1.0000
  H   H1793     1.0  0.86898  0.04043  0.39456  1.0000
  H   H1794     1.0  0.54131  0.04262  0.25127  1.0000
  H   H1795     1.0  0.67514  0.07283  0.01834  1.0000
  H   H1796     1.0  0.87286  0.17363  0.31983  1.0000
  H   H1797     1.0  0.65603  0.01749  0.14205  1.0000
  H   H1798     1.0  0.49973  0.10416  0.32287  1.0000
  H   H1799     1.0  0.53520  0.12998  0.24495  1.0000
  H   H1800     1.0  0.55783  0.12056  0.24814  1.0000
  H   H1801     1.0  0.56629  0.11256  0.29612  1.0000
  H   H1802     1.0  0.55191  0.11371  0.34135  1.0000
  H   H1803     1.0  0.52921  0.12290  0.33876  1.0000
  C   C2270     1.0  0.88525  0.16226  0.34772  1.0000
  H   H1804     1.0  0.48760  0.98968  0.30084  1.0000
  C   C2271     1.0  0.64987  0.13196  0.01790  1.0000
  C   C2272     1.0  0.71476  0.08235  0.22188  1.0000
  C   C2273     1.0  0.52331  0.01847  0.23676  1.0000
  H   H1805     1.0  0.82915  0.01802  0.14340  1.0000
  C   C2274     1.0  0.68272  0.08598  0.15608  1.0000
  H   H1806     1.0  0.82543  0.04598  0.41960  1.0000
  C   C2275     1.0  0.73618  0.07398  0.20632  1.0000
  H   H1807     1.0  0.75355  0.99521  0.11965  1.0000
  C   C2276     1.0  0.69696  0.11591  0.23064  1.0000
  H   H1808     1.0  0.63042  0.05997  0.08799  1.0000
  C   C2277     1.0  0.49459  0.13970  0.33120  1.0000
  H   H1809     1.0  0.87620  0.15913  0.36442  1.0000
  C   C2278     1.0  0.80773  0.15756  0.99453  1.0000
  C   C2279     1.0  0.54743  0.00993  0.29605  1.0000
  H   H1810     1.0  0.58099  0.03627  0.33739  1.0000
  C   C2280     1.0  0.74313  0.07656  0.23534  1.0000
  C   C2281     1.0  0.74199  0.99601  0.24349  1.0000
  C   C2282     1.0  0.66762  0.04008  0.11927  1.0000
  H   H1811     1.0  0.69559  0.13867  0.24303  1.0000
  H   H1812     1.0  0.62862  0.06773  0.17555  1.0000
  C   C2283     1.0  0.64290  0.07497  0.05305  1.0000
  C   C2284     1.0  0.63741  0.05524  0.14391  1.0000
  H   H1813     1.0  0.50603  0.99605  0.21423  1.0000
  C   C2285     1.0  0.83164  0.03807  0.41474  1.0000
  C   C2286     1.0  0.69801  0.10279  0.11713  1.0000
  C   C2287     1.0  0.61449  0.02647  0.16610  1.0000
  H   H1814     1.0  0.79020  0.13594  0.05730  1.0000
  H   H1815     1.0  0.75401  0.07420  0.24051  1.0000
  C   C2288     1.0  0.82848  0.02612  0.12630  1.0000
  P   P76       1.0  0.83220  0.18603  0.02129  1.0000
  H   H1816     1.0  0.90016  0.15163  0.37059  1.0000
  C   C2289     1.0  0.80683  0.10214  0.06533  1.0000
  C   C2290     1.0  0.84790  0.01804  0.40094  1.0000
  C   C2291     1.0  0.77585  0.14199  0.11275  1.0000
  H   H1817     1.0  0.74169  0.06967  0.18900  1.0000
  H   H1818     1.0  0.49870  0.02842  0.24625  1.0000
  C   C2292     1.0  0.63830  0.01986  0.08106  1.0000
  C   C2293     1.0  0.77076  0.00777  0.99402  1.0000
  Fe  Fe157     1.0  0.94188  0.18710  0.14878  1.0000
  H   H1819     1.0  0.68225  0.01784  0.16393  1.0000
  C   C2294     1.0  0.56298  0.01616  0.31106  1.0000
  H   H1820     1.0  0.50980  0.01618  0.33437  1.0000
  C   C2295     1.0  0.81940  0.01975  0.09931  1.0000
  C   C2296     1.0  0.49397  0.02904  0.33118  1.0000
  H   H1821     1.0  0.74840  0.99258  0.36703  1.0000
  C   C2297     1.0  0.83915  0.15921  0.03770  1.0000
  C   C2298     1.0  0.62243  0.99010  0.04851  1.0000
  C   C2299     1.0  0.78877  0.17439  0.09531  1.0000
  C   C2300     1.0  0.61653  0.08331  0.47548  1.0000
  H   H1822     1.0  0.49276  0.02952  0.35490  1.0000
  H   H1823     1.0  0.76581  0.13975  0.99583  1.0000
  C   C2301     1.0  0.89960  0.15079  0.24042  1.0000
  H   H1824     1.0  0.77658  0.00097  0.08685  1.0000
  H   H1825     1.0  0.82424  0.05573  0.06792  1.0000
  C   C2302     1.0  0.94551  0.16145  0.29286  1.0000
  H   H1826     1.0  0.50752  0.10527  0.24869  1.0000
  C   C2303     1.0  0.48566  0.02610  0.18415  1.0000
  C   C2304     1.0  0.62977  0.10430  0.00688  1.0000
  C   C2305     1.0  0.83503  0.05370  0.11060  1.0000
  C   C2306     1.0  0.81075  0.03182  0.47648  1.0000
  H   H1827     1.0  0.80855  0.02538  0.36446  1.0000
  P   P77       1.0  0.51819  0.01179  0.27393  1.0000
  H   H1828     1.0  0.92071  0.15852  0.33271  1.0000
  H   H1829     1.0  0.82167  0.02926  0.47804  1.0000
  H   H1830     1.0  0.56390  0.05237  0.33717  1.0000
  C   C2307     1.0  0.63827  0.11720  0.02740  1.0000
  C   C2308     1.0  0.50744  0.98972  0.27453  1.0000
  C   C2309     1.0  0.85713  0.16141  0.12032  1.0000
  C   C2310     1.0  0.48830  0.13145  0.24812  1.0000
  C   C2311     1.0  0.74721  0.99215  0.47229  1.0000
  C   C2312     1.0  0.54366  0.03427  0.31092  1.0000
  P   P78       1.0  0.80798  0.99793  0.09403  1.0000
  C   C2313     1.0  0.48607  0.03620  0.31231  1.0000
  H   H1831     1.0  0.84077  0.06678  0.11530  1.0000
  C   C2314     1.0  0.53227  0.16530  0.31168  1.0000
  C   C2315     1.0  0.81790  0.03056  0.07834  1.0000
  C   C2316     1.0  0.54099  0.18219  0.30977  1.0000
  H   H1832     1.0  0.85451  0.05821  0.40663  1.0000
  C   C2317     1.0  0.62731  0.05600  0.16621  1.0000
  P   P79       1.0  0.92370  0.17566  0.27641  1.0000
  C   C2318     1.0  0.82327  0.02102  0.41581  1.0000
  C   C2319     1.0  0.91646  0.16071  0.24582  1.0000
  S   S315      1.0  0.96071  0.18717  0.18593  1.0000
  C   C2320     1.0  0.78883  0.01049  0.39159  1.0000
  H   H1833     1.0  0.65778  0.08872  0.01862  1.0000
  C   C2321     1.0  0.81104  0.17158  0.01269  1.0000
  C   C2322     1.0  0.89503  0.17444  0.30102  1.0000
  C   C2323     1.0  0.97138  0.17535  0.32157  1.0000
  H   H1834     1.0  0.54927  0.05152  0.20119  1.0000
  H   H1835     1.0  0.96195  0.15015  0.30629  1.0000
  H   H1836     1.0  0.78056  0.00401  0.22216  1.0000
  C   C2324     1.0  0.76153  0.99975  0.36660  1.0000
  C   C2325     1.0  0.76820  0.00744  0.34074  1.0000
  C   C2326     1.0  0.78516  0.01662  0.34014  1.0000
  C   C2327     1.0  0.79547  0.01823  0.36551  1.0000
  H   H1837     1.0  0.60978  0.09251  0.40451  1.0000
  S   S316      1.0  0.93681  0.16973  0.10862  1.0000
  C   C2328     1.0  0.61728  0.11068  0.47364  1.0000
  H   H1838     1.0  0.51475  0.00497  0.16430  1.0000
  H   H1839     1.0  0.77133  0.16470  0.02680  1.0000
  C   C2329     1.0  0.82577  0.04747  0.08391  1.0000
  H   H1840     1.0  0.48441  0.04845  0.20000  1.0000
  C   C2330     1.0  0.77705  0.99578  0.10819  1.0000
  C   C2331     1.0  0.78471  0.02850  0.45176  1.0000
  C   C2332     1.0  0.92218  0.14964  0.20021  1.0000
  C   C2333     1.0  0.66536  0.06989  0.03359  1.0000
  H   H1841     1.0  0.88112  0.13270  0.21096  1.0000
  H   H1842     1.0  0.57082  0.00952  0.30996  1.0000
  H   H1843     1.0  0.89060  0.15121  0.25533  1.0000
  C   C2334     1.0  0.49739  0.02836  0.26994  1.0000
  C   C2335     1.0  0.56876  0.03128  0.32638  1.0000
  H   H1844     1.0  0.82607  0.15247  0.03973  1.0000
  C   C2336     1.0  0.68340  0.09109  0.12690  1.0000
  C   C2337     1.0  0.64043  0.06272  0.07342  1.0000
  H   H1845     1.0  0.69832  0.10694  0.09466  1.0000
  H   H1846     1.0  0.84312  0.04792  0.15282  1.0000
  C   C2338     1.0  0.79785  0.10278  0.03950  1.0000
  C   C2339     1.0  0.79196  0.11503  0.03682  1.0000
  H   H1847     1.0  0.75212  0.14326  0.10739  1.0000
  H   H1848     1.0  0.77942  0.10761  0.12477  1.0000
  H   H1849     1.0  0.77087  0.09008  0.16741  1.0000
  H   H1850     1.0  0.76361  0.17210  0.09261  1.0000
  C   C2340     1.0  0.92768  0.15997  0.22559  1.0000
  C   C2341     1.0  0.79016  0.10651  0.19755  1.0000
  H   H1851     1.0  0.81026  0.02604  0.05807  1.0000
  H   H1852     1.0  0.61180  0.07005  0.43326  1.0000
  H   H1853     1.0  0.65687  0.14171  0.03400  1.0000
  C   C2342     1.0  0.53984  0.03937  0.20405  1.0000
  C   C2343     1.0  0.69733  0.04045  0.14461  1.0000
  C   C2344     1.0  0.69747  0.05317  0.12697  1.0000
  C   C2345     1.0  0.84072  0.15035  0.11472  1.0000
  C   C2346     1.0  0.95982  0.16125  0.30686  1.0000
  H   H1854     1.0  0.81596  0.11234  0.10913  1.0000
  C   C2347     1.0  0.52033  0.01322  0.18334  1.0000
  C   C2348     1.0  0.66754  0.02751  0.13764  1.0000
  C   C2349     1.0  0.85624  0.03503  0.40042  1.0000
  H   H1855     1.0  0.81117  0.09248  0.06766  1.0000
  P   P80       1.0  0.69614  0.08540  0.21300  1.0000
  H   H1856     1.0  0.72238  0.10945  0.18051  1.0000
  H   H1857     1.0  0.53629  0.03274  0.15742  1.0000
  C   C2350     1.0  0.53248  0.02883  0.17945  1.0000
  H   H1858     1.0  0.67124  0.07719  0.16345  1.0000
  H   H1859     1.0  0.66057  0.01578  0.07624  1.0000
  H   H1860     1.0  0.87497  0.15420  0.04987  1.0000
  H   H1861     1.0  0.86107  0.99268  0.11142  1.0000
  C   C2351     1.0  0.50363  0.02157  0.31948  1.0000
  H   H1862     1.0  0.59837  0.99646  0.24122  1.0000
  C   C2352     1.0  0.84971  0.15141  0.04422  1.0000
  H   H1863     1.0  0.86706  0.15857  0.11241  1.0000
  C   C2353     1.0  0.68235  0.02767  0.15011  1.0000
  C   C2354     1.0  0.61190  0.09394  0.42847  1.0000
  C   C2355     1.0  0.63579  0.04005  0.13187  1.0000
  H   H1864     1.0  0.53185  0.15974  0.33296  1.0000
  C   C2356     1.0  0.82776  0.15404  0.12443  1.0000
  C   C2357     1.0  0.53530  0.03424  0.23258  1.0000
  H   H1865     1.0  0.76147  0.18551  0.99358  1.0000
  H   H1866     1.0  0.74137  0.08402  0.28018  1.0000
  C   C2358     1.0  0.83637  0.04303  0.13179  1.0000
  C   C2359     1.0  0.84810  0.04504  0.40725  1.0000
  H   H1867     1.0  0.71685  0.07468  0.17698  1.0000
  C   C2360     1.0  0.79881  0.02501  0.45294  1.0000
  H   H1868     1.0  0.81932  0.14315  0.18008  1.0000
  H   H1869     1.0  0.79963  0.18503  0.03692  1.0000
  C   C2361     1.0  0.69677  0.09237  0.17559  1.0000
  H   H1870     1.0  0.82517  0.99785  0.40841  1.0000
  C   C2362     1.0  0.86676  0.16010  0.04390  1.0000
  S   S317      1.0  0.91469  0.17996  0.15417  1.0000
  S   S318      1.0  0.91164  0.18484  0.08234  1.0000
  C   C2363     1.0  0.50546  0.02123  0.28876  1.0000
  C   C2364     1.0  0.71143  0.10423  0.16569  1.0000
  C   C2365     1.0  0.80965  0.11353  0.08872  1.0000
  H   H1871     1.0  0.94069  0.16772  0.22905  1.0000
  H   H1872     1.0  0.64624  0.06654  0.13583  1.0000
  H   H1873     1.0  0.82193  0.17131  0.15063  1.0000
  H   H1874     1.0  0.70888  0.04056  0.15391  1.0000
  H   H1875     1.0  0.73150  0.99890  0.23802  1.0000
  C   C2366     1.0  0.65274  0.13395  0.98778  1.0000
  C   C2367     1.0  0.73599  0.08206  0.25765  1.0000
  C   C2368     1.0  0.80395  0.12603  0.08611  1.0000
  C   C2369     1.0  0.51556  0.00813  0.21184  1.0000
  C   C2370     1.0  0.86080  0.17606  0.13630  1.0000
  H   H1876     1.0  0.77047  0.12936  0.11889  1.0000
  C   C2371     1.0  0.79297  0.15029  0.11056  1.0000
  H   H1877     1.0  0.48027  0.09635  0.36272  1.0000
  C   C2372     1.0  0.72207  0.07685  0.19959  1.0000
  H   H1878     1.0  0.62105  0.09296  0.01489  1.0000
  H   H1879     1.0  0.67062  0.05080  0.05357  1.0000
  C   C2373     1.0  0.53750  0.01883  0.29611  1.0000
  H   H1880     1.0  0.77513  0.02336  0.43430  1.0000
  H   H1881     1.0  0.81075  0.12506  0.22211  1.0000
  C   C2374     1.0  0.78263  0.03860  0.47371  1.0000
  H   H1882     1.0  0.70105  0.12000  0.20890  1.0000
  C   C2375     1.0  0.65091  0.05441  0.07495  1.0000
  C   C2376     1.0  0.79150  0.14620  0.98833  1.0000
  H   H1883     1.0  0.70912  0.06305  0.12268  1.0000
  H   H1884     1.0  0.87355  0.18464  0.14045  1.0000
  H   H1885     1.0  0.93093  0.14958  0.18428  1.0000
  H   H1886     1.0  0.67248  0.08635  0.11193  1.0000
  H   H1887     1.0  0.81224  0.17290  0.09739  1.0000
  H   H1888     1.0  0.61417  0.02051  0.08010  1.0000
  C   C2377     1.0  0.83162  0.16853  0.14156  1.0000
  H   H1889     1.0  0.83836  0.13897  0.10294  1.0000
  H   H1890     1.0  0.49728  0.03233  0.17399  1.0000
  C   C2378     1.0  0.48463  0.10863  0.35447  1.0000
  C   C2379     1.0  0.77180  0.00111  0.39182  1.0000
  C   C2380     1.0  0.64737  0.01114  0.07141  1.0000
  C   C2381     1.0  0.78153  0.16269  0.01784  1.0000
  C   C2382     1.0  0.80378  0.12149  0.20095  1.0000
  H   H1891     1.0  0.90111  0.13205  0.17493  1.0000
  C   C2383     1.0  0.79928  0.16644  0.10093  1.0000
  P   P81       1.0  0.64833  0.03898  0.10208  1.0000
  C   C2384     1.0  0.75341  0.99555  0.03422  1.0000
  C   C2385     1.0  0.68272  0.05310  0.11456  1.0000
  C   C2386     1.0  0.61568  0.04162  0.17692  1.0000
  C   C2387     1.0  0.79986  0.12700  0.14921  1.0000
  C   C2388     1.0  0.78622  0.11184  0.14600  1.0000
  C   C2389     1.0  0.52432  0.15561  0.28620  1.0000
  C   C2390     1.0  0.52564  0.16296  0.25864  1.0000
  H   H1892     1.0  0.78655  0.09844  0.21599  1.0000
  C   C2391     1.0  0.62132  0.01380  0.07340  1.0000
  C   C2392     1.0  0.90540  0.13983  0.19494  1.0000
  H   H1893     1.0  0.89335  0.18069  0.28158  1.0000
  C   C2393     1.0  0.84805  0.17951  0.14728  1.0000
  H   H1894     1.0  0.93658  0.15031  0.28201  1.0000
  H   H1895     1.0  0.49781  0.15156  0.32175  1.0000
  C   C2394     1.0  0.65551  0.07873  0.03347  1.0000
  P   P82       1.0  0.80187  0.01215  0.42453  1.0000
  H   H1896     1.0  0.63630  0.11567  0.05088  1.0000
  C   C2395     1.0  0.86275  0.18422  0.02917  1.0000
  C   C2396     1.0  0.77841  0.14867  0.00028  1.0000
  H   H1897     1.0  0.76643  0.99488  0.41158  1.0000
  S   S319      1.0  0.74387  0.18221  0.04865  1.0000
  C   C2397     1.0  0.63942  0.99628  0.05532  1.0000
  C   C2398     1.0  0.53435  0.17986  0.25681  1.0000
  C   C2399     1.0  0.84557  0.17556  0.02913  1.0000
  H   H1898     1.0  0.85416  0.01027  0.39539  1.0000
  H   H1899     1.0  0.79516  0.09355  0.02186  1.0000
  H   H1900     1.0  0.77154  0.04090  0.47304  1.0000
  H   H1901     1.0  0.76022  0.00607  0.32104  1.0000
  C   C2400     1.0  0.83800  0.99510  0.10419  1.0000
  H   H1902     1.0  0.78449  0.11517  0.01724  1.0000
  H   H1903     1.0  0.81462  0.99857  0.98583  1.0000
  H   H1904     1.0  0.48185  0.04171  0.26741  1.0000
  C   C2401     1.0  0.61340  0.99890  0.05743  1.0000
  H   H1905     1.0  0.68633  0.99496  0.46967  1.0000
  H   H1906     1.0  0.73473  0.00798  0.48015  1.0000
  H   H1907     1.0  0.48397  0.00226  0.17191  1.0000
  C   C2402     1.0  0.76399  0.99254  0.12670  1.0000
  H   H1908     1.0  0.78105  0.01782  0.98558  1.0000
  C   C2403     1.0  0.48362  0.13524  0.35398  1.0000
  H   H1909     1.0  0.90661  0.18139  0.99680  1.0000
  H   H1910     1.0  0.48773  0.09303  0.20617  1.0000
  H   H1911     1.0  0.64645  0.98951  0.04821  1.0000
  H   H1912     1.0  0.48950  0.18570  0.99401  1.0000
  H   H1913     1.0  0.59512  0.04297  0.01420  1.0000
  H   H1914     1.0  0.79370  0.18695  0.08850  1.0000
  C   C2404     1.0  0.79903  0.98954  0.46849  1.0000
  C   C2405     1.0  0.59354  0.05098  0.99773  1.0000
  H   H1915     1.0  0.92342  0.18835  0.21646  1.0000
  H   H1916     1.0  0.61956  0.06411  0.99346  1.0000
  C   C2406     1.0  0.60735  0.06297  0.98594  1.0000
  C   C2407     1.0  0.57771  0.04941  0.98844  1.0000
  C   C2408     1.0  0.60713  0.09875  0.58093  1.0000
  S   S320      1.0  0.93851  0.17264  0.61530  1.0000
  C   C2409     1.0  0.81305  0.16312  0.57067  1.0000
  Fe  Fe158     1.0  0.91285  0.17217  0.61503  1.0000
  S   S321      1.0  0.88719  0.15074  0.60399  1.0000
  H   H1917     1.0  0.72161  0.00239  0.56200  1.0000
  Fe  Fe159     1.0  0.70176  0.13788  0.55933  1.0000
  S   S322      1.0  0.69079  0.11718  0.52501  1.0000
  S   S323      1.0  0.69213  0.13954  0.60535  1.0000
  Fe  Fe160     1.0  0.73277  0.15654  0.52335  1.0000
  C   C2410     1.0  0.66514  0.07992  0.94989  1.0000
  H   H1918     1.0  0.61111  0.99533  0.94195  1.0000
  C   C2411     1.0  0.78124  0.17011  0.64595  1.0000
  S   S324      1.0  0.68340  0.13637  0.93759  1.0000
  Fe  Fe161     1.0  0.71680  0.11894  0.52324  1.0000
  S   S325      1.0  0.72344  0.09708  0.51878  1.0000
  S   S326      1.0  0.70786  0.15772  0.52552  1.0000
  S   S327      1.0  0.72737  0.13827  0.55948  1.0000
  Fe  Fe162     1.0  0.80653  0.06409  0.63504  1.0000
  S   S328      1.0  0.78667  0.06201  0.66636  1.0000
  S   S329      1.0  0.83353  0.08217  0.64760  1.0000
  Fe  Fe163     1.0  0.78166  0.03634  0.59308  1.0000
  S   S330      1.0  0.76036  0.03318  0.62104  1.0000
  S   S331      1.0  0.78104  0.01863  0.55494  1.0000
  Fe  Fe164     1.0  0.77112  0.06063  0.62472  1.0000
  S   S332      1.0  0.75605  0.07578  0.62921  1.0000
  Fe  Fe165     1.0  0.77719  0.03461  0.66106  1.0000
  S   S333      1.0  0.76376  0.01463  0.69406  1.0000
  S   S334      1.0  0.79133  0.06405  0.59356  1.0000
  S   S335      1.0  0.79821  0.03647  0.63286  1.0000
  Fe  Fe166     1.0  0.61925  0.08720  0.71912  1.0000
  S   S336      1.0  0.62966  0.07202  0.74501  1.0000
  S   S337      1.0  0.62788  0.09401  0.67170  1.0000
  Fe  Fe167     1.0  0.59092  0.07992  0.76230  1.0000
  S   S338      1.0  0.60006  0.06403  0.79020  1.0000
  S   S339      1.0  0.56844  0.08381  0.77950  1.0000
  Fe  Fe168     1.0  0.62565  0.08381  0.78681  1.0000
  S   S340      1.0  0.64567  0.08825  0.82491  1.0000
  Fe  Fe169     1.0  0.60356  0.05355  0.74678  1.0000
  S   S341      1.0  0.60020  0.02774  0.73251  1.0000
  S   S342      1.0  0.61660  0.10041  0.76081  1.0000
  S   S343      1.0  0.59301  0.06806  0.71911  1.0000
  S   S344      1.0  0.49424  0.07456  0.73851  1.0000
  C   C2412     1.0  0.54763  0.08055  0.76764  1.0000
  C   C2413     1.0  0.54121  0.07613  0.73830  1.0000
  C   C2414     1.0  0.52493  0.07428  0.73000  1.0000
  C   C2415     1.0  0.51461  0.07660  0.75083  1.0000
  C   C2416     1.0  0.52094  0.08081  0.78025  1.0000
  C   C2417     1.0  0.53730  0.08285  0.78846  1.0000
  H   H1919     1.0  0.54888  0.07434  0.72189  1.0000
  H   H1920     1.0  0.52030  0.07106  0.70718  1.0000
  H   H1921     1.0  0.51333  0.08271  0.79664  1.0000
  H   H1922     1.0  0.54202  0.08630  0.81120  1.0000
  H   H1923     1.0  0.61473  0.02734  0.67437  1.0000
  H   H1924     1.0  0.66727  0.07948  0.53192  1.0000
  C   C2418     1.0  0.58243  0.00972  0.73735  1.0000
  C   C2419     1.0  0.56998  0.00954  0.75535  1.0000
  C   C2420     1.0  0.83980  0.04009  0.68020  1.0000
  H   H1925     1.0  0.54095  0.01524  0.71358  1.0000
  H   H1926     1.0  0.57115  0.02066  0.76701  1.0000
  C   C2421     1.0  0.76711  0.00814  0.52420  1.0000
  H   H1927     1.0  0.65370  0.05832  0.56816  1.0000
  H   H1928     1.0  0.48848  0.13027  0.74760  1.0000
  H   H1929     1.0  0.48327  0.15955  0.93330  1.0000
  C   C2422     1.0  0.58079  0.99518  0.72248  1.0000
  H   H1930     1.0  0.97304  0.18818  0.48879  1.0000
  H   H1931     1.0  0.75212  0.02190  0.52555  1.0000
  C   C2423     1.0  0.76299  0.00710  0.73075  1.0000
  C   C2424     1.0  0.63307  0.08707  0.54110  1.0000
  C   C2425     1.0  0.77239  0.00979  0.78303  1.0000
  C   C2426     1.0  0.77394  0.01605  0.75426  1.0000
  H   H1932     1.0  0.67746  0.16404  0.55007  1.0000
  H   H1933     1.0  0.78342  0.02795  0.75047  1.0000
  C   C2427     1.0  0.67442  0.12638  0.62372  1.0000
  C   C2428     1.0  0.67314  0.12949  0.65402  1.0000
  C   C2429     1.0  0.65933  0.11949  0.66946  1.0000
  C   C2430     1.0  0.64651  0.10624  0.65472  1.0000
  C   C2431     1.0  0.64802  0.10290  0.62468  1.0000
  C   C2432     1.0  0.66173  0.11294  0.60918  1.0000
  H   H1934     1.0  0.68285  0.13981  0.66562  1.0000
  H   H1935     1.0  0.65845  0.12226  0.69256  1.0000
  H   H1936     1.0  0.63851  0.09241  0.61335  1.0000
  H   H1937     1.0  0.66245  0.11027  0.58598  1.0000
  C   C2433     1.0  0.67315  0.12284  0.90625  1.0000
  C   C2434     1.0  0.66217  0.12654  0.88720  1.0000
  C   C2435     1.0  0.65372  0.11625  0.86227  1.0000
  C   C2436     1.0  0.65607  0.10199  0.85592  1.0000
  C   C2437     1.0  0.66717  0.09837  0.87483  1.0000
  C   C2438     1.0  0.67571  0.10873  0.89961  1.0000
  H   H1938     1.0  0.66015  0.13748  0.89176  1.0000
  H   H1939     1.0  0.64538  0.11938  0.84799  1.0000
  H   H1940     1.0  0.66924  0.08748  0.87020  1.0000
  H   H1941     1.0  0.68439  0.10589  0.91344  1.0000
  C   C2439     1.0  0.74798  0.08221  0.59788  1.0000
  C   C2440     1.0  0.74163  0.09410  0.60180  1.0000
  C   C2441     1.0  0.73455  0.09912  0.57754  1.0000
  C   C2442     1.0  0.73348  0.09204  0.54926  1.0000
  C   C2443     1.0  0.73995  0.08022  0.54530  1.0000
  C   C2444     1.0  0.74734  0.07542  0.56949  1.0000
  H   H1942     1.0  0.74206  0.09937  0.62372  1.0000
  H   H1943     1.0  0.72948  0.10810  0.58091  1.0000
  H   H1944     1.0  0.73917  0.07471  0.52346  1.0000
  H   H1945     1.0  0.75221  0.06624  0.56628  1.0000
  H   H1946     1.0  0.83769  0.01617  0.66693  1.0000
  C   C2445     1.0  0.87261  0.13143  0.61612  1.0000
  C   C2446     1.0  0.87631  0.12297  0.63928  1.0000
  C   C2447     1.0  0.86426  0.10802  0.64835  1.0000
  C   C2448     1.0  0.84831  0.10100  0.63429  1.0000
  C   C2449     1.0  0.84469  0.10925  0.61070  1.0000
  C   C2450     1.0  0.85668  0.12435  0.60189  1.0000
  H   H1947     1.0  0.88854  0.12770  0.64990  1.0000
  H   H1948     1.0  0.86741  0.10173  0.66627  1.0000
  H   H1949     1.0  0.83259  0.10407  0.59935  1.0000
  H   H1950     1.0  0.85358  0.13056  0.58379  1.0000
  H   H1951     1.0  0.72188  0.02649  0.53537  1.0000
  C   C2451     1.0  0.61884  0.09812  0.49013  1.0000
  C   C2452     1.0  0.71783  0.05405  0.72150  1.0000
  C   C2453     1.0  0.65943  0.06454  0.93551  1.0000
  H   H1952     1.0  0.73486  0.06749  0.68912  1.0000
  P   P83       1.0  0.79658  0.14572  0.58498  1.0000
  C   C2454     1.0  0.58953  0.99854  0.58343  1.0000
  C   C2455     1.0  0.66455  0.14422  0.51832  1.0000
  C   C2456     1.0  0.70384  0.01209  0.50114  1.0000
  C   C2457     1.0  0.76502  0.11620  0.50307  1.0000
  C   C2458     1.0  0.80374  0.13354  0.60869  1.0000
  H   H1953     1.0  0.80424  0.17278  0.62840  1.0000
  H   H1954     1.0  0.82773  0.15289  0.62076  1.0000
  H   H1955     1.0  0.49643  0.09827  0.68460  1.0000
  P   P84       1.0  0.80590  0.99304  0.68742  1.0000
  C   C2459     1.0  0.69107  0.06697  0.62023  1.0000
  C   C2460     1.0  0.64776  0.06608  0.56019  1.0000
  H   H1956     1.0  0.70689  0.13198  0.70457  1.0000
  C   C2461     1.0  0.76011  0.99436  0.78875  1.0000
  C   C2462     1.0  0.87054  0.17567  0.63534  1.0000
  C   C2463     1.0  0.77590  0.11076  0.51802  1.0000
  H   H1957     1.0  0.61295  0.07245  0.56775  1.0000
  H   H1958     1.0  0.56342  0.05861  0.96011  1.0000
  C   C2464     1.0  0.57234  0.99216  0.92328  1.0000
  C   C2465     1.0  0.65166  0.12883  0.51334  1.0000
  H   H1959     1.0  0.65448  0.09793  0.51518  1.0000
  H   H1960     1.0  0.85142  0.04632  0.67004  1.0000
  C   C2466     1.0  0.87237  0.16751  0.66052  1.0000
  H   H1961     1.0  0.78902  0.13541  0.97436  1.0000
  H   H1962     1.0  0.58758  0.07979  0.93931  1.0000
  C   C2467     1.0  0.64069  0.12169  0.53564  1.0000
  H   H1963     1.0  0.86482  0.16873  0.61494  1.0000
  H   H1964     1.0  0.50871  0.15789  0.72430  1.0000
  H   H1965     1.0  0.77940  0.99216  0.51663  1.0000
  H   H1966     1.0  0.59411  0.09679  0.62070  1.0000
  C   C2468     1.0  0.58947  0.07187  0.95560  1.0000
  C   C2469     1.0  0.83235  0.04922  0.69403  1.0000
  C   C2470     1.0  0.81702  0.04130  0.70601  1.0000
  C   C2471     1.0  0.78670  0.99085  0.60264  1.0000
  H   H1967     1.0  0.81092  0.00446  0.75031  1.0000
  H   H1968     1.0  0.77649  0.09941  0.51080  1.0000
  C   C2472     1.0  0.64339  0.13003  0.56336  1.0000
  H   H1969     1.0  0.70444  0.10772  0.67468  1.0000
  C   C2473     1.0  0.75068  0.99167  0.73648  1.0000
  C   C2474     1.0  0.49215  0.10779  0.68926  1.0000
  C   C2475     1.0  0.77385  0.13973  0.53708  1.0000
  C   C2476     1.0  0.84057  0.17575  0.55240  1.0000
  C   C2477     1.0  0.50576  0.16849  0.72439  1.0000
  H   H1970     1.0  0.79128  0.99300  0.58059  1.0000
  Fe  Fe170     1.0  0.69811  0.13666  0.49095  1.0000
  H   H1971     1.0  0.69840  0.04207  0.75081  1.0000
  H   H1972     1.0  0.59456  0.01204  0.94048  1.0000
  H   H1973     1.0  0.75497  0.00183  0.90818  1.0000
  C   C2478     1.0  0.59899  0.00985  0.56345  1.0000
  H   H1974     1.0  0.92449  0.16607  0.51819  1.0000
  C   C2479     1.0  0.58893  0.99925  0.93335  1.0000
  H   H1975     1.0  0.83824  0.06246  0.69467  1.0000
  H   H1976     1.0  0.48396  0.10889  0.64402  1.0000
  H   H1977     1.0  0.62160  0.05705  0.67243  1.0000
  H   H1978     1.0  0.65894  0.15128  0.59024  1.0000
  C   C2480     1.0  0.48047  0.13192  0.70215  1.0000
  H   H1979     1.0  0.71593  0.07806  0.66527  1.0000
  C   C2481     1.0  0.81677  0.01495  0.69126  1.0000
  C   C2482     1.0  0.76964  0.99563  0.50871  1.0000
  H   H1980     1.0  0.66507  0.07746  0.72780  1.0000
  H   H1981     1.0  0.65051  0.07673  0.67214  1.0000
  C   C2483     1.0  0.78575  0.11977  0.54259  1.0000
  C   C2484     1.0  0.78437  0.13405  0.55289  1.0000
  C   C2485     1.0  0.79861  0.10774  0.63185  1.0000
  C   C2486     1.0  0.81459  0.11421  0.64490  1.0000
  C   C2487     1.0  0.82503  0.13049  0.64077  1.0000
  C   C2488     1.0  0.81955  0.14023  0.62314  1.0000
  H   H1982     1.0  0.69216  0.05635  0.62955  1.0000
  C   C2489     1.0  0.75699  0.14710  0.62610  1.0000
  H   H1983     1.0  0.53108  0.18503  0.73432  1.0000
  H   H1984     1.0  0.79421  0.11542  0.55361  1.0000
  H   H1985     1.0  0.79051  0.09514  0.63525  1.0000
  H   H1986     1.0  0.81894  0.10650  0.65788  1.0000
  H   H1987     1.0  0.83747  0.13541  0.65078  1.0000
  C   C2490     1.0  0.76678  0.14248  0.60780  1.0000
  H   H1988     1.0  0.76097  0.13158  0.59356  1.0000
  C   C2491     1.0  0.56073  0.01886  0.68490  1.0000
  C   C2492     1.0  0.57749  0.00141  0.59875  1.0000
  C   C2493     1.0  0.64779  0.06379  0.67284  1.0000
  C   C2494     1.0  0.69484  0.07049  0.59072  1.0000
  H   H1989     1.0  0.84855  0.15891  0.71736  1.0000
  C   C2495     1.0  0.56683  0.01178  0.66327  1.0000
  C   C2496     1.0  0.80921  0.02424  0.70437  1.0000
  H   H1990     1.0  0.48320  0.14215  0.89013  1.0000
  C   C2497     1.0  0.65659  0.14522  0.56847  1.0000
  P   P85       1.0  0.62445  0.10137  0.52951  1.0000
  C   C2498     1.0  0.67585  0.10304  0.73949  1.0000
  C   C2499     1.0  0.75422  0.01229  0.51402  1.0000
  H   H1991     1.0  0.72634  0.04961  0.73211  1.0000
  H   H1992     1.0  0.93385  0.15833  0.75436  1.0000
  C   C2500     1.0  0.76416  0.13078  0.51239  1.0000
  C   C2501     1.0  0.92548  0.15742  0.73549  1.0000
  C   C2502     1.0  0.64423  0.12111  0.96720  1.0000
  C   C2503     1.0  0.63134  0.05263  0.67261  1.0000
  H   H1993     1.0  0.81744  0.04650  0.51727  1.0000
  H   H1994     1.0  0.56820  0.03109  0.69389  1.0000
  H   H1995     1.0  0.77414  0.18358  0.58021  1.0000
  H   H1996     1.0  0.64695  0.12274  0.94404  1.0000
  H   H1997     1.0  0.79707  0.01827  0.71264  1.0000
  H   H1998     1.0  0.57904  0.01870  0.65584  1.0000
  C   C2504     1.0  0.88967  0.17329  0.51446  1.0000
  C   C2505     1.0  0.63776  0.07986  0.94365  1.0000
  C   C2506     1.0  0.92882  0.15324  0.70737  1.0000
  H   H1999     1.0  0.70421  0.02265  0.48924  1.0000
  H   H2000     1.0  0.77289  0.15095  0.54401  1.0000
  H   H2001     1.0  0.59113  0.09908  0.51088  1.0000
  H   H2002     1.0  0.82976  0.15108  0.56673  1.0000
  C   C2507     1.0  0.83201  0.02300  0.67863  1.0000
  H   H2003     1.0  0.78678  0.18082  0.66067  1.0000
  H   H2004     1.0  0.48081  0.16320  0.65487  1.0000
  C   C2508     1.0  0.62492  0.07437  0.56010  1.0000
  H   H2005     1.0  0.63574  0.12481  0.58150  1.0000
  C   C2509     1.0  0.57569  0.05982  0.96735  1.0000
  C   C2510     1.0  0.64010  0.03030  0.67407  1.0000
  H   H2006     1.0  0.75703  0.10901  0.48453  1.0000
  H   H2007     1.0  0.93984  0.15109  0.70438  1.0000
  P   P86       1.0  0.88356  0.16548  0.71853  1.0000
  C   C2511     1.0  0.86521  0.14670  0.71912  1.0000
  H   H2008     1.0  0.81095  0.04838  0.71573  1.0000
  C   C2512     1.0  0.60542  0.07356  0.96488  1.0000
  C   C2513     1.0  0.65441  0.08764  0.95373  1.0000
  C   C2514     1.0  0.92235  0.18690  0.49836  1.0000
  H   H2009     1.0  0.48094  0.02670  0.77630  1.0000
  H   H2010     1.0  0.78058  0.11210  0.60429  1.0000
  C   C2515     1.0  0.86623  0.13141  0.71865  1.0000
  C   C2516     1.0  0.85188  0.11699  0.71702  1.0000
  C   C2517     1.0  0.83643  0.11768  0.71613  1.0000
  C   C2518     1.0  0.83529  0.13281  0.71660  1.0000
  C   C2519     1.0  0.84961  0.14727  0.71781  1.0000
  C   C2520     1.0  0.90119  0.16049  0.71440  1.0000
  C   C2521     1.0  0.91816  0.15220  0.68295  1.0000
  C   C2522     1.0  0.90443  0.15584  0.68645  1.0000
  H   H2011     1.0  0.66789  0.05880  0.93198  1.0000
  C   C2523     1.0  0.68630  0.07731  0.63760  1.0000
  C   C2524     1.0  0.48624  0.18108  0.71884  1.0000
  H   H2012     1.0  0.86790  0.15431  0.65910  1.0000
  H   H2013     1.0  0.89548  0.15396  0.53261  1.0000
  H   H2014     1.0  0.80332  0.99973  0.48443  1.0000
  C   C2525     1.0  0.59346  0.09727  0.59667  1.0000
  C   C2526     1.0  0.75531  0.02504  0.92277  1.0000
  H   H2015     1.0  0.87802  0.13049  0.71886  1.0000
  H   H2016     1.0  0.85270  0.10523  0.71578  1.0000
  H   H2017     1.0  0.82535  0.10644  0.71449  1.0000
  H   H2018     1.0  0.82327  0.13329  0.71534  1.0000
  H   H2019     1.0  0.75409  0.04829  0.93085  1.0000
  H   H2020     1.0  0.92071  0.14891  0.66114  1.0000
  H   H2021     1.0  0.89657  0.15536  0.66715  1.0000
  C   C2527     1.0  0.66056  0.05833  0.67487  1.0000
  H   H2022     1.0  0.61807  0.09927  0.59324  1.0000
  C   C2528     1.0  0.60529  0.11316  0.89160  1.0000
  C   C2529     1.0  0.60593  0.10610  0.86411  1.0000
  C   C2530     1.0  0.61244  0.09430  0.86257  1.0000
  C   C2531     1.0  0.61825  0.08944  0.88840  1.0000
  C   C2532     1.0  0.61757  0.09639  0.91616  1.0000
  C   C2533     1.0  0.61103  0.10830  0.91754  1.0000
  C   C2534     1.0  0.64291  0.05674  0.92528  1.0000
  C   C2535     1.0  0.63208  0.06429  0.92956  1.0000
  H   H2023     1.0  0.60029  0.12236  0.89274  1.0000
  H   H2024     1.0  0.60144  0.10977  0.84393  1.0000
  H   H2025     1.0  0.61323  0.08906  0.84120  1.0000
  H   H2026     1.0  0.62346  0.08049  0.88627  1.0000
  H   H2027     1.0  0.61023  0.11373  0.93869  1.0000
  H   H2028     1.0  0.63852  0.04492  0.91370  1.0000
  H   H2029     1.0  0.61930  0.05809  0.92154  1.0000
  C   C2536     1.0  0.69579  0.06541  0.69346  1.0000
  H   H2030     1.0  0.69913  0.06289  0.57759  1.0000
  H   H2031     1.0  0.68763  0.10492  0.58571  1.0000
  C   C2537     1.0  0.57907  0.09650  0.58152  1.0000
  C   C2538     1.0  0.81058  0.17730  0.56423  1.0000
  H   H2032     1.0  0.66792  0.10177  0.75774  1.0000
  C   C2539     1.0  0.55593  0.99493  0.75812  1.0000
  H   H2033     1.0  0.60000  0.99823  0.64444  1.0000
  H   H2034     1.0  0.74890  0.18310  0.60152  1.0000
  C   C2540     1.0  0.78385  0.15188  0.60798  1.0000
  H   H2035     1.0  0.49885  0.10919  0.73595  1.0000
  C   C2541     1.0  0.69118  0.05562  0.71823  1.0000
  H   H2036     1.0  0.69665  0.08700  0.55556  1.0000
  C   C2542     1.0  0.71360  0.00067  0.54219  1.0000
  H   H2037     1.0  0.90916  0.16378  0.76120  1.0000
  C   C2543     1.0  0.76420  0.16092  0.64512  1.0000
  C   C2544     1.0  0.91158  0.16078  0.73913  1.0000
  H   H2038     1.0  0.65051  0.12256  0.49206  1.0000
  H   H2039     1.0  0.68773  0.06062  0.84897  1.0000
  C   C2545     1.0  0.62749  0.03590  0.67357  1.0000
  C   C2546     1.0  0.79310  0.11738  0.61407  1.0000
  H   H2040     1.0  0.76214  0.02555  0.94359  1.0000
  H   H2041     1.0  0.60829  0.00759  0.55177  1.0000
  P   P87       1.0  0.62340  0.08910  0.95014  1.0000
  H   H2042     1.0  0.67915  0.05251  0.72691  1.0000
  C   C2547     1.0  0.63288  0.10609  0.97663  1.0000
  H   H2043     1.0  0.65932  0.09976  0.96419  1.0000
  C   C2548     1.0  0.69354  0.08414  0.57828  1.0000
  H   H2044     1.0  0.66622  0.03694  0.67453  1.0000
  C   C2549     1.0  0.66711  0.15236  0.54593  1.0000
  C   C2550     1.0  0.48512  0.11376  0.66652  1.0000
  C   C2551     1.0  0.82794  0.16224  0.56372  1.0000
  C   C2552     1.0  0.88059  0.17633  0.68669  1.0000
  H   H2045     1.0  0.74378  0.13992  0.62541  1.0000
  H   H2046     1.0  0.86359  0.16365  0.77036  1.0000
  C   C2553     1.0  0.75073  0.03783  0.91557  1.0000
  C   C2554     1.0  0.48763  0.12590  0.72480  1.0000
  C   C2555     1.0  0.67420  0.08927  0.72230  1.0000
  H   H2047     1.0  0.85211  0.17507  0.54744  1.0000
  H   H2048     1.0  0.76567  0.99301  0.95327  1.0000
  C   C2556     1.0  0.49351  0.11396  0.71832  1.0000
  H   H2049     1.0  0.59048  0.99521  0.70889  1.0000
  C   C2557     1.0  0.79446  0.04513  0.49720  1.0000
  C   C2558     1.0  0.57836  0.09715  0.55060  1.0000
  H   H2050     1.0  0.63707  0.01732  0.67470  1.0000
  C   C2559     1.0  0.48949  0.16695  0.71880  1.0000
  C   C2560     1.0  0.54540  0.00988  0.69615  1.0000
  C   C2561     1.0  0.79105  0.16560  0.62749  1.0000
  C   C2562     1.0  0.70212  0.04983  0.73201  1.0000
  C   C2563     1.0  0.60662  0.09945  0.54982  1.0000
  H   H2051     1.0  0.56849  0.09542  0.59380  1.0000
  H   H2052     1.0  0.68036  0.09847  0.63727  1.0000
  C   C2564     1.0  0.68757  0.11844  0.73301  1.0000
  C   C2565     1.0  0.65660  0.04146  0.67436  1.0000
  C   C2566     1.0  0.72266  0.06415  0.69734  1.0000
  C   C2567     1.0  0.68844  0.09423  0.59523  1.0000
  C   C2568     1.0  0.68457  0.09069  0.62463  1.0000
  C   C2569     1.0  0.88713  0.17792  0.75229  1.0000
  C   C2570     1.0  0.68411  0.09083  0.69818  1.0000
  C   C2571     1.0  0.75120  0.01166  0.90294  1.0000
  C   C2572     1.0  0.89570  0.18820  0.50028  1.0000
  C   C2573     1.0  0.64823  0.08859  0.53062  1.0000
  C   C2574     1.0  0.79157  0.98966  0.65581  1.0000
  H   H2053     1.0  0.86925  0.18068  0.81626  1.0000
  H   H2054     1.0  0.60359  0.03270  0.54267  1.0000
  C   C2575     1.0  0.80851  0.04174  0.49859  1.0000
  C   C2576     1.0  0.69784  0.12003  0.70966  1.0000
  S   S345      1.0  0.75994  0.17493  0.52081  1.0000
  C   C2577     1.0  0.76433  0.04890  0.78690  1.0000
  C   C2578     1.0  0.75873  0.04299  0.75783  1.0000
  C   C2579     1.0  0.74311  0.03043  0.75227  1.0000
  C   C2580     1.0  0.73296  0.02394  0.77569  1.0000
  C   C2581     1.0  0.73856  0.02969  0.80504  1.0000
  C   C2582     1.0  0.75428  0.04232  0.81045  1.0000
  P   P88       1.0  0.72501  0.02208  0.83504  1.0000
  C   C2583     1.0  0.71173  0.00076  0.82713  1.0000
  C   C2584     1.0  0.73723  0.02346  0.86908  1.0000
  C   C2585     1.0  0.74229  0.01090  0.87619  1.0000
  H   H2055     1.0  0.78083  0.01695  0.80102  1.0000
  H   H2056     1.0  0.56719  0.09657  0.53886  1.0000
  H   H2057     1.0  0.68864  0.12913  0.74610  1.0000
  C   C2586     1.0  0.74183  0.03712  0.88875  1.0000
  C   C2587     1.0  0.69522  0.99419  0.83487  1.0000
  H   H2058     1.0  0.58183  0.03756  0.56855  1.0000
  C   C2588     1.0  0.65550  0.07810  0.54003  1.0000
  C   C2589     1.0  0.59204  0.09861  0.53478  1.0000
  H   H2059     1.0  0.66197  0.14528  0.98037  1.0000
  C   C2590     1.0  0.71300  0.03414  0.83915  1.0000
  C   C2591     1.0  0.71211  0.04455  0.81676  1.0000
  C   C2592     1.0  0.70299  0.05401  0.82032  1.0000
  C   C2593     1.0  0.69472  0.05319  0.84622  1.0000
  C   C2594     1.0  0.69556  0.04290  0.86862  1.0000
  C   C2595     1.0  0.70465  0.03341  0.86513  1.0000
  H   H2060     1.0  0.77656  0.05845  0.79120  1.0000
  H   H2061     1.0  0.76664  0.04777  0.73959  1.0000
  H   H2062     1.0  0.73905  0.02554  0.72976  1.0000
  H   H2063     1.0  0.72082  0.01435  0.77082  1.0000
  H   H2064     1.0  0.75883  0.04705  0.83281  1.0000
  H   H2065     1.0  0.73953  0.00050  0.86117  1.0000
  P   P89       1.0  0.68173  0.07299  0.67580  1.0000
  C   C2596     1.0  0.71177  0.06998  0.68358  1.0000
  H   H2066     1.0  0.54632  0.99489  0.77205  1.0000
  H   H2067     1.0  0.73858  0.04725  0.88350  1.0000
  H   H2068     1.0  0.68994  0.00174  0.84532  1.0000
  H   H2069     1.0  0.83793  0.99810  0.71552  1.0000
  H   H2070     1.0  0.82234  0.18201  0.95697  1.0000
  H   H2071     1.0  0.75576  0.13503  0.50076  1.0000
  C   C2597     1.0  0.58406  0.02672  0.57284  1.0000
  H   H2072     1.0  0.71854  0.04553  0.79665  1.0000
  H   H2073     1.0  0.70243  0.06212  0.80309  1.0000
  H   H2074     1.0  0.68924  0.04238  0.88879  1.0000
  H   H2075     1.0  0.70526  0.02556  0.88278  1.0000
  H   H2076     1.0  0.79883  0.17790  0.56758  1.0000
  C   C2598     1.0  0.69628  0.10626  0.69253  1.0000
  H   H2077     1.0  0.75654  0.16450  0.65910  1.0000
  H   H2078     1.0  0.67280  0.14969  0.50086  1.0000
  C   C2599     1.0  0.71380  0.01427  0.52714  1.0000
  C   C2600     1.0  0.53628  0.99371  0.68613  1.0000
  H   H2079     1.0  0.67802  0.08613  0.95737  1.0000
  C   C2601     1.0  0.55734  0.99582  0.65197  1.0000
  H   H2080     1.0  0.88060  0.17641  0.96714  1.0000
  H   H2081     1.0  0.56484  0.01753  0.60325  1.0000
  C   C2602     1.0  0.76199  0.99373  0.97554  1.0000
  C   C2603     1.0  0.57454  0.01539  0.59274  1.0000
  H   H2082     1.0  0.62644  0.05485  0.58579  1.0000
  H   H2083     1.0  0.79655  0.99209  0.79493  1.0000
  C   C2604     1.0  0.59632  0.02398  0.55827  1.0000
  C   C2605     1.0  0.89997  0.16521  0.52065  1.0000
  H   H2084     1.0  0.73078  0.99514  0.80788  1.0000
  H   H2085     1.0  0.87714  0.16814  0.52138  1.0000
  C   C2606     1.0  0.51855  0.18393  0.73005  1.0000
  C   C2607     1.0  0.91629  0.17200  0.51249  1.0000
  C   C2608     1.0  0.59825  0.98984  0.93413  1.0000
  C   C2609     1.0  0.87522  0.17412  0.77358  1.0000
  C   C2610     1.0  0.63242  0.06413  0.57006  1.0000
  H   H2086     1.0  0.79249  0.05238  0.51487  1.0000
  C   C2611     1.0  0.71806  0.99042  0.81372  1.0000
  H   H2087     1.0  0.56511  0.99945  0.92260  1.0000
  C   C2612     1.0  0.74443  0.00442  0.48815  1.0000
  C   C2613     1.0  0.87842  0.18373  0.79981  1.0000
  C   C2614     1.0  0.79738  0.99189  0.62711  1.0000
  C   C2615     1.0  0.80076  0.99256  0.74817  1.0000
  C   C2616     1.0  0.69369  0.99632  0.49012  1.0000
  S   S346      1.0  0.72336  0.13688  0.48686  1.0000
  H   H2088     1.0  0.81025  0.99490  0.62371  1.0000
  Fe  Fe171     1.0  0.69818  0.13567  0.98085  1.0000
  H   H2089     1.0  0.61769  0.07345  0.48755  1.0000
  H   H2090     1.0  0.61908  0.12223  0.48443  1.0000
  H   H2091     1.0  0.92859  0.20886  0.00190  1.0000
  Fe  Fe172     1.0  0.90766  0.37047  0.31057  1.0000
  S   S347      1.0  0.89099  0.37022  0.27073  1.0000
  S   S348      1.0  0.90144  0.36129  0.35808  1.0000
  Fe  Fe173     1.0  0.90878  0.36462  0.24285  1.0000
  S   S349      1.0  0.90509  0.34442  0.20737  1.0000
  S   S350      1.0  0.92451  0.36360  0.28301  1.0000
  Fe  Fe174     1.0  0.91790  0.20062  0.12384  1.0000
  S   S351      1.0  0.90508  0.21701  0.13598  1.0000
  H   H2092     1.0  0.95769  0.21618  0.21204  1.0000
  H   H2093     1.0  0.87046  0.22476  0.40488  1.0000
  H   H2094     1.0  0.91265  0.21281  0.41141  1.0000
  S   S352      1.0  0.94538  0.20890  0.12104  1.0000
  C   C2617     1.0  0.91858  0.30712  0.42126  1.0000
  S   S353      1.0  0.83978  0.28770  0.01448  1.0000
  S   S354      1.0  0.86480  0.29692  0.43260  1.0000
  Fe  Fe175     1.0  0.87015  0.26769  0.03203  1.0000
  S   S355      1.0  0.84978  0.26496  0.06197  1.0000
  S   S356      1.0  0.88541  0.25271  0.03075  1.0000
  Fe  Fe176     1.0  0.83358  0.26073  0.01996  1.0000
  C   C2618     1.0  0.81034  0.32976  0.45064  1.0000
  Fe  Fe177     1.0  0.85758  0.29206  0.05500  1.0000
  S   S357      1.0  0.85768  0.31057  0.09131  1.0000
  H   H2095     1.0  0.90236  0.35505  0.42027  1.0000
  S   S358      1.0  0.87921  0.29498  0.02746  1.0000
  C   C2619     1.0  0.79283  0.22166  0.01867  1.0000
  C   C2620     1.0  0.78784  0.22209  0.04749  1.0000
  S   S359      1.0  0.85383  0.26236  0.99061  1.0000
  C   C2621     1.0  0.95490  0.37260  0.34435  1.0000
  C   C2622     1.0  0.92771  0.22558  0.24292  1.0000
  C   C2623     1.0  0.76327  0.19651  0.03704  1.0000
  H   H2096     1.0  0.96227  0.30190  0.26562  1.0000
  H   H2097     1.0  0.77662  0.29641  0.04323  1.0000
  Fe  Fe178     1.0  0.86158  0.28841  0.48101  1.0000
  C   C2624     1.0  0.89798  0.22565  0.10649  1.0000
  C   C2625     1.0  0.89996  0.22215  0.07701  1.0000
  C   C2626     1.0  0.89520  0.22995  0.05395  1.0000
  C   C2627     1.0  0.88863  0.24145  0.06016  1.0000
  C   C2628     1.0  0.88598  0.24447  0.08952  1.0000
  C   C2629     1.0  0.89066  0.23657  0.11265  1.0000
  H   H2098     1.0  0.90568  0.21390  0.07196  1.0000
  H   H2099     1.0  0.89725  0.22751  0.03128  1.0000
  H   H2100     1.0  0.88090  0.25331  0.09445  1.0000
  H   H2101     1.0  0.88906  0.23929  0.13542  1.0000
  C   C2630     1.0  0.95015  0.20596  0.41811  1.0000
  C   C2631     1.0  0.95450  0.19000  0.30779  1.0000
  H   H2102     1.0  0.73094  0.21630  0.03617  1.0000
  C   C2632     1.0  0.78154  0.32480  0.44072  1.0000
  H   H2103     1.0  0.54884  0.20255  0.28086  1.0000
  C   C2633     1.0  0.89182  0.33541  0.17498  1.0000
  C   C2634     1.0  0.89449  0.32348  0.15784  1.0000
  C   C2635     1.0  0.88433  0.31586  0.13215  1.0000
  C   C2636     1.0  0.87122  0.31999  0.12324  1.0000
  C   C2637     1.0  0.86853  0.33190  0.14042  1.0000
  C   C2638     1.0  0.87875  0.33960  0.16602  1.0000
  H   H2104     1.0  0.90451  0.32008  0.16447  1.0000
  H   H2105     1.0  0.88660  0.30674  0.11933  1.0000
  H   H2106     1.0  0.85844  0.33521  0.13387  1.0000
  H   H2107     1.0  0.87646  0.34868  0.17887  1.0000
  C   C2639     1.0  0.89189  0.34289  0.37795  1.0000
  C   C2640     1.0  0.88152  0.32791  0.36402  1.0000
  C   C2641     1.0  0.87342  0.31409  0.38110  1.0000
  C   C2642     1.0  0.87574  0.31485  0.41231  1.0000
  C   C2643     1.0  0.88652  0.32970  0.42614  1.0000
  C   C2644     1.0  0.89438  0.34359  0.40912  1.0000
  H   H2108     1.0  0.87928  0.32708  0.34018  1.0000
  H   H2109     1.0  0.86517  0.30272  0.37001  1.0000
  H   H2110     1.0  0.88869  0.33054  0.45000  1.0000
  H   H2111     1.0  0.92298  0.34107  0.37160  1.0000
  H   H2112     1.0  0.93075  0.23322  0.28909  1.0000
  H   H2113     1.0  0.97009  0.23275  0.25854  1.0000
  C   C2645     1.0  0.93750  0.21728  0.45382  1.0000
  C   C2646     1.0  0.91216  0.31263  0.30416  1.0000
  C   C2647     1.0  0.97403  0.37352  0.13341  1.0000
  H   H2114     1.0  0.88788  0.33013  0.27252  1.0000
  H   H2115     1.0  0.95384  0.23067  0.01742  1.0000
  C   C2648     1.0  0.97844  0.35384  0.39402  1.0000
  C   C2649     1.0  0.88050  0.22469  0.44917  1.0000
  C   C2650     1.0  0.95853  0.30156  0.28820  1.0000
  H   H2116     1.0  0.73416  0.19973  0.99461  1.0000
  C   C2651     1.0  0.82912  0.22272  0.07232  1.0000
  H   H2117     1.0  0.93064  0.26085  0.08103  1.0000
  C   C2652     1.0  0.88946  0.30817  0.25587  1.0000
  C   C2653     1.0  0.92803  0.20826  0.28348  1.0000
  C   C2654     1.0  0.75411  0.29906  0.03257  1.0000
  H   H2118     1.0  0.97338  0.36912  0.11074  1.0000
  C   C2655     1.0  0.95264  0.23908  0.06149  1.0000
  H   H2119     1.0  0.97632  0.33804  0.35609  1.0000
  H   H2120     1.0  0.82394  0.23173  0.06950  1.0000
  C   C2656     1.0  0.80815  0.26716  0.45955  1.0000
  C   C2657     1.0  0.94608  0.24748  0.07960  1.0000
  H   H2121     1.0  0.97771  0.20065  0.33336  1.0000
  H   H2122     1.0  0.94842  0.37054  0.18904  1.0000
  C   C2658     1.0  0.89152  0.21848  0.40490  1.0000
  C   C2659     1.0  0.90494  0.19137  0.98582  1.0000
  H   H2123     1.0  0.89331  0.28656  0.24473  1.0000
  C   C2660     1.0  0.92628  0.31354  0.39525  1.0000
  C   C2661     1.0  0.95226  0.34692  0.32155  1.0000
  H   H2124     1.0  0.94850  0.24819  0.10344  1.0000
  C   C2662     1.0  0.76512  0.29155  0.02994  1.0000
  C   C2663     1.0  0.81392  0.34624  0.45755  1.0000
  H   H2125     1.0  0.88121  0.30689  0.23657  1.0000
  C   C2664     1.0  0.96613  0.21322  0.22631  1.0000
  C   C2665     1.0  0.92608  0.19545  0.26320  1.0000
  H   H2126     1.0  0.73051  0.29877  0.01813  1.0000
  H   H2127     1.0  0.96614  0.35343  0.39031  1.0000
  C   C2666     1.0  0.90764  0.29895  0.28457  1.0000
  H   H2128     1.0  0.97511  0.38796  0.21522  1.0000
  H   H2129     1.0  0.93867  0.32300  0.39689  1.0000
  C   C2667     1.0  0.96358  0.22108  0.41760  1.0000
  H   H2130     1.0  0.94239  0.31356  0.27814  1.0000
  S   S360      1.0  0.94916  0.19527  0.03427  1.0000
  C   C2668     1.0  0.83977  0.19880  0.98997  1.0000
  C   C2669     1.0  0.89643  0.29684  0.26036  1.0000
  C   C2670     1.0  0.84079  0.33046  0.48268  1.0000
  H   H2131     1.0  0.94522  0.30003  0.36906  1.0000
  C   C2671     1.0  0.90444  0.32347  0.30032  1.0000
  H   H2132     1.0  0.92412  0.25842  0.02743  1.0000
  C   C2672     1.0  0.94169  0.36423  0.36170  1.0000
  C   C2673     1.0  0.90256  0.29497  0.41963  1.0000
  H   H2133     1.0  0.97004  0.37061  0.31008  1.0000
  C   C2674     1.0  0.96500  0.29457  0.31007  1.0000
  H   H2134     1.0  0.82426  0.26786  0.42487  1.0000
  H   H2135     1.0  0.97448  0.24594  0.43475  1.0000
  H   H2136     1.0  0.96058  0.38580  0.34544  1.0000
  C   C2675     1.0  0.96987  0.19996  0.21847  1.0000
  C   C2676     1.0  0.84285  0.19969  0.07882  1.0000
  H   H2137     1.0  0.84853  0.19111  0.08173  1.0000
  C   C2677     1.0  0.83379  0.19965  0.05239  1.0000
  P   P90       1.0  0.82683  0.32289  0.45027  1.0000
  C   C2678     1.0  0.84521  0.21137  0.10156  1.0000
  C   C2679     1.0  0.81889  0.30095  0.45252  1.0000
  C   C2680     1.0  0.82467  0.29167  0.43461  1.0000
  C   C2681     1.0  0.81933  0.27484  0.43816  1.0000
  H   H2138     1.0  0.79118  0.30657  0.43472  1.0000
  C   C2682     1.0  0.97482  0.38407  0.19231  1.0000
  C   C2683     1.0  0.48108  0.37354  0.11703  1.0000
  S   S361      1.0  0.81016  0.23794  0.00462  1.0000
  C   C2684     1.0  0.93369  0.34720  0.35895  1.0000
  H   H2139     1.0  0.76904  0.21057  0.07840  1.0000
  H   H2140     1.0  0.86027  0.32569  0.46326  1.0000
  C   C2685     1.0  0.96023  0.36396  0.32436  1.0000
  C   C2686     1.0  0.83698  0.33018  0.41641  1.0000
  C   C2687     1.0  0.82969  0.32223  0.38908  1.0000
  C   C2688     1.0  0.83727  0.32809  0.36269  1.0000
  C   C2689     1.0  0.85195  0.34214  0.36335  1.0000
  C   C2690     1.0  0.85899  0.35040  0.39035  1.0000
  C   C2691     1.0  0.85154  0.34450  0.41679  1.0000
  H   H2141     1.0  0.82648  0.35475  0.46346  1.0000
  C   C2692     1.0  0.93232  0.25316  0.03632  1.0000
  C   C2693     1.0  0.76112  0.27788  0.01055  1.0000
  P   P91       1.0  0.92040  0.21510  0.47611  1.0000
  C   C2694     1.0  0.75024  0.23877  0.02335  1.0000
  H   H2142     1.0  0.83371  0.29742  0.41856  1.0000
  Fe  Fe179     1.0  0.93899  0.19136  0.08118  1.0000
  C   C2695     1.0  0.95938  0.36899  0.14811  1.0000
  H   H2143     1.0  0.88163  0.28013  0.39098  1.0000
  H   H2144     1.0  0.92871  0.20660  0.30713  1.0000
  C   C2696     1.0  0.74006  0.22210  0.02016  1.0000
  C   C2697     1.0  0.80131  0.35185  0.45675  1.0000
  C   C2698     1.0  0.82715  0.21141  0.04921  1.0000
  C   C2699     1.0  0.76879  0.19556  0.00881  1.0000
  H   H2145     1.0  0.81823  0.31143  0.38818  1.0000
  H   H2146     1.0  0.83185  0.32169  0.34172  1.0000
  H   H2147     1.0  0.85805  0.34655  0.34302  1.0000
  H   H2148     1.0  0.87048  0.36120  0.39076  1.0000
  H   H2149     1.0  0.85722  0.35115  0.43739  1.0000
  H   H2150     1.0  0.89106  0.21703  0.38096  1.0000
  H   H2151     1.0  0.75725  0.30956  0.04766  1.0000
  C   C2700     1.0  0.92550  0.21283  0.22262  1.0000
  C   C2701     1.0  0.76251  0.24613  0.00327  1.0000
  H   H2152     1.0  0.96030  0.23336  0.07114  1.0000
  C   C2702     1.0  0.93897  0.33837  0.33899  1.0000
  C   C2703     1.0  0.78338  0.20812  0.99967  1.0000
  C   C2704     1.0  0.78970  0.27292  0.03861  1.0000
  H   H2153     1.0  0.90721  0.33376  0.31571  1.0000
  C   C2705     1.0  0.94206  0.30749  0.32449  1.0000
  C   C2706     1.0  0.96016  0.29413  0.33916  1.0000
  H   H2154     1.0  0.92488  0.31173  0.44273  1.0000
  C   C2707     1.0  0.94890  0.23754  0.03090  1.0000
  H   H2155     1.0  0.89501  0.29118  0.34490  1.0000
  C   C2708     1.0  0.78835  0.26159  0.06060  1.0000
  C   C2709     1.0  0.80007  0.26568  0.08455  1.0000
  C   C2710     1.0  0.81314  0.28111  0.08680  1.0000
  C   C2711     1.0  0.81445  0.29248  0.06519  1.0000
  C   C2712     1.0  0.80289  0.28838  0.04105  1.0000
  H   H2156     1.0  0.54714  0.18960  0.32950  1.0000
  C   C2713     1.0  0.93708  0.20409  0.43593  1.0000
  H   H2157     1.0  0.79508  0.23219  0.06259  1.0000
  C   C2714     1.0  0.73905  0.29298  0.01595  1.0000
  H   H2158     1.0  0.92839  0.23719  0.23497  1.0000
  H   H2159     1.0  0.95158  0.24287  0.46625  1.0000
  C   C2715     1.0  0.87991  0.22282  0.41832  1.0000
  C   C2716     1.0  0.92902  0.22332  0.27335  1.0000
  H   H2160     1.0  0.92673  0.19233  0.43598  1.0000
  H   H2161     1.0  0.80439  0.29723  0.02412  1.0000
  C   C2717     1.0  0.95978  0.37420  0.17759  1.0000
  C   C2718     1.0  0.89328  0.32133  0.27609  1.0000
  H   H2162     1.0  0.93709  0.37097  0.37632  1.0000
  C   C2719     1.0  0.90185  0.29563  0.36596  1.0000
  H   H2163     1.0  0.77851  0.24950  0.05913  1.0000
  H   H2164     1.0  0.79916  0.25681  0.10118  1.0000
  H   H2165     1.0  0.82243  0.28424  0.10502  1.0000
  H   H2166     1.0  0.82474  0.30435  0.06679  1.0000
  C   C2720     1.0  0.74594  0.27185  0.99393  1.0000
  H   H2167     1.0  0.89636  0.29029  0.43976  1.0000
  H   H2168     1.0  0.96802  0.25908  0.98648  1.0000
  H   H2169     1.0  0.84036  0.23204  0.11578  1.0000
  Fe  Fe180     1.0  0.86120  0.28943  0.98758  1.0000
  H   H2170     1.0  0.94768  0.36130  0.13676  1.0000
  C   C2721     1.0  0.80236  0.27632  0.47750  1.0000
  C   C2722     1.0  0.85289  0.21426  0.99441  1.0000
  H   H2171     1.0  0.92444  0.21455  0.19896  1.0000
  H   H2172     1.0  0.74865  0.24590  0.04161  1.0000
  C   C2723     1.0  0.94877  0.30058  0.34640  1.0000
  C   C2724     1.0  0.89268  0.22225  0.46660  1.0000
  C   C2725     1.0  0.96735  0.20703  0.01537  1.0000
  C   C2726     1.0  0.89424  0.28920  0.39203  1.0000
  H   H2173     1.0  0.80430  0.25418  0.46283  1.0000
  P   P92       1.0  0.92782  0.31647  0.33385  1.0000
  C   C2727     1.0  0.83830  0.22283  0.09838  1.0000
  C   C2728     1.0  0.48726  0.38049  0.05744  1.0000
  H   H2174     1.0  0.76903  0.31652  0.43385  1.0000
  C   C2729     1.0  0.91793  0.30791  0.36738  1.0000
  H   H2175     1.0  0.95301  0.20140  0.30802  1.0000
  C   C2730     1.0  0.94719  0.30808  0.29538  1.0000
  C   C2731     1.0  0.90378  0.21610  0.42232  1.0000
  H   H2176     1.0  0.82071  0.21206  0.02859  1.0000
  C   C2732     1.0  0.95092  0.23248  0.45281  1.0000
  C   C2733     1.0  0.92484  0.19789  0.23268  1.0000
  H   H2177     1.0  0.91290  0.29004  0.28766  1.0000
  H   H2178     1.0  0.77534  0.34547  0.44777  1.0000
  H   H2179     1.0  0.86818  0.19703  0.02415  1.0000
  C   C2734     1.0  0.77308  0.20972  0.05645  1.0000
  C   C2735     1.0  0.93606  0.25465  0.06697  1.0000
  C   C2736     1.0  0.54198  0.18948  0.28236  1.0000
  H   H2180     1.0  0.95620  0.34061  0.30507  1.0000
  H   H2181     1.0  0.96519  0.28869  0.35610  1.0000
  C   C2737     1.0  0.79413  0.31915  0.44149  1.0000
  C   C2738     1.0  0.93850  0.24434  0.01803  1.0000
  C   C2739     1.0  0.90451  0.21804  0.45339  1.0000
  H   H2182     1.0  0.48368  0.36173  0.99477  1.0000
  P   P93       1.0  0.77504  0.26785  0.00697  1.0000
  C   C2740     1.0  0.96387  0.23434  0.43474  1.0000
  H   H2183     1.0  0.85853  0.21873  0.01641  1.0000
  C   C2741     1.0  0.80783  0.29318  0.47425  1.0000
  C   C2742     1.0  0.78511  0.34111  0.44848  1.0000
  H   H2184     1.0  0.97374  0.28945  0.30447  1.0000
  C   C2743     1.0  0.91745  0.20709  0.98881  1.0000
  H   H2185     1.0  0.87160  0.22819  0.45971  1.0000
  H   H2186     1.0  0.85284  0.21185  0.12130  1.0000
  H   H2187     1.0  0.51452  0.21095  0.99082  1.0000
  H   H2188     1.0  0.80540  0.26630  0.98878  1.0000
  H   H2189     1.0  0.85096  0.19071  0.16030  1.0000
  H   H2190     1.0  0.48988  0.38343  0.03461  1.0000
  H   H2191     1.0  0.49247  0.38158  0.20634  1.0000
  H   H2192     1.0  0.97395  0.22249  0.40446  1.0000
  H   H2193     1.0  0.80413  0.36456  0.46232  1.0000
  C   C2744     1.0  0.85651  0.33026  0.48266  1.0000
  C   C2745     1.0  0.74183  0.21273  0.99665  1.0000
  C   C2746     1.0  0.49564  0.38635  0.10979  1.0000
  C   C2747     1.0  0.97336  0.22273  0.25261  1.0000
  H   H2194     1.0  0.90259  0.24666  0.98609  1.0000
  C   C2748     1.0  0.96864  0.18966  0.32224  1.0000
  H   H2195     1.0  0.95004  0.19567  0.40501  1.0000
  C   C2749     1.0  0.73497  0.27938  0.99663  1.0000
  C   C2750     1.0  0.96754  0.20420  0.98458  1.0000
  C   C2751     1.0  0.76068  0.19308  0.60761  1.0000
  Fe  Fe181     1.0  0.90603  0.36999  0.81512  1.0000
  S   S362      1.0  0.88846  0.37073  0.77778  1.0000
  S   S363      1.0  0.89964  0.36209  0.86326  1.0000
  Fe  Fe182     1.0  0.90279  0.36149  0.74764  1.0000
  S   S364      1.0  0.88925  0.33782  0.71874  1.0000
  S   S365      1.0  0.91951  0.35975  0.78560  1.0000
  Fe  Fe183     1.0  0.92736  0.20987  0.62037  1.0000
  S   S366      1.0  0.92094  0.23186  0.62599  1.0000
  H   H2196     1.0  0.84133  0.31960  0.85277  1.0000
  C   C2752     1.0  0.79013  0.20648  0.60220  1.0000
  H   H2197     1.0  0.86377  0.25694  0.62707  1.0000
  S   S367      1.0  0.95389  0.21285  0.62131  1.0000
  C   C2753     1.0  0.87693  0.19272  0.63598  1.0000
  S   S368      1.0  0.84630  0.29331  0.51551  1.0000
  S   S369      1.0  0.86571  0.29766  0.93913  1.0000
  Fe  Fe184     1.0  0.86903  0.26474  0.52228  1.0000
  S   S370      1.0  0.85529  0.26889  0.55982  1.0000
  S   S371      1.0  0.87777  0.24424  0.52139  1.0000
  Fe  Fe185     1.0  0.83564  0.26618  0.52402  1.0000
  S   S372      1.0  0.80810  0.25143  0.53116  1.0000
  Fe  Fe186     1.0  0.86704  0.29544  0.54870  1.0000
  S   S373      1.0  0.87927  0.31844  0.57934  1.0000
  H   H2198     1.0  0.89406  0.35750  0.92541  1.0000
  S   S374      1.0  0.88265  0.29145  0.51363  1.0000
  C   C2754     1.0  0.79493  0.23010  0.52783  1.0000
  C   C2755     1.0  0.78133  0.28222  0.95153  1.0000
  H   H2199     1.0  0.82334  0.33473  0.50994  1.0000
  C   C2756     1.0  0.81034  0.27733  0.94652  1.0000
  H   H2200     1.0  0.81663  0.29489  0.57754  1.0000
  C   C2757     1.0  0.80065  0.21822  0.51981  1.0000
  H   H2201     1.0  0.87042  0.34413  0.55359  1.0000
  C   C2758     1.0  0.79089  0.35356  0.83202  1.0000
  H   H2202     1.0  0.81346  0.22191  0.51515  1.0000
  C   C2759     1.0  0.90808  0.23493  0.59798  1.0000
  C   C2760     1.0  0.89944  0.22266  0.57650  1.0000
  C   C2761     1.0  0.88982  0.22555  0.55365  1.0000
  C   C2762     1.0  0.88883  0.24077  0.55194  1.0000
  C   C2763     1.0  0.89708  0.25294  0.57385  1.0000
  C   C2764     1.0  0.90666  0.25000  0.59689  1.0000
  H   H2203     1.0  0.90025  0.21097  0.57732  1.0000
  H   H2204     1.0  0.88321  0.21595  0.53716  1.0000
  H   H2205     1.0  0.89648  0.26476  0.57246  1.0000
  H   H2206     1.0  0.91342  0.25957  0.61331  1.0000
  C   C2765     1.0  0.50473  0.20769  0.97354  1.0000
  C   C2766     1.0  0.95918  0.22995  0.91720  1.0000
  H   H2207     1.0  0.80368  0.30018  0.48907  1.0000
  C   C2767     1.0  0.75398  0.21996  0.97657  1.0000
  H   H2208     1.0  0.89421  0.26843  0.96928  1.0000
  C   C2768     1.0  0.88653  0.33285  0.67980  1.0000
  C   C2769     1.0  0.87715  0.31652  0.67004  1.0000
  C   C2770     1.0  0.87480  0.31181  0.63955  1.0000
  C   C2771     1.0  0.88164  0.32349  0.61825  1.0000
  C   C2772     1.0  0.89095  0.33984  0.62800  1.0000
  C   C2773     1.0  0.89338  0.34451  0.65851  1.0000
  H   H2209     1.0  0.87165  0.30746  0.68626  1.0000
  H   H2210     1.0  0.86774  0.29917  0.63260  1.0000
  H   H2211     1.0  0.89636  0.34900  0.61183  1.0000
  H   H2212     1.0  0.90057  0.35712  0.66555  1.0000
  C   C2774     1.0  0.89083  0.34391  0.88402  1.0000
  C   C2775     1.0  0.88491  0.32814  0.87088  1.0000
  C   C2776     1.0  0.87764  0.31424  0.88822  1.0000
  C   C2777     1.0  0.87630  0.31577  0.91905  1.0000
  C   C2778     1.0  0.88246  0.33153  0.93227  1.0000
  C   C2779     1.0  0.88955  0.34543  0.91486  1.0000
  H   H2213     1.0  0.88589  0.32664  0.84734  1.0000
  H   H2214     1.0  0.87292  0.30218  0.87760  1.0000
  H   H2215     1.0  0.88148  0.33303  0.95582  1.0000
  H   H2216     1.0  0.48602  0.37035  0.94281  1.0000
  C   C2780     1.0  0.92478  0.31680  0.68282  1.0000
  H   H2217     1.0  0.81199  0.28858  0.90436  1.0000
  H   H2218     1.0  0.93361  0.22178  0.92584  1.0000
  H   H2219     1.0  0.86776  0.34049  0.82859  1.0000
  C   C2781     1.0  0.79120  0.21916  0.62207  1.0000
  C   C2782     1.0  0.87090  0.26495  0.64550  1.0000
  H   H2220     1.0  0.75434  0.20458  0.53554  1.0000
  C   C2783     1.0  0.92277  0.29980  0.62398  1.0000
  H   H2221     1.0  0.97404  0.23767  0.76293  1.0000
  C   C2784     1.0  0.93391  0.34687  0.71424  1.0000
  H   H2222     1.0  0.84848  0.23111  0.55910  1.0000
  H   H2223     1.0  0.79403  0.27036  0.49458  1.0000
  C   C2785     1.0  0.81427  0.24310  0.73414  1.0000
  C   C2786     1.0  0.95545  0.28599  0.70134  1.0000
  H   H2224     1.0  0.84171  0.30633  0.89985  1.0000
  C   C2787     1.0  0.87275  0.27627  0.69522  1.0000
  H   H2225     1.0  0.92952  0.26686  0.53078  1.0000
  C   C2788     1.0  0.89352  0.19713  0.80503  1.0000
  H   H2226     1.0  0.86699  0.27705  0.71547  1.0000
  C   C2789     1.0  0.83846  0.20385  0.93730  1.0000
  H   H2227     1.0  0.84282  0.32063  0.94764  1.0000
  C   C2790     1.0  0.77681  0.21865  0.63458  1.0000
  C   C2791     1.0  0.81243  0.25452  0.61466  1.0000
  H   H2228     1.0  0.93719  0.35843  0.72638  1.0000
  C   C2792     1.0  0.97536  0.24033  0.92630  1.0000
  C   C2793     1.0  0.92306  0.26902  0.67803  1.0000
  C   C2794     1.0  0.90546  0.20095  0.78404  1.0000
  H   H2229     1.0  0.87203  0.37006  0.87874  1.0000
  H   H2230     1.0  0.92412  0.33067  0.64407  1.0000
  H   H2231     1.0  0.49646  0.20734  0.72444  1.0000
  H   H2232     1.0  0.77403  0.24170  0.96466  1.0000
  C   C2795     1.0  0.83568  0.33525  0.50884  1.0000
  C   C2796     1.0  0.93002  0.28620  0.67919  1.0000
  C   C2797     1.0  0.81964  0.25672  0.71640  1.0000
  H   H2233     1.0  0.95223  0.30785  0.69061  1.0000
  C   C2798     1.0  0.93106  0.34593  0.68346  1.0000
  H   H2234     1.0  0.82162  0.27546  0.94473  1.0000
  H   H2235     1.0  0.89632  0.29432  0.71080  1.0000
  H   H2236     1.0  0.77018  0.28424  0.95298  1.0000
  C   C2799     1.0  0.88762  0.27459  0.64284  1.0000
  H   H2237     1.0  0.92687  0.24718  0.68717  1.0000
  H   H2238     1.0  0.94797  0.26905  0.94195  1.0000
  C   C2800     1.0  0.86221  0.34050  0.53375  1.0000
  H   H2239     1.0  0.82266  0.26542  0.67233  1.0000
  C   C2801     1.0  0.94639  0.29462  0.69048  1.0000
  H   H2240     1.0  0.84788  0.20041  0.53772  1.0000
  H   H2241     1.0  0.93524  0.19223  0.49343  1.0000
  P   P94       1.0  0.91883  0.29730  0.66293  1.0000
  C   C2802     1.0  0.78971  0.20151  0.51747  1.0000
  C   C2803     1.0  0.84883  0.22081  0.63125  1.0000
  H   H2242     1.0  0.86360  0.22063  0.59477  1.0000
  C   C2804     1.0  0.93124  0.28084  0.93798  1.0000
  C   C2805     1.0  0.79050  0.28727  0.92640  1.0000
  C   C2806     1.0  0.87143  0.37792  0.86117  1.0000
  H   H2243     1.0  0.82460  0.26893  0.72662  1.0000
  C   C2807     1.0  0.77814  0.22497  0.53355  1.0000
  H   H2244     1.0  0.84247  0.34393  0.55445  1.0000
  C   C2808     1.0  0.86348  0.26571  0.67174  1.0000
  C   C2809     1.0  0.50641  0.21778  0.94948  1.0000
  H   H2245     1.0  0.85586  0.22721  0.92369  1.0000
  C   C2810     1.0  0.79841  0.25627  0.60246  1.0000
  H   H2246     1.0  0.82607  0.34278  0.77902  1.0000
  C   C2811     1.0  0.90229  0.19141  0.75779  1.0000
  H   H2247     1.0  0.83229  0.32957  0.73574  1.0000
  H   H2248     1.0  0.93204  0.35676  0.67182  1.0000
  Fe  Fe187     1.0  0.94566  0.19204  0.65261  1.0000
  C   C2812     1.0  0.80668  0.22524  0.69005  1.0000
  H   H2249     1.0  0.80159  0.21297  0.68017  1.0000
  H   H2250     1.0  0.78715  0.20752  0.97740  1.0000
  H   H2251     1.0  0.90351  0.30827  0.61420  1.0000
  H   H2252     1.0  0.87723  0.19934  0.94151  1.0000
  H   H2253     1.0  0.89312  0.27356  0.62250  1.0000
  H   H2254     1.0  0.84144  0.29212  0.59927  1.0000
  H   H2255     1.0  0.93416  0.33361  0.75339  1.0000
  H   H2256     1.0  0.85605  0.32170  0.73862  1.0000
  C   C2813     1.0  0.94605  0.22996  0.93314  1.0000
  C   C2814     1.0  0.80775  0.22736  0.72096  1.0000
  C   C2815     1.0  0.81218  0.23887  0.67205  1.0000
  C   C2816     1.0  0.92647  0.33099  0.66778  1.0000
  C   C2817     1.0  0.97107  0.20303  0.72538  1.0000
  H   H2257     1.0  0.87923  0.33491  0.50810  1.0000
  C   C2818     1.0  0.76717  0.20826  0.53102  1.0000
  H   H2258     1.0  0.77732  0.22835  0.64978  1.0000
  C   C2819     1.0  0.83587  0.22452  0.64060  1.0000
  H   H2259     1.0  0.83895  0.26653  0.62260  1.0000
  H   H2260     1.0  0.77353  0.23399  0.53985  1.0000
  C   C2820     1.0  0.85151  0.21918  0.94200  1.0000
  C   C2821     1.0  0.85341  0.22325  0.60195  1.0000
  C   C2822     1.0  0.91307  0.30521  0.60531  1.0000
  C   C2823     1.0  0.86722  0.33539  0.50803  1.0000
  C   C2824     1.0  0.51520  0.19792  0.73010  1.0000
  H   H2261     1.0  0.91180  0.19441  0.74192  1.0000
  C   C2825     1.0  0.82738  0.23070  0.62059  1.0000
  S   S375      1.0  0.84905  0.26114  0.48701  1.0000
  C   C2826     1.0  0.97846  0.25078  0.95125  1.0000
  H   H2262     1.0  0.92906  0.30309  0.53920  1.0000
  C   C2827     1.0  0.82794  0.26760  0.61359  1.0000
  C   C2828     1.0  0.82941  0.28217  0.60054  1.0000
  C   C2829     1.0  0.93480  0.29552  0.61166  1.0000
  C   C2830     1.0  0.80496  0.28479  0.92387  1.0000
  C   C2831     1.0  0.94835  0.26890  0.70043  1.0000
  C   C2832     1.0  0.76160  0.20570  0.62723  1.0000
  H   H2263     1.0  0.80936  0.32696  0.82681  1.0000
  H   H2264     1.0  0.84941  0.37849  0.79758  1.0000
  C   C2833     1.0  0.93222  0.33286  0.72943  1.0000
  C   C2834     1.0  0.80821  0.33850  0.82980  1.0000
  C   C2835     1.0  0.83185  0.23277  0.59103  1.0000
  H   H2265     1.0  0.78638  0.29309  0.90884  1.0000
  C   C2836     1.0  0.93959  0.25233  0.55559  1.0000
  C   C2837     1.0  0.94208  0.23788  0.55587  1.0000
  C   C2838     1.0  0.93641  0.22673  0.53165  1.0000
  C   C2839     1.0  0.84643  0.34036  0.53420  1.0000
  H   H2266     1.0  0.93927  0.29051  0.92474  1.0000
  H   H2267     1.0  0.87380  0.32728  0.78494  1.0000
  C   C2840     1.0  0.88669  0.19350  0.68728  1.0000
  H   H2268     1.0  0.94809  0.23515  0.57519  1.0000
  H   H2269     1.0  0.91727  0.21121  0.78820  1.0000
  H   H2270     1.0  0.93852  0.21563  0.53242  1.0000
  C   C2841     1.0  0.85889  0.38265  0.81547  1.0000
  H   H2271     1.0  0.85547  0.21620  0.64678  1.0000
  C   C2842     1.0  0.85851  0.37253  0.83916  1.0000
  C   C2843     1.0  0.89705  0.28533  0.66623  1.0000
  H   H2272     1.0  0.83268  0.22266  0.66344  1.0000
  H   H2273     1.0  0.95543  0.26218  0.70840  1.0000
  S   S376      1.0  0.95845  0.19246  0.54200  1.0000
  C   C2844     1.0  0.84275  0.34232  0.92739  1.0000
  S   S377      1.0  0.91917  0.19201  0.58146  1.0000
  H   H2274     1.0  0.83112  0.37900  0.84632  1.0000
  H   H2275     1.0  0.78914  0.27193  0.57919  1.0000
  C   C2845     1.0  0.93170  0.25579  0.53081  1.0000
  C   C2846     1.0  0.88493  0.20163  0.66196  1.0000
  H   H2276     1.0  0.87610  0.19905  0.61612  1.0000
  H   H2277     1.0  0.94622  0.29322  0.57176  1.0000
  C   C2847     1.0  0.90582  0.26836  0.96284  1.0000
  H   H2278     1.0  0.82530  0.23726  0.57505  1.0000
  C   C2848     1.0  0.81853  0.25465  0.68548  1.0000
  H   H2279     1.0  0.78637  0.24629  0.60200  1.0000
  C   C2849     1.0  0.91548  0.30658  0.57497  1.0000
  C   C2850     1.0  0.79992  0.27087  0.58946  1.0000
  C   C2851     1.0  0.97691  0.20120  0.49257  1.0000
  C   C2852     1.0  0.81541  0.28377  0.58838  1.0000
  H   H2280     1.0  0.96085  0.22074  0.71698  1.0000
  H   H2281     1.0  0.80086  0.20660  0.59166  1.0000
  C   C2853     1.0  0.90118  0.21719  0.95703  1.0000
  C   C2854     1.0  0.96537  0.25090  0.96717  1.0000
  C   C2855     1.0  0.77288  0.19637  0.52291  1.0000
  H   H2282     1.0  0.81508  0.24474  0.75810  1.0000
  C   C2856     1.0  0.89038  0.18858  0.96902  1.0000
  H   H2283     1.0  0.74257  0.26129  0.97888  1.0000
  H   H2284     1.0  0.80348  0.21680  0.73474  1.0000
  C   C2857     1.0  0.88946  0.28609  0.69248  1.0000
  C   C2858     1.0  0.92739  0.30222  0.56282  1.0000
  P   P95       1.0  0.81077  0.23589  0.63212  1.0000
  C   C2859     1.0  0.93220  0.26044  0.68868  1.0000
  C   C2860     1.0  0.93704  0.29668  0.58117  1.0000
  C   C2861     1.0  0.92808  0.22989  0.50693  1.0000
  H   H2285     1.0  0.94348  0.26061  0.57490  1.0000
  C   C2862     1.0  0.80118  0.27223  0.97157  1.0000
  C   C2863     1.0  0.94907  0.24036  0.95840  1.0000
  C   C2864     1.0  0.79257  0.33880  0.82777  1.0000
  Fe  Fe188     1.0  0.93588  0.38587  0.77647  1.0000
  Fe  Fe189     1.0  0.94518  0.19364  0.58413  1.0000
  H   H2286     1.0  0.90800  0.31097  0.56093  1.0000
  H   H2287     1.0  0.78173  0.32758  0.82299  1.0000
  H   H2288     1.0  0.85057  0.25816  0.67384  1.0000
  H   H2289     1.0  0.91071  0.26217  0.66840  1.0000
  C   C2865     1.0  0.84490  0.22919  0.58186  1.0000
  C   C2866     1.0  0.92772  0.31790  0.71384  1.0000
  H   H2290     1.0  0.75566  0.21253  0.95890  1.0000
  C   C2867     1.0  0.80485  0.36799  0.83858  1.0000
  C   C2868     1.0  0.82051  0.36773  0.84064  1.0000
  C   C2869     1.0  0.82232  0.35302  0.83561  1.0000
  H   H2291     1.0  0.94231  0.29103  0.62532  1.0000
  P   P96       1.0  0.84231  0.35225  0.83923  1.0000
  C   C2870     1.0  0.84259  0.34218  0.87349  1.0000
  C   C2871     1.0  0.84586  0.34168  0.80772  1.0000
  C   C2872     1.0  0.85950  0.33750  0.80888  1.0000
  C   C2873     1.0  0.86296  0.33004  0.78421  1.0000
  C   C2874     1.0  0.85300  0.32698  0.75801  1.0000
  C   C2875     1.0  0.83961  0.33144  0.75642  1.0000
  C   C2876     1.0  0.83609  0.33886  0.78112  1.0000
  C   C2877     1.0  0.84273  0.35008  0.90071  1.0000
  H   H2292     1.0  0.95684  0.19486  0.97307  1.0000
  C   C2878     1.0  0.84230  0.32653  0.92702  1.0000
  C   C2879     1.0  0.84166  0.31843  0.89999  1.0000
  C   C2880     1.0  0.84174  0.32616  0.87331  1.0000
  H   H2293     1.0  0.82106  0.20151  0.54731  1.0000
  C   C2881     1.0  0.82313  0.19069  0.55250  1.0000
  H   H2294     1.0  0.92635  0.30716  0.72608  1.0000
  H   H2295     1.0  0.86870  0.23632  0.97434  1.0000
  H   H2296     1.0  0.96804  0.29252  0.71014  1.0000
  C   C2882     1.0  0.92618  0.24475  0.50637  1.0000
  C   C2883     1.0  0.97659  0.22387  0.52186  1.0000
  H   H2297     1.0  0.75047  0.20547  0.63649  1.0000
  H   H2298     1.0  0.89325  0.20076  0.70675  1.0000
  C   C2884     1.0  0.77496  0.19341  0.59542  1.0000
  H   H2299     1.0  0.52514  0.20987  0.73442  1.0000
  C   C2885     1.0  0.92576  0.25602  0.96501  1.0000
  C   C2886     1.0  0.49905  0.19649  0.72448  1.0000
  H   H2300     1.0  0.89605  0.20448  0.82546  1.0000
  H   H2301     1.0  0.95690  0.22174  0.89802  1.0000
  C   C2887     1.0  0.91611  0.28073  0.94555  1.0000
  H   H2302     1.0  0.89962  0.22682  0.94488  1.0000
  H   H2303     1.0  0.84341  0.34864  0.94839  1.0000
  H   H2304     1.0  0.77877  0.35379  0.83045  1.0000
  C   C2888     1.0  0.96863  0.21722  0.73193  1.0000
  S   S378      1.0  0.92029  0.38691  0.73642  1.0000
  H   H2305     1.0  0.91238  0.29031  0.93829  1.0000
  H   H2306     1.0  0.84312  0.36234  0.90131  1.0000
  C   C2889     1.0  0.93611  0.26859  0.94778  1.0000
  H   H2307     1.0  0.89035  0.21488  0.66209  1.0000
  C   C2890     1.0  0.88850  0.20149  0.95462  1.0000
  H   H2308     1.0  0.80356  0.37941  0.84220  1.0000
  H   H2309     1.0  0.83268  0.19997  0.91525  1.0000
  C   C2891     1.0  0.91062  0.25608  0.97248  1.0000
  C   C2892     1.0  0.76443  0.23655  0.98002  1.0000
  C   C2893     1.0  0.78663  0.27465  0.97433  1.0000
  C   C2894     1.0  0.49043  0.19339  0.97534  1.0000
  S   S379      1.0  0.91966  0.19039  0.65404  1.0000
  H   H2310     1.0  0.51747  0.22888  0.94817  1.0000
  C   C2895     1.0  0.49383  0.21353  0.92708  1.0000
  S   S380      1.0  0.96175  0.19021  0.69292  1.0000
  H   H2311     1.0  0.89297  0.22388  0.49041  1.0000
  H   H2312     1.0  0.79428  0.19246  0.51109  1.0000
  H   H2313     1.0  0.49514  0.22132  0.90839  1.0000
  C   C2896     1.0  0.91564  0.22022  0.97479  1.0000
  C   C2897     1.0  0.97147  0.20696  0.51741  1.0000
  H   H2314     1.0  0.97445  0.38680  0.88046  1.0000
  H   H2315     1.0  0.72325  0.27460  0.98384  1.0000
  P   P97       1.0  0.93213  0.24047  0.97895  1.0000
  H   H2316     1.0  0.97258  0.22855  0.54076  1.0000
  H   H2317     1.0  0.88761  0.19441  0.49646  1.0000
  C   C2898     1.0  0.83260  0.19368  0.96115  1.0000
  C   C2899     1.0  0.91211  0.19514  0.49204  1.0000
  C   C2900     1.0  0.97614  0.22681  0.75807  1.0000
  H   H2318     1.0  0.92029  0.24782  0.48733  1.0000
  C   C2901     1.0  0.85875  0.22433  0.97051  1.0000
  C   C2902     1.0  0.83819  0.19000  0.54689  1.0000
  Fe  Fe190     1.0  0.86555  0.57654  0.99582  1.0000
  H   H2319     1.0  0.95970  0.41295  0.22829  1.0000
  C   C2903     1.0  0.49872  0.38985  0.08002  1.0000
  S   S381      1.0  0.89982  0.41703  0.25151  1.0000
  H   H2320     1.0  0.88783  0.48082  0.04115  1.0000
  C   C2904     1.0  0.82591  0.45312  0.32118  1.0000
  S   S382      1.0  0.85255  0.56210  0.03454  1.0000
  S   S383      1.0  0.86164  0.56368  0.45402  1.0000
  H   H2321     1.0  0.54979  0.58399  0.31225  1.0000
  S   S384      1.0  0.89040  0.57600  0.09957  1.0000
  H   H2322     1.0  0.86263  0.56659  0.24571  1.0000
  S   S385      1.0  0.81188  0.56919  0.04110  1.0000
  Fe  Fe191     1.0  0.89994  0.53590  0.25317  1.0000
  S   S386      1.0  0.91918  0.55902  0.27493  1.0000
  S   S387      1.0  0.88034  0.53502  0.21752  1.0000
  Fe  Fe192     1.0  0.91210  0.51313  0.28857  1.0000
  S   S388      1.0  0.93155  0.53499  0.31307  1.0000
  S   S389      1.0  0.91505  0.48953  0.30155  1.0000
  Fe  Fe193     1.0  0.91251  0.54548  0.31780  1.0000
  S   S390      1.0  0.91324  0.55840  0.36308  1.0000
  Fe  Fe194     1.0  0.93651  0.54659  0.26894  1.0000
  S   S391      1.0  0.96222  0.55314  0.25306  1.0000
  S   S392      1.0  0.89248  0.52278  0.29633  1.0000
  S   S393      1.0  0.91770  0.52443  0.24428  1.0000
  Fe  Fe195     1.0  0.58362  0.53815  0.27816  1.0000
  S   S394      1.0  0.58241  0.52349  0.23663  1.0000
  S   S395      1.0  0.56531  0.54982  0.28312  1.0000
  Fe  Fe196     1.0  0.61099  0.53009  0.30985  1.0000
  S   S396      1.0  0.61069  0.51427  0.27002  1.0000
  S   S397      1.0  0.63108  0.53226  0.34667  1.0000
  Fe  Fe197     1.0  0.61032  0.53463  0.24157  1.0000
  S   S398      1.0  0.62834  0.55024  0.20762  1.0000
  Fe  Fe198     1.0  0.58269  0.50429  0.26841  1.0000
  S   S399      1.0  0.56609  0.47657  0.26149  1.0000
  S   S400      1.0  0.61128  0.55066  0.28147  1.0000
  S   S401      1.0  0.58310  0.51870  0.30995  1.0000
  C   C2905     1.0  0.52059  0.54432  0.18047  1.0000
  H   H2323     1.0  0.87447  0.51147  0.48019  1.0000
  S   S402      1.0  0.70548  0.56638  0.03870  1.0000
  C   C2906     1.0  0.53581  0.44917  0.37508  1.0000
  C   C2907     1.0  0.97392  0.53022  0.17614  1.0000
  H   H2324     1.0  0.90704  0.56991  0.03165  1.0000
  H   H2325     1.0  0.55794  0.55930  0.38791  1.0000
  Fe  Fe199     1.0  0.69199  0.57154  0.07648  1.0000
  S   S403      1.0  0.67502  0.55004  0.10314  1.0000
  C   C2908     1.0  0.97574  0.58611  0.23991  1.0000
  H   H2326     1.0  0.49182  0.49248  0.19983  1.0000
  H   H2327     1.0  0.96105  0.52465  0.16857  1.0000
  S   S404      1.0  0.49031  0.42827  0.27934  1.0000
  C   C2909     1.0  0.54492  0.46337  0.26658  1.0000
  C   C2910     1.0  0.53332  0.46926  0.27525  1.0000
  C   C2911     1.0  0.51665  0.45840  0.27787  1.0000
  C   C2912     1.0  0.51134  0.44137  0.27314  1.0000
  C   C2913     1.0  0.52298  0.43544  0.26488  1.0000
  C   C2914     1.0  0.53956  0.44635  0.26140  1.0000
  H   H2328     1.0  0.53717  0.48221  0.27978  1.0000
  H   H2329     1.0  0.50783  0.46322  0.28405  1.0000
  H   H2330     1.0  0.51926  0.42242  0.26139  1.0000
  H   H2331     1.0  0.54835  0.44154  0.25485  1.0000
  C   C2915     1.0  0.64147  0.54950  0.17925  1.0000
  C   C2916     1.0  0.63986  0.53495  0.16468  1.0000
  C   C2917     1.0  0.65027  0.53528  0.14166  1.0000
  C   C2918     1.0  0.66235  0.55014  0.13272  1.0000
  C   C2919     1.0  0.66410  0.56460  0.14763  1.0000
  C   C2920     1.0  0.65375  0.56429  0.17062  1.0000
  H   H2332     1.0  0.63048  0.52346  0.17090  1.0000
  H   H2333     1.0  0.64883  0.52396  0.13048  1.0000
  H   H2334     1.0  0.67355  0.57600  0.14150  1.0000
  H   H2335     1.0  0.65531  0.57561  0.18186  1.0000
  C   C2921     1.0  0.64048  0.54351  0.38082  1.0000
  C   C2922     1.0  0.65443  0.54186  0.39409  1.0000
  C   C2923     1.0  0.66223  0.55030  0.42116  1.0000
  C   C2924     1.0  0.65615  0.56051  0.43567  1.0000
  C   C2925     1.0  0.64219  0.56213  0.42238  1.0000
  C   C2926     1.0  0.63447  0.55379  0.39520  1.0000
  H   H2336     1.0  0.65926  0.53398  0.38334  1.0000
  H   H2337     1.0  0.67289  0.54884  0.43089  1.0000
  H   H2338     1.0  0.91426  0.44730  0.17524  1.0000
  H   H2339     1.0  0.62379  0.55525  0.38550  1.0000
  C   C2927     1.0  0.56239  0.56176  0.25429  1.0000
  C   C2928     1.0  0.54937  0.56683  0.25518  1.0000
  C   C2929     1.0  0.90289  0.42149  0.16654  1.0000
  C   C2930     1.0  0.54444  0.49634  0.34652  1.0000
  C   C2931     1.0  0.66263  0.52361  0.03188  1.0000
  C   C2932     1.0  0.57279  0.56633  0.23068  1.0000
  C   C2933     1.0  0.90502  0.40686  0.16513  1.0000
  C   C2934     1.0  0.53425  0.43894  0.39911  1.0000
  C   C2935     1.0  0.70046  0.57006  0.17827  1.0000
  H   H2340     1.0  0.58287  0.56250  0.22973  1.0000
  H   H2341     1.0  0.69797  0.57877  0.31023  1.0000
  H   H2342     1.0  0.55768  0.50244  0.35009  1.0000
  H   H2343     1.0  0.92997  0.49637  0.15248  1.0000
  C   C2936     1.0  0.79638  0.57668  0.04793  1.0000
  Fe  Fe200     1.0  0.93907  0.39042  0.27788  1.0000
  C   C2937     1.0  0.71364  0.54409  0.31303  1.0000
  H   H2344     1.0  0.53671  0.58026  0.23379  1.0000
  H   H2345     1.0  0.77673  0.55504  0.02835  1.0000
  S   S405      1.0  0.66513  0.57127  0.47045  1.0000
  C   C2938     1.0  0.94172  0.47788  0.22255  1.0000
  C   C2939     1.0  0.53559  0.51103  0.23883  1.0000
  H   H2346     1.0  0.91189  0.57843  0.15074  1.0000
  C   C2940     1.0  0.88697  0.56491  0.13282  1.0000
  C   C2941     1.0  0.87180  0.55228  0.13805  1.0000
  C   C2942     1.0  0.86995  0.54339  0.16419  1.0000
  C   C2943     1.0  0.88327  0.54681  0.18519  1.0000
  C   C2944     1.0  0.89841  0.55947  0.17998  1.0000
  C   C2945     1.0  0.90016  0.56856  0.15417  1.0000
  H   H2347     1.0  0.86154  0.54927  0.12186  1.0000
  H   H2348     1.0  0.85817  0.53366  0.16801  1.0000
  H   H2349     1.0  0.90877  0.56229  0.19588  1.0000
  C   C2946     1.0  0.59594  0.49738  0.36888  1.0000
  C   C2947     1.0  0.87629  0.56309  0.42852  1.0000
  C   C2948     1.0  0.87052  0.55371  0.40175  1.0000
  C   C2949     1.0  0.88155  0.55240  0.38124  1.0000
  C   C2950     1.0  0.89861  0.56028  0.38735  1.0000
  C   C2951     1.0  0.90439  0.56964  0.41416  1.0000
  C   C2952     1.0  0.89336  0.57111  0.43454  1.0000
  H   H2350     1.0  0.85738  0.54743  0.39678  1.0000
  H   H2351     1.0  0.87684  0.54516  0.36082  1.0000
  H   H2352     1.0  0.87121  0.52093  0.01499  1.0000
  H   H2353     1.0  0.92857  0.50731  0.20252  1.0000
  C   C2953     1.0  0.90553  0.43766  0.26453  1.0000
  C   C2954     1.0  0.90006  0.44791  0.24791  1.0000
  C   C2955     1.0  0.90324  0.46394  0.25833  1.0000
  C   C2956     1.0  0.91171  0.46988  0.28586  1.0000
  C   C2957     1.0  0.91753  0.45976  0.30210  1.0000
  C   C2958     1.0  0.91464  0.44385  0.29141  1.0000
  H   H2354     1.0  0.89311  0.44331  0.22699  1.0000
  H   H2355     1.0  0.89889  0.47157  0.24526  1.0000
  H   H2356     1.0  0.92405  0.46414  0.32344  1.0000
  H   H2357     1.0  0.91892  0.43616  0.30449  1.0000
  C   C2959     1.0  0.53611  0.50382  0.32938  1.0000
  H   H2358     1.0  0.65541  0.52367  0.05057  1.0000
  C   C2960     1.0  0.69974  0.58136  0.19926  1.0000
  C   C2961     1.0  0.88859  0.54536  0.02638  1.0000
  H   H2359     1.0  0.69483  0.54476  0.16799  1.0000
  H   H2360     1.0  0.49368  0.42154  0.11574  1.0000
  C   C2962     1.0  0.97972  0.52370  0.19978  1.0000
  H   H2361     1.0  0.95397  0.51793  0.29412  1.0000
  C   C2963     1.0  0.76710  0.57231  0.04368  1.0000
  C   C2964     1.0  0.87967  0.48085  0.02254  1.0000
  C   C2965     1.0  0.56091  0.47992  0.46819  1.0000
  C   C2966     1.0  0.69272  0.57606  0.22634  1.0000
  C   C2967     1.0  0.70210  0.56893  0.31102  1.0000
  C   C2968     1.0  0.51899  0.49617  0.32447  1.0000
  C   C2969     1.0  0.49868  0.42379  0.17560  1.0000
  H   H2362     1.0  0.66750  0.55794  0.32667  1.0000
  C   C2970     1.0  0.77979  0.56690  0.03904  1.0000
  C   C2971     1.0  0.65555  0.52114  0.00294  1.0000
  C   C2972     1.0  0.50976  0.40641  0.20080  1.0000
  C   C2973     1.0  0.84873  0.49460  0.26061  1.0000
  C   C2974     1.0  0.55976  0.47523  0.43819  1.0000
  C   C2975     1.0  0.96233  0.51224  0.28916  1.0000
  C   C2976     1.0  0.97851  0.45296  0.12257  1.0000
  C   C2977     1.0  0.92883  0.55830  0.12843  1.0000
  C   C2978     1.0  0.93659  0.49068  0.22542  1.0000
  C   C2979     1.0  0.58025  0.49164  0.37996  1.0000
  C   C2980     1.0  0.50248  0.53953  0.25346  1.0000
  H   H2363     1.0  0.64368  0.55284  0.01391  1.0000
  H   H2364     1.0  0.64108  0.56461  0.10548  1.0000
  H   H2365     1.0  0.97264  0.41549  0.35305  1.0000
  H   H2366     1.0  0.54301  0.51542  0.31949  1.0000
  H   H2367     1.0  0.50047  0.43578  0.16796  1.0000
  H   H2368     1.0  0.94999  0.43336  0.28913  1.0000
  Fe  Fe201     1.0  0.87339  0.58026  0.06377  1.0000
  H   H2369     1.0  0.89453  0.39540  0.15989  1.0000
  C   C2981     1.0  0.86493  0.44579  0.30551  1.0000
  H   H2370     1.0  0.51259  0.50179  0.31066  1.0000
  C   C2982     1.0  0.58591  0.47614  0.33014  1.0000
  H   H2371     1.0  0.49693  0.47514  0.33295  1.0000
  H   H2372     1.0  0.51255  0.56928  0.32255  1.0000
  H   H2373     1.0  0.91092  0.51442  0.37688  1.0000
  H   H2374     1.0  0.60130  0.55740  0.17486  1.0000
  H   H2375     1.0  0.64428  0.54636  0.06718  1.0000
  C   C2983     1.0  0.97000  0.48924  0.29229  1.0000
  C   C2984     1.0  0.58694  0.56388  0.14167  1.0000
  C   C2985     1.0  0.50600  0.53469  0.28147  1.0000
  H   H2376     1.0  0.60586  0.50811  0.37913  1.0000
  C   C2986     1.0  0.52539  0.42200  0.39526  1.0000
  H   H2377     1.0  0.88067  0.48854  0.23204  1.0000
  H   H2378     1.0  0.48914  0.55767  0.13863  1.0000
  C   C2987     1.0  0.51804  0.41515  0.36746  1.0000
  C   C2988     1.0  0.87300  0.57609  0.23615  1.0000
  H   H2379     1.0  0.53018  0.49346  0.46772  1.0000
  C   C2989     1.0  0.89756  0.50943  0.37577  1.0000
  C   C2990     1.0  0.51194  0.42165  0.18998  1.0000
  C   C2991     1.0  0.87121  0.48911  0.35579  1.0000
  C   C2992     1.0  0.82011  0.44993  0.38160  1.0000
  C   C2993     1.0  0.95749  0.44099  0.27243  1.0000
  C   C2994     1.0  0.85436  0.46730  0.99217  1.0000
  H   H2380     1.0  0.63035  0.48630  0.26117  1.0000
  H   H2381     1.0  0.82800  0.45392  0.29771  1.0000
  C   C2995     1.0  0.52870  0.44210  0.34713  1.0000
  H   H2382     1.0  0.57824  0.49828  0.39852  1.0000
  H   H2383     1.0  0.88205  0.54097  0.47247  1.0000
  H   H2384     1.0  0.88307  0.54609  0.04700  1.0000
  C   C2996     1.0  0.52603  0.52018  0.23791  1.0000
  H   H2385     1.0  0.89497  0.48947  0.34622  1.0000
  H   H2386     1.0  0.53125  0.53247  0.24760  1.0000
  C   C2997     1.0  0.51012  0.51365  0.22395  1.0000
  C   C2998     1.0  0.88945  0.51744  0.39096  1.0000
  H   H2387     1.0  0.93661  0.43776  0.24304  1.0000
  C   C2999     1.0  0.56727  0.47787  0.36652  1.0000
  H   H2388     1.0  0.64275  0.51919  0.99907  1.0000
  C   C3000     1.0  0.83902  0.46072  0.34242  1.0000
  C   C3001     1.0  0.84296  0.57633  0.13043  1.0000
  C   C3002     1.0  0.51398  0.55902  0.14092  1.0000
  C   C3003     1.0  0.94285  0.47179  0.19426  1.0000
  H   H2389     1.0  0.89179  0.44199  0.37283  1.0000
  H   H2390     1.0  0.93889  0.47369  0.14701  1.0000
  H   H2391     1.0  0.57858  0.57991  0.19063  1.0000
  C   C3004     1.0  0.87122  0.48082  0.27484  1.0000
  H   H2392     1.0  0.88035  0.46295  0.37433  1.0000
  H   H2393     1.0  0.81789  0.44858  0.40500  1.0000
  H   H2394     1.0  0.50457  0.39349  0.12729  1.0000
  H   H2395     1.0  0.96039  0.43585  0.14836  1.0000
  H   H2396     1.0  0.89070  0.42134  0.16261  1.0000
  H   H2397     1.0  0.70164  0.52913  0.01709  1.0000
  C   C3005     1.0  0.97363  0.47728  0.15516  1.0000
  H   H2398     1.0  0.69239  0.58499  0.24248  1.0000
  H   H2399     1.0  0.51784  0.56718  0.12267  1.0000
  C   C3006     1.0  0.48350  0.42056  0.07151  1.0000
  H   H2400     1.0  0.52381  0.43190  0.19343  1.0000
  C   C3007     1.0  0.80704  0.44274  0.36035  1.0000
  C   C3008     1.0  0.95945  0.49672  0.29931  1.0000
  H   H2401     1.0  0.89654  0.52858  0.40399  1.0000
  P   P98       1.0  0.54672  0.47117  0.37971  1.0000
  H   H2402     1.0  0.79986  0.43852  0.31367  1.0000
  C   C3009     1.0  0.91638  0.43625  0.17377  1.0000
  C   C3010     1.0  0.88421  0.44302  0.35412  1.0000
  C   C3011     1.0  0.71538  0.57047  0.33062  1.0000
  H   H2403     1.0  0.86604  0.51799  0.39952  1.0000
  C   C3012     1.0  0.88848  0.49532  0.35829  1.0000
  P   P99       1.0  0.94969  0.45546  0.18971  1.0000
  C   C3013     1.0  0.64159  0.50840  0.23733  1.0000
  C   C3014     1.0  0.63936  0.49886  0.26231  1.0000
  C   C3015     1.0  0.64814  0.50579  0.28912  1.0000
  C   C3016     1.0  0.65952  0.52211  0.29072  1.0000
  C   C3017     1.0  0.66238  0.53153  0.26535  1.0000
  C   C3018     1.0  0.65279  0.52477  0.23905  1.0000
  P   P100      1.0  0.67708  0.55257  0.26749  1.0000
  C   C3019     1.0  0.69426  0.55475  0.29276  1.0000
  C   C3020     1.0  0.68611  0.55935  0.23241  1.0000
  C   C3021     1.0  0.61731  0.58318  0.11867  1.0000
  H   H2404     1.0  0.63730  0.56993  0.43323  1.0000
  C   C3022     1.0  0.63912  0.58198  0.07447  1.0000
  C   C3023     1.0  0.69440  0.55349  0.18450  1.0000
  C   C3024     1.0  0.68749  0.54817  0.21162  1.0000
  C   C3025     1.0  0.66336  0.56475  0.31104  1.0000
  C   C3026     1.0  0.86482  0.46729  0.01630  1.0000
  H   H2405     1.0  0.89568  0.50482  0.00963  1.0000
  S   S406      1.0  0.96706  0.40127  0.28497  1.0000
  H   H2406     1.0  0.64527  0.58668  0.25554  1.0000
  C   C3027     1.0  0.66615  0.56429  0.28075  1.0000
  C   C3028     1.0  0.97794  0.57155  0.24254  1.0000
  C   C3029     1.0  0.55025  0.48650  0.47882  1.0000
  C   C3030     1.0  0.94442  0.56745  0.14244  1.0000
  H   H2407     1.0  0.75447  0.56462  0.03662  1.0000
  C   C3031     1.0  0.65947  0.57219  0.26082  1.0000
  H   H2408     1.0  0.53807  0.55924  0.15027  1.0000
  H   H2409     1.0  0.64587  0.49866  0.30886  1.0000
  H   H2410     1.0  0.66589  0.52741  0.31186  1.0000
  H   H2411     1.0  0.65387  0.53218  0.21992  1.0000
  H   H2412     1.0  0.68468  0.52846  0.05930  1.0000
  C   C3032     1.0  0.97290  0.41702  0.23162  1.0000
  C   C3033     1.0  0.68873  0.52671  0.01283  1.0000
  H   H2413     1.0  0.92212  0.39551  0.17085  1.0000
  H   H2414     1.0  0.68316  0.53532  0.21613  1.0000
  C   C3034     1.0  0.72110  0.55804  0.33172  1.0000
  H   H2415     1.0  0.96756  0.47708  0.29980  1.0000
  H   H2416     1.0  0.51006  0.39974  0.07442  1.0000
  C   C3035     1.0  0.64858  0.58193  0.30152  1.0000
  H   H2417     1.0  0.71817  0.53452  0.31371  1.0000
  C   C3036     1.0  0.49303  0.54358  0.17406  1.0000
  H   H2418     1.0  0.97230  0.48693  0.16804  1.0000
  H   H2419     1.0  0.86144  0.45675  0.03010  1.0000
  C   C3037     1.0  0.80996  0.44427  0.33016  1.0000
  H   H2420     1.0  0.51151  0.46184  0.36309  1.0000
  H   H2421     1.0  0.49944  0.55911  0.22970  1.0000
  C   C3038     1.0  0.50227  0.55505  0.25087  1.0000
  H   H2422     1.0  0.56811  0.47014  0.43028  1.0000
  C   C3039     1.0  0.59877  0.48969  0.34391  1.0000
  H   H2423     1.0  0.79467  0.43587  0.36726  1.0000
  C   C3040     1.0  0.51019  0.48116  0.33703  1.0000
  H   H2424     1.0  0.84036  0.56394  0.12279  1.0000
  S   S407      1.0  0.92478  0.39112  0.23620  1.0000
  C   C3041     1.0  0.50581  0.56567  0.27570  1.0000
  H   H2425     1.0  0.97037  0.56744  0.10234  1.0000
  H   H2426     1.0  0.54111  0.56312  0.27304  1.0000
  H   H2427     1.0  0.84991  0.49345  0.36779  1.0000
  C   C3042     1.0  0.91892  0.54296  0.13867  1.0000
  C   C3043     1.0  0.92452  0.53659  0.16277  1.0000
  H   H2428     1.0  0.73136  0.55924  0.34699  1.0000
  H   H2429     1.0  0.50556  0.57756  0.27315  1.0000
  H   H2430     1.0  0.93553  0.49524  0.24727  1.0000
  C   C3044     1.0  0.87786  0.45501  0.35473  1.0000
  C   C3045     1.0  0.52536  0.55446  0.15636  1.0000
  H   H2431     1.0  0.52978  0.54136  0.19255  1.0000
  Fe  Fe202     1.0  0.90822  0.39697  0.26654  1.0000
  C   C3046     1.0  0.87133  0.43384  0.30498  1.0000
  Fe  Fe203     1.0  0.84024  0.57986  0.03833  1.0000
  H   H2432     1.0  0.84614  0.46404  0.38939  1.0000
  C   C3047     1.0  0.64247  0.55716  0.06067  1.0000
  H   H2433     1.0  0.86908  0.42578  0.28553  1.0000
  H   H2434     1.0  0.91652  0.52502  0.17139  1.0000
  H   H2435     1.0  0.50876  0.47639  0.20197  1.0000
  C   C3048     1.0  0.88194  0.53115  0.00817  1.0000
  C   C3049     1.0  0.96434  0.46075  0.16085  1.0000
  C   C3050     1.0  0.54797  0.47714  0.41852  1.0000
  H   H2436     1.0  0.65245  0.57375  0.34475  1.0000
  H   H2437     1.0  0.52800  0.48522  0.41483  1.0000
  C   C3051     1.0  0.54682  0.57653  0.23289  1.0000
  C   C3052     1.0  0.83608  0.45877  0.37269  1.0000
  C   C3053     1.0  0.52945  0.49536  0.22552  1.0000
  H   H2438     1.0  0.50601  0.52270  0.28405  1.0000
  C   C3054     1.0  0.55341  0.57016  0.34813  1.0000
  H   H2439     1.0  0.69473  0.53165  0.27900  1.0000
  H   H2440     1.0  0.83987  0.48790  0.30394  1.0000
  C   C3055     1.0  0.50965  0.56093  0.30339  1.0000
  C   C3056     1.0  0.51852  0.47359  0.35396  1.0000
  H   H2441     1.0  0.94890  0.49045  0.31232  1.0000
  P   P101      1.0  0.85969  0.47176  0.33104  1.0000
  C   C3057     1.0  0.87143  0.48789  0.24740  1.0000
  C   C3058     1.0  0.49433  0.39334  0.19737  1.0000
  C   C3059     1.0  0.50971  0.54542  0.30629  1.0000
  H   H2442     1.0  0.90659  0.53632  0.12866  1.0000
  H   H2443     1.0  0.84041  0.50044  0.25534  1.0000
  H   H2444     1.0  0.94456  0.47269  0.24243  1.0000
  H   H2445     1.0  0.86047  0.50042  0.21913  1.0000
  C   C3060     1.0  0.55782  0.57028  0.37827  1.0000
  C   C3061     1.0  0.97576  0.52030  0.27202  1.0000
  C   C3062     1.0  0.87225  0.51145  0.38839  1.0000
  H   H2446     1.0  0.88047  0.47621  0.28055  1.0000
  H   H2447     1.0  0.53972  0.44389  0.42088  1.0000
  C   C3063     1.0  0.53577  0.48104  0.35850  1.0000
  C   C3064     1.0  0.53724  0.48366  0.42941  1.0000
  C   C3065     1.0  0.92059  0.40694  0.17140  1.0000
  C   C3066     1.0  0.86843  0.45670  0.33016  1.0000
  C   C3067     1.0  0.56202  0.58453  0.39594  1.0000
  H   H2448     1.0  0.53709  0.48846  0.22564  1.0000
  C   C3068     1.0  0.88097  0.43246  0.32924  1.0000
  H   H2449     1.0  0.54787  0.51622  0.24958  1.0000
  H   H2450     1.0  0.82059  0.57633  0.10969  1.0000
  H   H2451     1.0  0.66049  0.57110  0.23718  1.0000
  C   C3069     1.0  0.50393  0.49777  0.21104  1.0000
  C   C3070     1.0  0.93215  0.43647  0.17990  1.0000
  C   C3071     1.0  0.83182  0.58331  0.12309  1.0000
  H   H2452     1.0  0.88613  0.42335  0.32847  1.0000
  H   H2453     1.0  0.85740  0.44658  0.28655  1.0000
  C   C3072     1.0  0.51973  0.42520  0.34340  1.0000
  C   C3073     1.0  0.60160  0.56443  0.15534  1.0000
  C   C3074     1.0  0.55347  0.58436  0.33555  1.0000
  C   C3075     1.0  0.95957  0.45269  0.22380  1.0000
  C   C3076     1.0  0.88405  0.49444  0.00472  1.0000
  C   C3077     1.0  0.94995  0.44340  0.24613  1.0000
  H   H2454     1.0  0.91753  0.57578  0.41923  1.0000
  H   H2455     1.0  0.94575  0.42124  0.18592  1.0000
  C   C3078     1.0  0.50431  0.53860  0.18927  1.0000
  C   C3079     1.0  0.57021  0.47024  0.34134  1.0000
  H   H2456     1.0  0.52419  0.41415  0.41383  1.0000
  C   C3080     1.0  0.70032  0.54248  0.29349  1.0000
  H   H2457     1.0  0.58794  0.47051  0.31015  1.0000
  C   C3081     1.0  0.94022  0.54540  0.17625  1.0000
  H   H2458     1.0  0.56037  0.46007  0.32965  1.0000
  P   P102      1.0  0.49825  0.52598  0.22110  1.0000
  C   C3082     1.0  0.61670  0.57389  0.14375  1.0000
  C   C3083     1.0  0.86316  0.49747  0.37054  1.0000
  C   C3084     1.0  0.84846  0.48746  0.28804  1.0000
  H   H2459     1.0  0.72122  0.58132  0.34502  1.0000
  C   C3085     1.0  0.93400  0.42159  0.17953  1.0000
  H   H2460     1.0  0.51269  0.54173  0.32774  1.0000
  S   S408      1.0  0.92349  0.39762  0.30806  1.0000
  C   C3086     1.0  0.65081  0.58106  0.27120  1.0000
  C   C3087     1.0  0.57030  0.57614  0.20847  1.0000
  H   H2461     1.0  0.61084  0.49453  0.33481  1.0000
  C   C3088     1.0  0.55736  0.58133  0.20951  1.0000
  H   H2462     1.0  0.63426  0.50329  0.21689  1.0000
  C   C3089     1.0  0.86010  0.49466  0.24019  1.0000
  C   C3090     1.0  0.93251  0.49742  0.20020  1.0000
  C   C3091     1.0  0.49783  0.55364  0.14986  1.0000
  H   H2463     1.0  0.52996  0.44968  0.32824  1.0000
  C   C3092     1.0  0.93843  0.47846  0.16902  1.0000
  C   C3093     1.0  0.51355  0.48864  0.21198  1.0000
  C   C3094     1.0  0.93335  0.49127  0.17200  1.0000
  C   C3095     1.0  0.85942  0.48012  0.29501  1.0000
  C   C3096     1.0  0.97681  0.45989  0.22849  1.0000
  C   C3097     1.0  0.97962  0.41297  0.25730  1.0000
  P   P103      1.0  0.95681  0.58797  0.13170  1.0000
  C   C3098     1.0  0.65476  0.57369  0.32140  1.0000
  C   C3099     1.0  0.96699  0.44864  0.14442  1.0000
  C   C3100     1.0  0.67917  0.52627  0.03682  1.0000
  C   C3101     1.0  0.53841  0.48834  0.45945  1.0000
  H   H2464     1.0  0.92396  0.56310  0.11030  1.0000
  H   H2465     1.0  0.69344  0.47228  0.98549  1.0000
  H   H2466     1.0  0.97808  0.42981  0.19069  1.0000
  H   H2467     1.0  0.94453  0.54064  0.19526  1.0000
  H   H2468     1.0  0.96400  0.58637  0.24447  1.0000
  C   C3102     1.0  0.48106  0.39548  0.18306  1.0000
  H   H2469     1.0  0.55016  0.55914  0.33432  1.0000
  H   H2470     1.0  0.70553  0.57405  0.15697  1.0000
  C   C3103     1.0  0.97467  0.44789  0.27669  1.0000
  H   H2471     1.0  0.49513  0.42316  0.06158  1.0000
  H   H2472     1.0  0.89805  0.57829  0.45500  1.0000
  H   H2473     1.0  0.51400  0.41989  0.32183  1.0000
  C   C3104     1.0  0.95018  0.56072  0.16604  1.0000
  C   C3105     1.0  0.48263  0.41972  0.10234  1.0000
  C   C3106     1.0  0.64207  0.56077  0.03073  1.0000
  C   C3107     1.0  0.77079  0.58759  0.05751  1.0000
  H   H2474     1.0  0.57011  0.47852  0.48320  1.0000
  H   H2475     1.0  0.97252  0.41255  0.40770  1.0000
  C   C3108     1.0  0.64091  0.56767  0.08242  1.0000
  H   H2476     1.0  0.62782  0.57370  0.15427  1.0000
  H   H2477     1.0  0.51994  0.40480  0.21242  1.0000
  H   H2478     1.0  0.96215  0.56758  0.17735  1.0000
  H   H2479     1.0  0.97118  0.51297  0.21004  1.0000
  H   H2480     1.0  0.57525  0.55659  0.15083  1.0000
  H   H2481     1.0  0.89077  0.56825  0.25674  1.0000
  H   H2482     1.0  0.48065  0.54008  0.18131  1.0000
  H   H2483     1.0  0.84289  0.45676  0.98723  1.0000
  H   H2484     1.0  0.63964  0.57757  0.99925  1.0000
  H   H2485     1.0  0.68966  0.49786  0.99239  1.0000
  Fe  Fe204     1.0  0.69687  0.58302  0.01199  1.0000
  C   C3109     1.0  0.90215  0.55885  0.01772  1.0000
  H   H2486     1.0  0.51105  0.40204  0.36445  1.0000
  C   C3110     1.0  0.63985  0.57477  0.02251  1.0000
  H   H2487     1.0  0.97754  0.53212  0.26371  1.0000
  H   H2488     1.0  0.85801  0.58618  0.21247  1.0000
  C   C3111     1.0  0.88890  0.57705  0.24244  1.0000
  H   H2489     1.0  0.86626  0.57995  0.15211  1.0000
  C   C3112     1.0  0.48313  0.41068  0.17188  1.0000
  C   C3113     1.0  0.58736  0.57261  0.11609  1.0000
  C   C3114     1.0  0.87045  0.58713  0.21711  1.0000
  H   H2490     1.0  0.57594  0.57199  0.10531  1.0000
  C   C3115     1.0  0.85767  0.58546  0.14693  1.0000
  S   S409      1.0  0.68251  0.58700  0.04881  1.0000
  H   H2491     1.0  0.56519  0.58453  0.41942  1.0000
  C   C3116     1.0  0.90912  0.55814  0.99089  1.0000
  H   H2492     1.0  0.48245  0.40472  0.43745  1.0000
  C   C3117     1.0  0.60247  0.58202  0.10433  1.0000
  C   C3118     1.0  0.63818  0.58526  0.04425  1.0000
  H   H2493     1.0  0.94653  0.58580  0.19370  1.0000
  H   H2494     1.0  0.60255  0.58830  0.08400  1.0000
  H   H2495     1.0  0.90944  0.52504  0.67261  1.0000
  H   H2496     1.0  0.88129  0.50459  0.67936  1.0000
  H   H2497     1.0  0.66251  0.53420  0.84623  1.0000
  S   S410      1.0  0.89972  0.41708  0.75455  1.0000
  C   C3119     1.0  0.54278  0.51091  0.77763  1.0000
  C   C3120     1.0  0.77293  0.57163  0.51187  1.0000
  S   S411      1.0  0.85062  0.56648  0.53787  1.0000
  S   S412      1.0  0.86450  0.56315  0.95121  1.0000
  H   H2498     1.0  0.63186  0.46030  0.56778  1.0000
  H   H2499     1.0  0.64227  0.54327  0.49876  1.0000
  C   C3121     1.0  0.67701  0.49036  0.58888  1.0000
  H   H2500     1.0  0.49832  0.54157  0.74340  1.0000
  Fe  Fe205     1.0  0.90046  0.53650  0.75005  1.0000
  S   S413      1.0  0.92154  0.55869  0.77063  1.0000
  S   S414      1.0  0.88115  0.53850  0.71646  1.0000
  Fe  Fe206     1.0  0.90951  0.51221  0.78754  1.0000
  S   S415      1.0  0.93074  0.53322  0.81063  1.0000
  S   S416      1.0  0.90776  0.48761  0.80577  1.0000
  Fe  Fe207     1.0  0.91396  0.54641  0.81426  1.0000
  S   S417      1.0  0.91637  0.56139  0.85772  1.0000
  Fe  Fe208     1.0  0.93638  0.54355  0.76561  1.0000
  S   S418      1.0  0.96234  0.54913  0.75168  1.0000
  S   S419      1.0  0.89217  0.52480  0.79411  1.0000
  S   S420      1.0  0.91583  0.52206  0.74207  1.0000
  Fe  Fe209     1.0  0.59135  0.54676  0.79101  1.0000
  S   S421      1.0  0.58839  0.53121  0.75029  1.0000
  S   S422      1.0  0.57500  0.56042  0.79815  1.0000
  Fe  Fe210     1.0  0.61742  0.53674  0.82063  1.0000
  S   S423      1.0  0.61590  0.52003  0.78082  1.0000
  S   S424      1.0  0.63068  0.53706  0.86646  1.0000
  Fe  Fe211     1.0  0.61620  0.54086  0.75249  1.0000
  S   S425      1.0  0.62627  0.54881  0.70607  1.0000
  Fe  Fe212     1.0  0.58805  0.51144  0.78077  1.0000
  S   S426      1.0  0.56937  0.48503  0.76707  1.0000
  S   S427      1.0  0.61912  0.55795  0.79217  1.0000
  S   S428      1.0  0.58964  0.52671  0.82182  1.0000
  H   H2501     1.0  0.66678  0.50318  0.91458  1.0000
  P   P104      1.0  0.66934  0.51774  0.59180  1.0000
  S   S429      1.0  0.69476  0.56232  0.53705  1.0000
  C   C3122     1.0  0.48562  0.53478  0.74851  1.0000
  C   C3123     1.0  0.95202  0.54261  0.65138  1.0000
  Fe  Fe213     1.0  0.72134  0.57971  0.53095  1.0000
  C   C3124     1.0  0.49144  0.48318  0.81741  1.0000
  H   H2502     1.0  0.49487  0.49971  0.68957  1.0000
  S   S430      1.0  0.68779  0.57349  0.62202  1.0000
  H   H2503     1.0  0.70385  0.55935  0.97132  1.0000
  H   H2504     1.0  0.54785  0.50292  0.76803  1.0000
  H   H2505     1.0  0.97831  0.46278  0.66507  1.0000
  S   S431      1.0  0.49946  0.43016  0.80316  1.0000
  C   C3125     1.0  0.54975  0.47012  0.77733  1.0000
  C   C3126     1.0  0.54244  0.47171  0.80336  1.0000
  C   C3127     1.0  0.52719  0.45940  0.81077  1.0000
  C   C3128     1.0  0.51887  0.44523  0.79241  1.0000
  C   C3129     1.0  0.52609  0.44371  0.76620  1.0000
  C   C3130     1.0  0.54137  0.45602  0.75882  1.0000
  H   H2506     1.0  0.54873  0.48222  0.81820  1.0000
  H   H2507     1.0  0.52194  0.46075  0.83124  1.0000
  H   H2508     1.0  0.51997  0.43299  0.75171  1.0000
  H   H2509     1.0  0.54681  0.45452  0.73866  1.0000
  C   C3131     1.0  0.64374  0.55618  0.68348  1.0000
  C   C3132     1.0  0.64152  0.55995  0.65380  1.0000
  C   C3133     1.0  0.65476  0.56534  0.63474  1.0000
  C   C3134     1.0  0.67052  0.56703  0.64504  1.0000
  C   C3135     1.0  0.67280  0.56345  0.67478  1.0000
  C   C3136     1.0  0.65956  0.55804  0.69383  1.0000
  H   H2510     1.0  0.62941  0.55860  0.64543  1.0000
  H   H2511     1.0  0.65273  0.56813  0.61207  1.0000
  H   H2512     1.0  0.68489  0.56471  0.68313  1.0000
  H   H2513     1.0  0.66155  0.55512  0.71642  1.0000
  C   C3137     1.0  0.64601  0.55033  0.89344  1.0000
  C   C3138     1.0  0.64708  0.54469  0.92218  1.0000
  C   C3139     1.0  0.65951  0.55427  0.94376  1.0000
  C   C3140     1.0  0.67142  0.56951  0.93679  1.0000
  C   C3141     1.0  0.67026  0.57524  0.90818  1.0000
  C   C3142     1.0  0.65759  0.56585  0.88680  1.0000
  H   H2514     1.0  0.63827  0.53274  0.92770  1.0000
  H   H2515     1.0  0.66008  0.54976  0.96563  1.0000
  H   H2516     1.0  0.91391  0.57320  0.63884  1.0000
  H   H2517     1.0  0.65709  0.57041  0.86491  1.0000
  C   C3143     1.0  0.56769  0.56778  0.76695  1.0000
  C   C3144     1.0  0.57390  0.56784  0.73904  1.0000
  C   C3145     1.0  0.56870  0.57482  0.71509  1.0000
  C   C3146     1.0  0.65618  0.51756  0.53420  1.0000
  H   H2518     1.0  0.94182  0.57891  0.67699  1.0000
  H   H2519     1.0  0.65934  0.51983  0.95671  1.0000
  H   H2520     1.0  0.58295  0.56278  0.73602  1.0000
  P   P105      1.0  0.85825  0.51417  0.58318  1.0000
  C   C3147     1.0  0.94126  0.55546  0.68733  1.0000
  H   H2521     1.0  0.96999  0.49088  0.74208  1.0000
  Fe  Fe214     1.0  0.86318  0.57882  0.49686  1.0000
  H   H2522     1.0  0.97504  0.50009  0.69177  1.0000
  H   H2523     1.0  0.95878  0.40345  0.72068  1.0000
  P   P106      1.0  0.87961  0.51204  0.95731  1.0000
  H   H2524     1.0  0.83313  0.52863  0.93976  1.0000
  C   C3148     1.0  0.50270  0.46262  0.68956  1.0000
  C   C3149     1.0  0.76328  0.57659  0.53035  1.0000
  H   H2525     1.0  0.66124  0.54619  0.58879  1.0000
  C   C3150     1.0  0.83927  0.52121  0.93160  1.0000
  C   C3151     1.0  0.78957  0.57481  0.52009  1.0000
  S   S432      1.0  0.74211  0.57169  0.51880  1.0000
  Fe  Fe215     1.0  0.90715  0.39622  0.76925  1.0000
  C   C3152     1.0  0.88813  0.56804  0.63126  1.0000
  C   C3153     1.0  0.87253  0.56024  0.64240  1.0000
  C   C3154     1.0  0.87069  0.55165  0.66894  1.0000
  C   C3155     1.0  0.88436  0.55081  0.68474  1.0000
  C   C3156     1.0  0.90000  0.55915  0.67417  1.0000
  C   C3157     1.0  0.90184  0.56750  0.64742  1.0000
  H   H2526     1.0  0.86187  0.56064  0.63039  1.0000
  H   H2527     1.0  0.85858  0.54552  0.67728  1.0000
  H   H2528     1.0  0.91058  0.55866  0.68617  1.0000
  H   H2529     1.0  0.64712  0.51830  0.48925  1.0000
  C   C3158     1.0  0.87918  0.56338  0.92511  1.0000
  C   C3159     1.0  0.89613  0.57273  0.92995  1.0000
  C   C3160     1.0  0.90724  0.57204  0.90904  1.0000
  C   C3161     1.0  0.90162  0.56215  0.88280  1.0000
  C   C3162     1.0  0.88464  0.55306  0.87767  1.0000
  C   C3163     1.0  0.87356  0.55363  0.89872  1.0000
  C   C3164     1.0  0.90244  0.54398  0.97251  1.0000
  H   H2530     1.0  0.54644  0.48947  0.71938  1.0000
  H   H2531     1.0  0.88005  0.54544  0.85763  1.0000
  H   H2532     1.0  0.86051  0.54647  0.89443  1.0000
  C   C3165     1.0  0.90318  0.43714  0.76860  1.0000
  C   C3166     1.0  0.89794  0.44719  0.75091  1.0000
  C   C3167     1.0  0.89989  0.46292  0.76129  1.0000
  C   C3168     1.0  0.90683  0.46874  0.78989  1.0000
  C   C3169     1.0  0.91229  0.45878  0.80739  1.0000
  C   C3170     1.0  0.91076  0.44325  0.79669  1.0000
  H   H2533     1.0  0.89219  0.44271  0.72906  1.0000
  H   H2534     1.0  0.89552  0.47031  0.74755  1.0000
  H   H2535     1.0  0.91774  0.46312  0.82949  1.0000
  H   H2536     1.0  0.91530  0.43596  0.81031  1.0000
  H   H2537     1.0  0.68639  0.55756  0.86984  1.0000
  C   C3171     1.0  0.97633  0.56703  0.73603  1.0000
  C   C3172     1.0  0.97419  0.57501  0.81980  1.0000
  H   H2538     1.0  0.64962  0.55736  0.54836  1.0000
  C   C3173     1.0  0.97223  0.45479  0.72301  1.0000
  C   C3174     1.0  0.68178  0.52441  0.98363  1.0000
  H   H2539     1.0  0.54349  0.52997  0.84376  1.0000
  H   H2540     1.0  0.70028  0.55416  0.91581  1.0000
  C   C3175     1.0  0.93289  0.56692  0.57767  1.0000
  H   H2541     1.0  0.81335  0.54147  0.61750  1.0000
  C   C3176     1.0  0.82443  0.53474  0.58107  1.0000
  H   H2542     1.0  0.65866  0.50691  0.52939  1.0000
  H   H2543     1.0  0.72228  0.56235  0.62686  1.0000
  H   H2544     1.0  0.72273  0.53764  0.54485  1.0000
  H   H2545     1.0  0.84715  0.51983  0.64136  1.0000
  C   C3177     1.0  0.69704  0.50641  0.94849  1.0000
  C   C3178     1.0  0.95540  0.55597  0.63323  1.0000
  H   H2546     1.0  0.63862  0.48976  0.57577  1.0000
  H   H2547     1.0  0.48794  0.51187  0.75180  1.0000
  H   H2548     1.0  0.65384  0.44991  0.57326  1.0000
  H   H2549     1.0  0.95343  0.43097  0.73060  1.0000
  H   H2550     1.0  0.75561  0.55099  0.96620  1.0000
  H   H2551     1.0  0.82356  0.51298  0.89164  1.0000
  H   H2552     1.0  0.72897  0.52800  0.95343  1.0000
  C   C3179     1.0  0.92128  0.56394  0.55382  1.0000
  Fe  Fe216     1.0  0.87382  0.58347  0.56363  1.0000
  C   C3180     1.0  0.94508  0.54243  0.67855  1.0000
  C   C3181     1.0  0.64970  0.52400  0.51133  1.0000
  H   H2553     1.0  0.55412  0.51112  0.82087  1.0000
  H   H2554     1.0  0.82411  0.57721  0.92579  1.0000
  C   C3182     1.0  0.51169  0.47958  0.69168  1.0000
  C   C3183     1.0  0.70128  0.47716  0.94091  1.0000
  H   H2555     1.0  0.91545  0.54131  0.62743  1.0000
  C   C3184     1.0  0.83398  0.51251  0.90443  1.0000
  H   H2556     1.0  0.89465  0.39710  0.87621  1.0000
  C   C3185     1.0  0.83544  0.52805  0.57264  1.0000
  C   C3186     1.0  0.79680  0.58273  0.54736  1.0000
  H   H2557     1.0  0.51113  0.48530  0.76648  1.0000
  C   C3187     1.0  0.69968  0.52834  0.56640  1.0000
  C   C3188     1.0  0.89059  0.52971  0.60811  1.0000
  H   H2558     1.0  0.93610  0.55537  0.70865  1.0000
  C   C3189     1.0  0.48193  0.48976  0.80104  1.0000
  C   C3190     1.0  0.85523  0.48189  0.58086  1.0000
  C   C3191     1.0  0.71508  0.55742  0.96978  1.0000
  S   S433      1.0  0.89126  0.57833  0.59715  1.0000
  C   C3192     1.0  0.90322  0.53197  0.62974  1.0000
  H   H2559     1.0  0.49022  0.44079  0.71370  1.0000
  C   C3193     1.0  0.86800  0.51263  0.52541  1.0000
  H   H2560     1.0  0.51653  0.48610  0.67189  1.0000
  H   H2561     1.0  0.69311  0.54436  0.63109  1.0000
  C   C3194     1.0  0.84399  0.52279  0.59420  1.0000
  C   C3195     1.0  0.82979  0.53044  0.63253  1.0000
  H   H2562     1.0  0.55120  0.49020  0.50206  1.0000
  H   H2563     1.0  0.48083  0.51537  0.66526  1.0000
  H   H2564     1.0  0.96144  0.58088  0.73879  1.0000
  C   C3196     1.0  0.51483  0.48803  0.71933  1.0000
  H   H2565     1.0  0.82323  0.49328  0.56800  1.0000
  C   C3197     1.0  0.95187  0.56928  0.64217  1.0000
  C   C3198     1.0  0.82126  0.46860  0.56683  1.0000
  C   C3199     1.0  0.48667  0.46625  0.81747  1.0000
  H   H2566     1.0  0.82773  0.53151  0.65579  1.0000
  C   C3200     1.0  0.49309  0.52169  0.67577  1.0000
  C   C3201     1.0  0.65978  0.52513  0.56270  1.0000
  C   C3202     1.0  0.56272  0.58426  0.91892  1.0000
  H   H2567     1.0  0.93449  0.44184  0.75151  1.0000
  C   C3203     1.0  0.71611  0.55260  0.61035  1.0000
  H   H2568     1.0  0.65273  0.50713  0.86868  1.0000
  H   H2569     1.0  0.81819  0.53916  0.56439  1.0000
  H   H2570     1.0  0.93452  0.55666  0.58727  1.0000
  S   S434      1.0  0.92364  0.39626  0.80866  1.0000
  H   H2571     1.0  0.55111  0.57442  0.79204  1.0000
  H   H2572     1.0  0.89336  0.53735  0.58910  1.0000
  C   C3204     1.0  0.82955  0.45831  0.57011  1.0000
  C   C3205     1.0  0.65686  0.46285  0.57660  1.0000
  C   C3206     1.0  0.66901  0.53244  0.86592  1.0000
  C   C3207     1.0  0.95695  0.44407  0.73230  1.0000
  H   H2573     1.0  0.88025  0.55877  0.51331  1.0000
  C   C3208     1.0  0.84654  0.46496  0.57705  1.0000
  H   H2574     1.0  0.63494  0.58416  0.73177  1.0000
  C   C3209     1.0  0.94464  0.56886  0.66931  1.0000
  H   H2575     1.0  0.94290  0.53233  0.69314  1.0000
  C   C3210     1.0  0.67138  0.51505  0.90479  1.0000
  H   H2576     1.0  0.85911  0.49970  0.64066  1.0000
  H   H2577     1.0  0.57245  0.49315  0.69785  1.0000
  C   C3211     1.0  0.87137  0.50873  0.63725  1.0000
  C   C3212     1.0  0.69951  0.54227  0.61275  1.0000
  C   C3213     1.0  0.50075  0.53872  0.67562  1.0000
  H   H2578     1.0  0.49458  0.54555  0.66461  1.0000
  C   C3214     1.0  0.86667  0.52266  0.54854  1.0000
  C   C3215     1.0  0.65759  0.53964  0.56751  1.0000
  Fe  Fe217     1.0  0.69523  0.58007  0.57389  1.0000
  C   C3216     1.0  0.68243  0.54561  0.87930  1.0000
  C   C3217     1.0  0.53269  0.51648  0.76032  1.0000
  C   C3218     1.0  0.69024  0.54361  0.90562  1.0000
  C   C3219     1.0  0.66111  0.51861  0.62736  1.0000
  H   H2579     1.0  0.86252  0.49633  0.90073  1.0000
  C   C3220     1.0  0.65107  0.54602  0.54465  1.0000
  C   C3221     1.0  0.64702  0.53814  0.51663  1.0000
  C   C3222     1.0  0.94629  0.45021  0.74425  1.0000
  C   C3223     1.0  0.64571  0.51946  0.62914  1.0000
  C   C3224     1.0  0.63916  0.51941  0.65672  1.0000
  C   C3225     1.0  0.64777  0.51829  0.68267  1.0000
  C   C3226     1.0  0.66291  0.51705  0.68107  1.0000
  C   C3227     1.0  0.66949  0.51704  0.65351  1.0000
  C   C3228     1.0  0.88395  0.51126  0.65905  1.0000
  C   C3229     1.0  0.70241  0.50269  0.92168  1.0000
  H   H2580     1.0  0.92031  0.57921  0.91325  1.0000
  H   H2581     1.0  0.63868  0.52014  0.60940  1.0000
  H   H2582     1.0  0.62751  0.52056  0.65814  1.0000
  H   H2583     1.0  0.64275  0.51860  0.70401  1.0000
  H   H2584     1.0  0.66955  0.51617  0.70125  1.0000
  H   H2585     1.0  0.68112  0.51585  0.65260  1.0000
  P   P107      1.0  0.69444  0.52532  0.95290  1.0000
  H   H2586     1.0  0.73066  0.58227  0.98359  1.0000
  H   H2587     1.0  0.85047  0.48059  0.95562  1.0000
  H   H2588     1.0  0.51539  0.57882  0.83299  1.0000
  H   H2589     1.0  0.96103  0.55603  0.61244  1.0000
  H   H2590     1.0  0.97856  0.41965  0.68434  1.0000
  C   C3230     1.0  0.55074  0.58138  0.74657  1.0000
  H   H2591     1.0  0.73724  0.55905  0.58370  1.0000
  C   C3231     1.0  0.55598  0.57444  0.77054  1.0000
  H   H2592     1.0  0.96482  0.40616  0.85583  1.0000
  C   C3232     1.0  0.97183  0.40908  0.72692  1.0000
  H   H2593     1.0  0.90780  0.54391  0.95152  1.0000
  C   C3233     1.0  0.87811  0.53589  0.49384  1.0000
  C   C3234     1.0  0.71433  0.54202  0.96097  1.0000
  C   C3235     1.0  0.87180  0.39809  0.81427  1.0000
  C   C3236     1.0  0.86162  0.51215  0.93691  1.0000
  C   C3237     1.0  0.97687  0.47179  0.72515  1.0000
  C   C3238     1.0  0.57823  0.58624  0.90992  1.0000
  H   H2594     1.0  0.90965  0.57463  0.52282  1.0000
  C   C3239     1.0  0.95098  0.46709  0.74741  1.0000
  H   H2595     1.0  0.54199  0.58677  0.74975  1.0000
  C   C3240     1.0  0.64449  0.46871  0.57344  1.0000
  H   H2596     1.0  0.66098  0.58131  0.74448  1.0000
  H   H2597     1.0  0.50253  0.49118  0.83008  1.0000
  C   C3241     1.0  0.88439  0.39330  0.85976  1.0000
  C   C3242     1.0  0.87173  0.53947  0.54435  1.0000
  H   H2598     1.0  0.58023  0.57577  0.90160  1.0000
  C   C3243     1.0  0.50116  0.51286  0.68962  1.0000
  C   C3244     1.0  0.91879  0.57692  0.54100  1.0000
  H   H2599     1.0  0.96767  0.56251  0.81131  1.0000
  C   C3245     1.0  0.94207  0.58296  0.58896  1.0000
  C   C3246     1.0  0.97291  0.58083  0.73183  1.0000
  H   H2600     1.0  0.70501  0.51110  0.90370  1.0000
  H   H2601     1.0  0.89761  0.49058  0.95069  1.0000
  C   C3247     1.0  0.53009  0.53158  0.80372  1.0000
  C   C3248     1.0  0.68482  0.52827  0.91855  1.0000
  H   H2602     1.0  0.94277  0.47176  0.75737  1.0000
  C   C3249     1.0  0.54634  0.51550  0.80773  1.0000
  H   H2603     1.0  0.68266  0.46909  0.58719  1.0000
  H   H2604     1.0  0.68959  0.49848  0.59552  1.0000
  C   C3250     1.0  0.71630  0.53862  0.56416  1.0000
  C   C3251     1.0  0.77067  0.58501  0.55721  1.0000
  C   C3252     1.0  0.84695  0.49231  0.57797  1.0000
  P   P108      1.0  0.95736  0.58698  0.61946  1.0000
  C   C3253     1.0  0.82991  0.48555  0.57067  1.0000
  C   C3254     1.0  0.89987  0.52281  0.65525  1.0000
  C   C3255     1.0  0.87457  0.51796  0.61160  1.0000
  C   C3256     1.0  0.84086  0.52381  0.62419  1.0000
  H   H2605     1.0  0.79664  0.57070  0.50566  1.0000
  C   C3257     1.0  0.89356  0.51062  0.93053  1.0000
  C   C3258     1.0  0.89685  0.52068  0.90606  1.0000
  C   C3259     1.0  0.90632  0.51879  0.88363  1.0000
  C   C3260     1.0  0.91260  0.50680  0.88538  1.0000
  C   C3261     1.0  0.90956  0.49681  0.90982  1.0000
  C   C3262     1.0  0.90007  0.49868  0.93235  1.0000
  C   C3263     1.0  0.66469  0.49637  0.58517  1.0000
  C   C3264     1.0  0.96632  0.47788  0.73827  1.0000
  C   C3265     1.0  0.72451  0.55078  0.58607  1.0000
  C   C3266     1.0  0.49982  0.46231  0.74253  1.0000
  H   H2606     1.0  0.87108  0.54749  0.56207  1.0000
  Fe  Fe218     1.0  0.49319  0.58630  0.68592  1.0000
  H   H2607     1.0  0.52553  0.53992  0.81363  1.0000
  H   H2608     1.0  0.85299  0.45699  0.57963  1.0000
  C   C3267     1.0  0.88876  0.53036  0.98099  1.0000
  H   H2609     1.0  0.91403  0.55155  0.54547  1.0000
  H   H2610     1.0  0.95504  0.53251  0.64469  1.0000
  C   C3268     1.0  0.82169  0.53604  0.61101  1.0000
  C   C3269     1.0  0.49682  0.45398  0.71503  1.0000
  H   H2611     1.0  0.89179  0.52978  0.90404  1.0000
  H   H2612     1.0  0.90860  0.52650  0.86464  1.0000
  H   H2613     1.0  0.91964  0.50514  0.86755  1.0000
  H   H2614     1.0  0.91434  0.48743  0.91091  1.0000
  H   H2615     1.0  0.75663  0.57815  0.98119  1.0000
  C   C3270     1.0  0.81564  0.58527  0.96438  1.0000
  H   H2616     1.0  0.81017  0.57317  0.97328  1.0000
  C   C3271     1.0  0.69118  0.53001  0.59085  1.0000
  H   H2617     1.0  0.89475  0.41516  0.83503  1.0000
  S   S435      1.0  0.81730  0.58576  0.56034  1.0000
  C   C3272     1.0  0.50872  0.47926  0.74477  1.0000
  C   C3273     1.0  0.72908  0.53977  0.95964  1.0000
  H   H2618     1.0  0.57374  0.57502  0.69368  1.0000
  C   C3274     1.0  0.67310  0.47366  0.58439  1.0000
  H   H2619     1.0  0.69334  0.51941  0.54863  1.0000
  C   C3275     1.0  0.54017  0.52598  0.82070  1.0000
  H   H2620     1.0  0.70864  0.48531  0.89717  1.0000
  Fe  Fe219     1.0  0.68708  0.57789  0.50563  1.0000
  P   P109      1.0  0.52753  0.50976  0.72173  1.0000
  S   S436      1.0  0.96390  0.39472  0.78125  1.0000
  C   C3276     1.0  0.54650  0.51249  0.70457  1.0000
  C   C3277     1.0  0.55536  0.52659  0.68906  1.0000
  C   C3278     1.0  0.57017  0.52853  0.67669  1.0000
  C   C3279     1.0  0.57626  0.51643  0.67951  1.0000
  C   C3280     1.0  0.56749  0.50231  0.69462  1.0000
  C   C3281     1.0  0.55272  0.50035  0.70708  1.0000
  C   C3282     1.0  0.69595  0.48078  0.96767  1.0000
  C   C3283     1.0  0.51697  0.52106  0.70362  1.0000
  H   H2621     1.0  0.49403  0.46107  0.82995  1.0000
  C   C3284     1.0  0.66346  0.51718  0.87869  1.0000
  C   C3285     1.0  0.87716  0.54597  0.51695  1.0000
  C   C3286     1.0  0.51626  0.54701  0.69007  1.0000
  C   C3287     1.0  0.52425  0.53825  0.70434  1.0000
  C   C3288     1.0  0.52621  0.52672  0.77376  1.0000
  H   H2622     1.0  0.55272  0.57222  0.91785  1.0000
  H   H2623     1.0  0.55120  0.53629  0.68669  1.0000
  H   H2624     1.0  0.57719  0.53966  0.66561  1.0000
  H   H2625     1.0  0.58805  0.51825  0.67094  1.0000
  C   C3289     1.0  0.70450  0.48811  0.91792  1.0000
  H   H2626     1.0  0.86842  0.48684  0.58612  1.0000
  H   H2627     1.0  0.51831  0.53115  0.76129  1.0000
  H   H2628     1.0  0.52202  0.56026  0.69040  1.0000
  H   H2629     1.0  0.53606  0.54496  0.71622  1.0000
  H   H2630     1.0  0.86441  0.49968  0.52807  1.0000
  C   C3290     1.0  0.64836  0.48540  0.57788  1.0000
  H   H2631     1.0  0.90067  0.58042  0.94990  1.0000
  C   C3291     1.0  0.88454  0.40340  0.83641  1.0000
  C   C3292     1.0  0.85301  0.52104  0.94780  1.0000
  H   H2632     1.0  0.80808  0.46346  0.56143  1.0000
  H   H2633     1.0  0.83730  0.52711  0.54926  1.0000
  H   H2634     1.0  0.67934  0.58700  0.90239  1.0000
  H   H2635     1.0  0.82282  0.44518  0.56732  1.0000
  H   H2636     1.0  0.50060  0.45612  0.66830  1.0000
  C   C3293     1.0  0.97753  0.40694  0.75526  1.0000
  C   C3294     1.0  0.55720  0.58172  0.71879  1.0000
  H   H2637     1.0  0.87227  0.40577  0.79568  1.0000
  H   H2638     1.0  0.49564  0.45547  0.76228  1.0000
  C   C3295     1.0  0.84238  0.50352  0.89351  1.0000
  H   H2639     1.0  0.70290  0.46586  0.93798  1.0000
  C   C3296     1.0  0.74427  0.55279  0.96684  1.0000
  C   C3297     1.0  0.85611  0.50328  0.90970  1.0000
  H   H2640     1.0  0.83845  0.49695  0.87224  1.0000
  H   H2641     1.0  0.95275  0.57597  0.83875  1.0000
  C   C3298     1.0  0.69382  0.49535  0.97150  1.0000
  C   C3299     1.0  0.66506  0.52148  0.97888  1.0000
  H   H2642     1.0  0.60459  0.58619  0.82736  1.0000
  C   C3300     1.0  0.73027  0.57044  0.97672  1.0000
  C   C3301     1.0  0.74487  0.56813  0.97529  1.0000
  S   S437      1.0  0.68838  0.58156  0.96220  1.0000
  H   H2643     1.0  0.91944  0.56872  0.98388  1.0000
  H   H2644     1.0  0.85706  0.52831  0.96828  1.0000
  C   C3302     1.0  0.97791  0.40894  0.85827  1.0000
  C   C3303     1.0  0.87372  0.51926  0.49818  1.0000
  H   H2645     1.0  0.48558  0.50284  0.80204  1.0000
  H   H2646     1.0  0.53959  0.57881  0.86298  1.0000
  H   H2647     1.0  0.76746  0.56517  0.49100  1.0000
  Fe  Fe220     1.0  0.84159  0.58681  0.54160  1.0000
  C   C3304     1.0  0.96577  0.58259  0.83527  1.0000
  C   C3305     1.0  0.78721  0.58787  0.56574  1.0000
  C   C3306     1.0  0.85870  0.48088  0.97430  1.0000
  C   C3307     1.0  0.87351  0.49462  0.98065  1.0000
  H   H2648     1.0  0.97973  0.52857  0.68099  1.0000
  C   C3308     1.0  0.54125  0.58801  0.84669  1.0000
  C   C3309     1.0  0.82347  0.58756  0.93766  1.0000
  C   C3310     1.0  0.52763  0.58798  0.82980  1.0000
  Fe  Fe221     1.0  0.87284  0.60924  0.02968  1.0000
  H   H2649     1.0  0.70122  0.64487  0.44821  1.0000
  S   S438      1.0  0.88355  0.63653  0.02148  1.0000
  Fe  Fe222     1.0  0.72755  0.58896  0.05551  1.0000
  C   C3311     1.0  0.92122  0.78304  0.14072  1.0000
  Fe  Fe223     1.0  0.95263  0.75504  0.13485  1.0000
  S   S439      1.0  0.94422  0.76658  0.09645  1.0000
  C   C3312     1.0  0.51490  0.61655  0.36343  1.0000
  Fe  Fe224     1.0  0.93083  0.72045  0.10973  1.0000
  S   S440      1.0  0.92169  0.72983  0.07034  1.0000
  S   S441      1.0  0.92131  0.69329  0.11924  1.0000
  Fe  Fe225     1.0  0.94799  0.74801  0.06680  1.0000
  S   S442      1.0  0.95730  0.75041  0.01933  1.0000
  Fe  Fe226     1.0  0.91833  0.74757  0.10264  1.0000
  S   S443      1.0  0.89328  0.74928  0.09155  1.0000
  S   S444      1.0  0.95739  0.73722  0.10444  1.0000
  S   S445      1.0  0.92650  0.73735  0.14277  1.0000
  Fe  Fe227     1.0  0.52736  0.63044  0.21755  1.0000
  S   S446      1.0  0.54247  0.63141  0.17813  1.0000
  S   S447      1.0  0.53962  0.65314  0.24906  1.0000
  H   H2650     1.0  0.69191  0.61830  0.18711  1.0000
  C   C3313     1.0  0.94962  0.60992  0.20719  1.0000
  H   H2651     1.0  0.53372  0.62069  0.03006  1.0000
  Fe  Fe228     1.0  0.51890  0.62349  0.14991  1.0000
  S   S448      1.0  0.51539  0.63619  0.10737  1.0000
  S   S449      1.0  0.52241  0.60418  0.22590  1.0000
  S   S450      1.0  0.50381  0.62356  0.18911  1.0000
  C   C3314     1.0  0.56222  0.59879  0.38332  1.0000
  S   S451      1.0  0.70476  0.63194  0.07977  1.0000
  Fe  Fe229     1.0  0.80553  0.75206  0.12984  1.0000
  S   S452      1.0  0.78544  0.73200  0.15256  1.0000
  S   S453      1.0  0.83248  0.75931  0.14738  1.0000
  Fe  Fe230     1.0  0.77992  0.75746  0.08710  1.0000
  S   S454      1.0  0.75863  0.73714  0.10624  1.0000
  S   S455      1.0  0.77628  0.77555  0.05512  1.0000
  Fe  Fe231     1.0  0.77102  0.74779  0.15129  1.0000
  S   S456      1.0  0.75276  0.74983  0.18460  1.0000
  Fe  Fe232     1.0  0.77477  0.72315  0.10615  1.0000
  S   S457      1.0  0.77064  0.69716  0.09195  1.0000
  S   S458      1.0  0.79188  0.76861  0.13206  1.0000
  S   S459      1.0  0.79534  0.74276  0.08358  1.0000
  C   C3315     1.0  0.48310  0.67131  0.48193  1.0000
  H   H2652     1.0  0.81264  0.59947  0.06939  1.0000
  Fe  Fe233     1.0  0.70053  0.77723  0.36674  1.0000
  S   S460      1.0  0.67328  0.76324  0.35336  1.0000
  C   C3316     1.0  0.66971  0.60360  0.12169  1.0000
  H   H2653     1.0  0.49158  0.64274  0.29182  1.0000
  S   S461      1.0  0.71879  0.76613  0.37678  1.0000
  Fe  Fe234     1.0  0.55785  0.69990  0.41597  1.0000
  S   S462      1.0  0.57640  0.69539  0.44634  1.0000
  S   S463      1.0  0.54104  0.67898  0.38325  1.0000
  Fe  Fe235     1.0  0.56210  0.73117  0.45271  1.0000
  H   H2654     1.0  0.91830  0.69319  0.05440  1.0000
  H   H2655     1.0  0.96495  0.62294  0.12879  1.0000
  Fe  Fe236     1.0  0.59148  0.72255  0.44503  1.0000
  S   S464      1.0  0.61958  0.73510  0.44979  1.0000
  C   C3317     1.0  0.57460  0.75383  0.08496  1.0000
  H   H2656     1.0  0.52445  0.64788  0.41766  1.0000
  S   S465      1.0  0.57396  0.72699  0.41198  1.0000
  S   S466      1.0  0.54457  0.70446  0.45444  1.0000
  C   C3318     1.0  0.56071  0.77291  0.45171  1.0000
  C   C3319     1.0  0.57280  0.73969  0.10026  1.0000
  H   H2657     1.0  0.72628  0.65967  0.48074  1.0000
  H   H2658     1.0  0.90842  0.61760  0.08538  1.0000
  H   H2659     1.0  0.57257  0.76984  0.41304  1.0000
  C   C3320     1.0  0.65835  0.75595  0.38034  1.0000
  C   C3321     1.0  0.64152  0.74829  0.37115  1.0000
  C   C3322     1.0  0.62939  0.74206  0.39208  1.0000
  C   C3323     1.0  0.63403  0.74350  0.42239  1.0000
  C   C3324     1.0  0.65081  0.75152  0.43153  1.0000
  C   C3325     1.0  0.66293  0.75759  0.41066  1.0000
  H   H2660     1.0  0.63787  0.74699  0.34774  1.0000
  H   H2661     1.0  0.61651  0.73595  0.38478  1.0000
  H   H2662     1.0  0.65448  0.75295  0.45495  1.0000
  H   H2663     1.0  0.67582  0.76350  0.41806  1.0000
  C   C3326     1.0  0.76644  0.77230  0.01877  1.0000
  H   H2664     1.0  0.48443  0.63634  0.13430  1.0000
  P   P110      1.0  0.56646  0.72032  0.07993  1.0000
  C   C3327     1.0  0.48184  0.63523  0.27585  1.0000
  H   H2665     1.0  0.84216  0.63603  0.11233  1.0000
  H   H2666     1.0  0.57239  0.75324  0.06103  1.0000
  C   C3328     1.0  0.97617  0.76340  0.00386  1.0000
  S   S467      1.0  0.55922  0.67437  0.00052  1.0000
  H   H2667     1.0  0.92105  0.76409  0.01713  1.0000
  C   C3329     1.0  0.75318  0.75835  0.22098  1.0000
  C   C3330     1.0  0.73820  0.75675  0.23277  1.0000
  C   C3331     1.0  0.73782  0.76336  0.26128  1.0000
  C   C3332     1.0  0.75246  0.77163  0.27864  1.0000
  C   C3333     1.0  0.76740  0.77300  0.26699  1.0000
  C   C3334     1.0  0.76779  0.76650  0.23839  1.0000
  H   H2668     1.0  0.72675  0.75017  0.21989  1.0000
  H   H2669     1.0  0.72621  0.76189  0.26999  1.0000
  H   H2670     1.0  0.90327  0.67078  0.01690  1.0000
  C   C3335     1.0  0.72313  0.65005  0.08259  1.0000
  C   C3336     1.0  0.73863  0.64953  0.08133  1.0000
  C   C3337     1.0  0.75301  0.66410  0.08424  1.0000
  C   C3338     1.0  0.75209  0.67929  0.08841  1.0000
  C   C3339     1.0  0.73663  0.67985  0.08935  1.0000
  C   C3340     1.0  0.72219  0.66526  0.08653  1.0000
  H   H2671     1.0  0.73954  0.63792  0.07821  1.0000
  H   H2672     1.0  0.76494  0.66365  0.08330  1.0000
  H   H2673     1.0  0.73593  0.69157  0.09177  1.0000
  H   H2674     1.0  0.71024  0.66574  0.08687  1.0000
  C   C3341     1.0  0.53991  0.65986  0.28670  1.0000
  C   C3342     1.0  0.52811  0.65086  0.30629  1.0000
  C   C3343     1.0  0.52861  0.65699  0.33555  1.0000
  C   C3344     1.0  0.54107  0.67207  0.34591  1.0000
  C   C3345     1.0  0.55302  0.68095  0.32647  1.0000
  C   C3346     1.0  0.55236  0.67492  0.29707  1.0000
  H   H2675     1.0  0.51849  0.63932  0.29872  1.0000
  H   H2676     1.0  0.51927  0.65003  0.35031  1.0000
  H   H2677     1.0  0.56265  0.69257  0.33395  1.0000
  H   H2678     1.0  0.56157  0.68204  0.28220  1.0000
  C   C3347     1.0  0.52821  0.64757  0.07886  1.0000
  C   C3348     1.0  0.52163  0.65492  0.05737  1.0000
  C   C3349     1.0  0.53100  0.66357  0.03386  1.0000
  C   C3350     1.0  0.54711  0.66483  0.03112  1.0000
  C   C3351     1.0  0.55379  0.65771  0.05287  1.0000
  C   C3352     1.0  0.54451  0.64927  0.07664  1.0000
  H   H2679     1.0  0.50910  0.65381  0.05878  1.0000
  H   H2680     1.0  0.52558  0.66889  0.01747  1.0000
  H   H2681     1.0  0.56621  0.65856  0.05114  1.0000
  H   H2682     1.0  0.54987  0.64385  0.09295  1.0000
  C   C3353     1.0  0.87604  0.75091  0.10824  1.0000
  C   C3354     1.0  0.87553  0.75333  0.13885  1.0000
  C   C3355     1.0  0.86198  0.75550  0.15046  1.0000
  C   C3356     1.0  0.84845  0.75477  0.13187  1.0000
  C   C3357     1.0  0.84865  0.75167  0.10142  1.0000
  C   C3358     1.0  0.86247  0.75009  0.08973  1.0000
  H   H2683     1.0  0.88571  0.75385  0.15356  1.0000
  H   H2684     1.0  0.86202  0.75788  0.17403  1.0000
  H   H2685     1.0  0.83848  0.75117  0.08670  1.0000
  H   H2686     1.0  0.86282  0.74852  0.06605  1.0000
  H   H2687     1.0  0.73382  0.78394  0.12958  1.0000
  C   C3359     1.0  0.58401  0.70438  0.05366  1.0000
  H   H2688     1.0  0.85616  0.78787  0.08766  1.0000
  H   H2689     1.0  0.69443  0.74990  0.45766  1.0000
  H   H2690     1.0  0.59209  0.77243  0.33724  1.0000
  H   H2691     1.0  0.85720  0.62806  0.07460  1.0000
  C   C3360     1.0  0.59616  0.73387  0.05121  1.0000
  C   C3361     1.0  0.89435  0.65204  0.04894  1.0000
  C   C3362     1.0  0.89417  0.64877  0.07914  1.0000
  C   C3363     1.0  0.90261  0.66151  0.10035  1.0000
  C   C3364     1.0  0.91124  0.67763  0.09164  1.0000
  C   C3365     1.0  0.91158  0.68086  0.06141  1.0000
  C   C3366     1.0  0.90304  0.66814  0.04021  1.0000
  H   H2692     1.0  0.88747  0.63647  0.08614  1.0000
  H   H2693     1.0  0.90245  0.65891  0.12363  1.0000
  H   H2694     1.0  0.91259  0.64041  0.18769  1.0000
  H   H2695     1.0  0.65913  0.78675  0.34457  1.0000
  C   C3367     1.0  0.66838  0.78238  0.17645  1.0000
  C   C3368     1.0  0.57099  0.69997  0.12249  1.0000
  H   H2696     1.0  0.71629  0.74047  0.46946  1.0000
  C   C3369     1.0  0.89655  0.61510  0.12650  1.0000
  C   C3370     1.0  0.93855  0.59967  0.04094  1.0000
  H   H2697     1.0  0.49568  0.62214  0.25952  1.0000
  H   H2698     1.0  0.91018  0.77571  0.05634  1.0000
  C   C3371     1.0  0.55857  0.59896  0.35275  1.0000
  H   H2699     1.0  0.96344  0.64331  0.16466  1.0000
  P   P111      1.0  0.55842  0.61713  0.33617  1.0000
  C   C3372     1.0  0.57204  0.63580  0.35583  1.0000
  C   C3373     1.0  0.56543  0.61918  0.29896  1.0000
  C   C3374     1.0  0.56169  0.62949  0.27968  1.0000
  C   C3375     1.0  0.56681  0.63108  0.25067  1.0000
  C   C3376     1.0  0.57577  0.62244  0.24073  1.0000
  C   C3377     1.0  0.58005  0.61259  0.26011  1.0000
  C   C3378     1.0  0.57513  0.61113  0.28927  1.0000
  C   C3379     1.0  0.58708  0.63713  0.36952  1.0000
  C   C3380     1.0  0.59765  0.65175  0.38435  1.0000
  C   C3381     1.0  0.59344  0.66522  0.38503  1.0000
  C   C3382     1.0  0.57877  0.66416  0.37053  1.0000
  C   C3383     1.0  0.56817  0.64956  0.35580  1.0000
  C   C3384     1.0  0.53731  0.61490  0.33660  1.0000
  C   C3385     1.0  0.53141  0.61883  0.36262  1.0000
  H   H2700     1.0  0.91033  0.60896  0.20031  1.0000
  C   C3386     1.0  0.76401  0.74126  0.45082  1.0000
  C   C3387     1.0  0.50988  0.60603  0.31253  1.0000
  C   C3388     1.0  0.52638  0.60824  0.31170  1.0000
  H   H2701     1.0  0.48286  0.60498  0.45680  1.0000
  C   C3389     1.0  0.50416  0.61024  0.33833  1.0000
  H   H2702     1.0  0.55472  0.63625  0.28699  1.0000
  H   H2703     1.0  0.56368  0.63893  0.23583  1.0000
  H   H2704     1.0  0.57927  0.62328  0.21794  1.0000
  H   H2705     1.0  0.92756  0.59330  0.11216  1.0000
  H   H2706     1.0  0.57886  0.60364  0.30393  1.0000
  H   H2707     1.0  0.59071  0.62695  0.36855  1.0000
  H   H2708     1.0  0.60919  0.65271  0.39509  1.0000
  H   H2709     1.0  0.60160  0.67657  0.39647  1.0000
  H   H2710     1.0  0.57558  0.67466  0.37074  1.0000
  H   H2711     1.0  0.55702  0.64909  0.34423  1.0000
  H   H2712     1.0  0.53957  0.62372  0.38225  1.0000
  C   C3390     1.0  0.87735  0.73127  0.45356  1.0000
  S   S468      1.0  0.55482  0.59381  0.18130  1.0000
  H   H2713     1.0  0.80962  0.59674  0.00130  1.0000
  H   H2714     1.0  0.53059  0.60478  0.29165  1.0000
  C   C3391     1.0  0.65196  0.62354  0.07260  1.0000
  C   C3392     1.0  0.65409  0.63903  0.06315  1.0000
  C   C3393     1.0  0.64280  0.64560  0.07019  1.0000
  C   C3394     1.0  0.62945  0.63674  0.08699  1.0000
  H   H2715     1.0  0.94998  0.77854  0.00336  1.0000
  C   C3395     1.0  0.73462  0.72218  0.47696  1.0000
  H   H2716     1.0  0.66466  0.64599  0.05062  1.0000
  H   H2717     1.0  0.64454  0.65765  0.06293  1.0000
  H   H2718     1.0  0.62087  0.64199  0.09292  1.0000
  H   H2719     1.0  0.69547  0.61175  0.13493  1.0000
  H   H2720     1.0  0.84731  0.62422  0.02209  1.0000
  C   C3396     1.0  0.68133  0.61355  0.17138  1.0000
  H   H2721     1.0  0.64021  0.60426  0.16673  1.0000
  H   H2722     1.0  0.89995  0.71932  0.48217  1.0000
  C   C3397     1.0  0.71554  0.77864  0.19548  1.0000
  C   C3398     1.0  0.76404  0.78532  0.00522  1.0000
  H   H2723     1.0  0.76307  0.74722  0.01293  1.0000
  C   C3399     1.0  0.55631  0.78404  0.46782  1.0000
  H   H2724     1.0  0.66109  0.61883  0.06744  1.0000
  H   H2725     1.0  0.97102  0.72764  0.04213  1.0000
  H   H2726     1.0  0.67159  0.60100  0.09900  1.0000
  H   H2727     1.0  0.68891  0.68656  0.45178  1.0000
  H   H2728     1.0  0.54059  0.73304  0.07924  1.0000
  C   C3400     1.0  0.93066  0.61541  0.47373  1.0000
  Fe  Fe237     1.0  0.49971  0.59698  0.19447  1.0000
  P   P112      1.0  0.50526  0.63949  0.47152  1.0000
  C   C3401     1.0  0.67716  0.74812  0.28357  1.0000
  C   C3402     1.0  0.69335  0.75988  0.28599  1.0000
  C   C3403     1.0  0.81705  0.73114  0.01650  1.0000
  C   C3404     1.0  0.57995  0.75581  0.14669  1.0000
  C   C3405     1.0  0.97537  0.76961  0.25818  1.0000
  H   H2729     1.0  0.57458  0.68392  0.15466  1.0000
  C   C3406     1.0  0.56013  0.65301  0.45551  1.0000
  C   C3407     1.0  0.60241  0.76913  0.37946  1.0000
  H   H2730     1.0  0.58033  0.77962  0.08842  1.0000
  H   H2731     1.0  0.91812  0.76548  0.17453  1.0000
  C   C3408     1.0  0.61919  0.77729  0.48363  1.0000
  C   C3409     1.0  0.52671  0.64475  0.46503  1.0000
  H   H2732     1.0  0.51298  0.71228  0.99735  1.0000
  H   H2733     1.0  0.66527  0.73222  0.46646  1.0000
  H   H2734     1.0  0.80758  0.63757  0.04431  1.0000
  H   H2735     1.0  0.59605  0.74572  0.05548  1.0000
  C   C3410     1.0  0.60890  0.73296  0.03514  1.0000
  C   C3411     1.0  0.53895  0.72566  0.05914  1.0000
  H   H2736     1.0  0.49143  0.60867  0.33880  1.0000
  C   C3412     1.0  0.83537  0.59941  0.13240  1.0000
  C   C3413     1.0  0.94287  0.78407  0.17635  1.0000
  H   H2737     1.0  0.67302  0.73865  0.29970  1.0000
  H   H2738     1.0  0.70174  0.75939  0.30384  1.0000
  H   H2739     1.0  0.58504  0.78140  0.14324  1.0000
  C   C3414     1.0  0.80353  0.71893  0.02849  1.0000
  Fe  Fe238     1.0  0.70605  0.60807  0.06478  1.0000
  H   H2740     1.0  0.77267  0.78478  0.17934  1.0000
  C   C3415     1.0  0.92459  0.64237  0.14692  1.0000
  C   C3416     1.0  0.92351  0.63599  0.11807  1.0000
  S   S469      1.0  0.86035  0.59710  0.07025  1.0000
  H   H2741     1.0  0.93332  0.64183  0.10333  1.0000
  H   H2742     1.0  0.82239  0.66444  0.98702  1.0000
  C   C3417     1.0  0.48414  0.62361  0.25772  1.0000
  H   H2743     1.0  0.67285  0.77357  0.16811  1.0000
  C   C3418     1.0  0.80582  0.70729  0.04626  1.0000
  C   C3419     1.0  0.82164  0.70769  0.05216  1.0000
  C   C3420     1.0  0.83516  0.71990  0.03977  1.0000
  P   P113      1.0  0.82438  0.69313  0.07684  1.0000
  C   C3421     1.0  0.80732  0.67346  0.06987  1.0000
  C   C3422     1.0  0.84373  0.69164  0.07108  1.0000
  C   C3423     1.0  0.85854  0.70410  0.08253  1.0000
  C   C3424     1.0  0.87354  0.70279  0.07945  1.0000
  C   C3425     1.0  0.87386  0.68899  0.06514  1.0000
  C   C3426     1.0  0.85921  0.67651  0.05372  1.0000
  C   C3427     1.0  0.84418  0.67787  0.05649  1.0000
  C   C3428     1.0  0.80076  0.66300  0.09321  1.0000
  C   C3429     1.0  0.78726  0.64801  0.08765  1.0000
  C   C3430     1.0  0.78007  0.64347  0.05891  1.0000
  C   C3431     1.0  0.78652  0.65382  0.03560  1.0000
  C   C3432     1.0  0.80022  0.66863  0.04094  1.0000
  C   C3433     1.0  0.82524  0.69992  0.11504  1.0000
  C   C3434     1.0  0.83361  0.69474  0.13708  1.0000
  C   C3435     1.0  0.83510  0.70056  0.16647  1.0000
  C   C3436     1.0  0.82812  0.71145  0.17414  1.0000
  C   C3437     1.0  0.81950  0.71636  0.15250  1.0000
  C   C3438     1.0  0.81801  0.71064  0.12305  1.0000
  C   C3439     1.0  0.52311  0.71380  0.01315  1.0000
  S   S470      1.0  0.97461  0.77144  0.16687  1.0000
  C   C3440     1.0  0.81763  0.78775  0.20159  1.0000
  H   H2744     1.0  0.79524  0.69808  0.05574  1.0000
  H   H2745     1.0  0.84752  0.72066  0.04401  1.0000
  H   H2746     1.0  0.85855  0.71485  0.09399  1.0000
  H   H2747     1.0  0.88493  0.71247  0.08835  1.0000
  H   H2748     1.0  0.88549  0.68800  0.06300  1.0000
  H   H2749     1.0  0.85958  0.66578  0.04279  1.0000
  H   H2750     1.0  0.83300  0.66818  0.04740  1.0000
  H   H2751     1.0  0.80587  0.66645  0.11574  1.0000
  H   H2752     1.0  0.78209  0.64000  0.10568  1.0000
  H   H2753     1.0  0.76940  0.63199  0.05479  1.0000
  H   H2754     1.0  0.50157  0.60122  0.29303  1.0000
  C   C3441     1.0  0.92313  0.62605  0.47985  1.0000
  H   H2755     1.0  0.83923  0.68642  0.13149  1.0000
  H   H2756     1.0  0.84189  0.69683  0.18320  1.0000
  H   H2757     1.0  0.82952  0.71625  0.19675  1.0000
  H   H2758     1.0  0.81432  0.72497  0.15846  1.0000
  H   H2759     1.0  0.81143  0.71483  0.10671  1.0000
  C   C3442     1.0  0.73892  0.66166  0.18024  1.0000
  C   C3443     1.0  0.75385  0.67219  0.16948  1.0000
  C   C3444     1.0  0.75620  0.68809  0.16247  1.0000
  C   C3445     1.0  0.74344  0.69333  0.16501  1.0000
  C   C3446     1.0  0.72823  0.68265  0.17494  1.0000
  C   C3447     1.0  0.72627  0.66697  0.18358  1.0000
  P   P114      1.0  0.71194  0.68950  0.17964  1.0000
  C   C3448     1.0  0.71491  0.69733  0.21759  1.0000
  C   C3449     1.0  0.71336  0.70493  0.15332  1.0000
  C   C3450     1.0  0.71367  0.72017  0.16228  1.0000
  C   C3451     1.0  0.71476  0.73182  0.14121  1.0000
  C   C3452     1.0  0.71536  0.72830  0.11113  1.0000
  C   C3453     1.0  0.71454  0.71299  0.10201  1.0000
  C   C3454     1.0  0.71339  0.70132  0.12301  1.0000
  C   C3455     1.0  0.72883  0.71163  0.22600  1.0000
  C   C3456     1.0  0.73149  0.71786  0.25527  1.0000
  C   C3457     1.0  0.72045  0.70971  0.27654  1.0000
  C   C3458     1.0  0.70691  0.69511  0.26866  1.0000
  C   C3459     1.0  0.70424  0.68882  0.23937  1.0000
  C   C3460     1.0  0.69207  0.67316  0.16992  1.0000
  C   C3461     1.0  0.67765  0.67387  0.17999  1.0000
  C   C3462     1.0  0.66222  0.66150  0.17161  1.0000
  C   C3463     1.0  0.66107  0.64862  0.15243  1.0000
  C   C3464     1.0  0.67531  0.64822  0.14123  1.0000
  C   C3465     1.0  0.69073  0.66046  0.14978  1.0000
  H   H2760     1.0  0.73716  0.64936  0.18586  1.0000
  H   H2761     1.0  0.76363  0.66808  0.16644  1.0000
  H   H2762     1.0  0.76786  0.69624  0.15439  1.0000
  H   H2763     1.0  0.74549  0.70567  0.15909  1.0000
  H   H2764     1.0  0.71488  0.65877  0.19246  1.0000
  H   H2765     1.0  0.71330  0.72325  0.18539  1.0000
  H   H2766     1.0  0.71550  0.74370  0.14831  1.0000
  H   H2767     1.0  0.71661  0.73747  0.09491  1.0000
  H   H2768     1.0  0.71506  0.71025  0.07869  1.0000
  H   H2769     1.0  0.71258  0.68947  0.11567  1.0000
  H   H2770     1.0  0.73763  0.71802  0.20988  1.0000
  H   H2771     1.0  0.74216  0.72906  0.26142  1.0000
  H   H2772     1.0  0.72253  0.71465  0.29918  1.0000
  H   H2773     1.0  0.69856  0.68863  0.28535  1.0000
  H   H2774     1.0  0.69400  0.67726  0.23400  1.0000
  H   H2775     1.0  0.67831  0.68407  0.19406  1.0000
  H   H2776     1.0  0.65113  0.66201  0.17972  1.0000
  H   H2777     1.0  0.64915  0.63905  0.14592  1.0000
  H   H2778     1.0  0.67448  0.63851  0.12570  1.0000
  H   H2779     1.0  0.70151  0.66005  0.14015  1.0000
  H   H2780     1.0  0.76508  0.78398  0.45516  1.0000
  S   S471      1.0  0.55487  0.75253  0.46449  1.0000
  C   C3466     1.0  0.87466  0.64200  0.24499  1.0000
  H   H2781     1.0  0.61329  0.76922  0.42281  1.0000
  C   C3467     1.0  0.76129  0.75734  0.00293  1.0000
  C   C3468     1.0  0.62734  0.62127  0.09667  1.0000
  H   H2782     1.0  0.77529  0.74911  0.44104  1.0000
  S   S472      1.0  0.85208  0.59310  0.99809  1.0000
  C   C3469     1.0  0.88920  0.74552  0.46776  1.0000
  H   H2783     1.0  0.88322  0.64535  0.16136  1.0000
  C   C3470     1.0  0.54898  0.62494  0.99270  1.0000
  C   C3471     1.0  0.92877  0.77584  0.02768  1.0000
  H   H2784     1.0  0.76181  0.60803  0.00245  1.0000
  C   C3472     1.0  0.54683  0.70814  0.02775  1.0000
  C   C3473     1.0  0.81806  0.63490  0.05071  1.0000
  H   H2785     1.0  0.87061  0.72072  0.46624  1.0000
  H   H2786     1.0  0.96078  0.59948  0.02427  1.0000
  C   C3474     1.0  0.78731  0.59719  0.06709  1.0000
  H   H2787     1.0  0.57418  0.78335  0.98594  1.0000
  H   H2788     1.0  0.58407  0.70737  0.12161  1.0000
  Fe  Fe239     1.0  0.53573  0.60463  0.18481  1.0000
  C   C3475     1.0  0.90951  0.62233  0.10795  1.0000
  C   C3476     1.0  0.95586  0.60280  0.15843  1.0000
  H   H2789     1.0  0.92475  0.75468  0.48011  1.0000
  H   H2790     1.0  0.57421  0.69313  0.05980  1.0000
  C   C3477     1.0  0.68333  0.60978  0.14208  1.0000
  H   H2791     1.0  0.88583  0.60462  0.11812  1.0000
  C   C3478     1.0  0.54976  0.71815  0.05343  1.0000
  C   C3479     1.0  0.54260  0.69358  0.10614  1.0000
  H   H2792     1.0  0.53342  0.69577  0.09245  1.0000
  C   C3480     1.0  0.65212  0.60543  0.15972  1.0000
  C   C3481     1.0  0.84605  0.62962  0.06810  1.0000
  C   C3482     1.0  0.49160  0.63832  0.41425  1.0000
  C   C3483     1.0  0.87413  0.73059  0.42282  1.0000
  C   C3484     1.0  0.48278  0.61229  0.43799  1.0000
  C   C3485     1.0  0.96057  0.61913  0.15058  1.0000
  C   C3486     1.0  0.95030  0.59826  0.18690  1.0000
  C   C3487     1.0  0.76154  0.77882  0.47655  1.0000
  C   C3488     1.0  0.71817  0.66563  0.47452  1.0000
  H   H2793     1.0  0.88228  0.66883  0.18924  1.0000
  H   H2794     1.0  0.91457  0.58954  0.23435  1.0000
  C   C3489     1.0  0.48158  0.63062  0.38897  1.0000
  C   C3490     1.0  0.65395  0.60117  0.13044  1.0000
  S   S473      1.0  0.75298  0.78043  0.31484  1.0000
  C   C3491     1.0  0.55948  0.70352  0.10482  1.0000
  P   P115      1.0  0.88021  0.61300  0.17874  1.0000
  H   H2795     1.0  0.91760  0.59903  0.06379  1.0000
  H   H2796     1.0  0.61829  0.74397  0.02714  1.0000
  C   C3492     1.0  0.69973  0.71669  0.48414  1.0000
  C   C3493     1.0  0.85008  0.60858  0.14901  1.0000
  H   H2797     1.0  0.66249  0.76213  0.22439  1.0000
  C   C3494     1.0  0.48592  0.65735  0.47539  1.0000
  H   H2798     1.0  0.79031  0.60893  0.07814  1.0000
  C   C3495     1.0  0.58363  0.71956  0.06078  1.0000
  P   P116      1.0  0.63681  0.59507  0.10318  1.0000
  H   H2799     1.0  0.57396  0.73012  0.14378  1.0000
  C   C3496     1.0  0.95351  0.59797  0.04349  1.0000
  H   H2800     1.0  0.82565  0.77644  0.23710  1.0000
  C   C3497     1.0  0.76425  0.73794  0.48091  1.0000
  H   H2801     1.0  0.76129  0.70475  0.46848  1.0000
  C   C3498     1.0  0.94509  0.78393  0.02006  1.0000
  H   H2802     1.0  0.82237  0.78247  0.18445  1.0000
  C   C3499     1.0  0.94978  0.59243  0.09591  1.0000
  C   C3500     1.0  0.96997  0.76653  0.22779  1.0000
  C   C3501     1.0  0.58174  0.76980  0.13127  1.0000
  C   C3502     1.0  0.68756  0.77364  0.24372  1.0000
  C   C3503     1.0  0.89738  0.62158  0.15528  1.0000
  H   H2803     1.0  0.61735  0.61498  0.11075  1.0000
  C   C3504     1.0  0.91162  0.63518  0.16552  1.0000
  C   C3505     1.0  0.60913  0.71779  0.02816  1.0000
  H   H2804     1.0  0.55474  0.70196  0.02314  1.0000
  H   H2805     1.0  0.86511  0.71953  0.41187  1.0000
  H   H2806     1.0  0.93412  0.60238  0.01976  1.0000
  H   H2807     1.0  0.74896  0.73758  0.41032  1.0000
  C   C3506     1.0  0.74918  0.73480  0.43357  1.0000
  H   H2808     1.0  0.85255  0.62100  0.15595  1.0000
  H   H2809     1.0  0.48114  0.63778  0.37006  1.0000
  C   C3507     1.0  0.81950  0.78437  0.23129  1.0000
  C   C3508     1.0  0.56569  0.68672  0.14119  1.0000
  C   C3509     1.0  0.95429  0.62613  0.19916  1.0000
  H   H2810     1.0  0.91207  0.62501  0.46703  1.0000
  H   H2811     1.0  0.70452  0.59420  0.19438  1.0000
  H   H2812     1.0  0.95732  0.75856  0.22147  1.0000
  C   C3510     1.0  0.50192  0.65779  0.47880  1.0000
  C   C3511     1.0  0.82649  0.63034  0.02925  1.0000
  H   H2813     1.0  0.93530  0.65318  0.15456  1.0000
  H   H2814     1.0  0.61863  0.71709  0.01465  1.0000
  C   C3512     1.0  0.70367  0.73233  0.47295  1.0000
  H   H2815     1.0  0.79126  0.71866  0.02466  1.0000
  H   H2816     1.0  0.51771  0.72973  0.04304  1.0000
  C   C3513     1.0  0.92654  0.77658  0.16503  1.0000
  C   C3514     1.0  0.57590  0.62459  0.00275  1.0000
  C   C3515     1.0  0.69701  0.68079  0.45885  1.0000
  C   C3516     1.0  0.73457  0.72509  0.44648  1.0000
  C   C3517     1.0  0.93491  0.59446  0.09317  1.0000
  H   H2817     1.0  0.90604  0.77059  0.46167  1.0000
  H   H2818     1.0  0.94716  0.77878  0.19459  1.0000
  C   C3518     1.0  0.53737  0.68037  0.12488  1.0000
  C   C3519     1.0  0.54910  0.65204  0.43173  1.0000
  H   H2819     1.0  0.59801  0.75599  0.37623  1.0000
  H   H2820     1.0  0.53121  0.69798  0.98828  1.0000
  S   S474      1.0  0.71457  0.59293  0.09499  1.0000
  C   C3520     1.0  0.57229  0.62124  0.03240  1.0000
  C   C3521     1.0  0.55706  0.61974  0.04217  1.0000
  C   C3522     1.0  0.61105  0.77672  0.40601  1.0000
  S   S475      1.0  0.71995  0.60533  0.02639  1.0000
  C   C3523     1.0  0.57549  0.74080  0.13129  1.0000
  C   C3524     1.0  0.54541  0.62154  0.02231  1.0000
  H   H2821     1.0  0.58132  0.61989  0.04785  1.0000
  C   C3525     1.0  0.72539  0.77712  0.17330  1.0000
  C   C3526     1.0  0.59668  0.70351  0.03747  1.0000
  C   C3527     1.0  0.76705  0.68360  0.47090  1.0000
  C   C3528     1.0  0.54888  0.67691  0.14234  1.0000
  C   C3529     1.0  0.83285  0.73159  0.02204  1.0000
  S   S476      1.0  0.88716  0.59364  0.02468  1.0000
  C   C3530     1.0  0.82351  0.63665  0.08066  1.0000
  H   H2822     1.0  0.78077  0.65042  0.01344  1.0000
  H   H2823     1.0  0.97565  0.74691  0.47637  1.0000
  C   C3531     1.0  0.67488  0.72795  0.47161  1.0000
  S   S477      1.0  0.51311  0.59651  0.15352  1.0000
  C   C3532     1.0  0.69854  0.77262  0.26624  1.0000
  C   C3533     1.0  0.90231  0.58904  0.22972  1.0000
  H   H2824     1.0  0.66418  0.61442  0.20285  1.0000
  H   H2825     1.0  0.62885  0.77462  0.47415  1.0000
  H   H2826     1.0  0.55430  0.61737  0.06521  1.0000
  H   H2827     1.0  0.80504  0.67648  0.02260  1.0000
  H   H2828     1.0  0.94558  0.60638  0.22927  1.0000
  C   C3534     1.0  0.52581  0.72366  0.03885  1.0000
  H   H2829     1.0  0.51049  0.61984  0.38344  1.0000
  H   H2830     1.0  0.52437  0.67250  0.12535  1.0000
  C   C3535     1.0  0.53349  0.70589  0.00784  1.0000
  H   H2831     1.0  0.92552  0.60618  0.45591  1.0000
  C   C3536     1.0  0.59916  0.77841  0.35747  1.0000
  H   H2832     1.0  0.73217  0.76948  0.17641  1.0000
  C   C3537     1.0  0.88381  0.59905  0.20375  1.0000
  C   C3538     1.0  0.78799  0.61847  0.99715  1.0000
  S   S478      1.0  0.73011  0.77759  0.46138  1.0000
  Fe  Fe240     1.0  0.72894  0.78565  0.41346  1.0000
  C   C3539     1.0  0.71088  0.68902  0.47827  1.0000
  C   C3540     1.0  0.57907  0.76881  0.10042  1.0000
  C   C3541     1.0  0.89980  0.60000  0.21036  1.0000
  C   C3542     1.0  0.56911  0.77817  0.42580  1.0000
  H   H2833     1.0  0.55349  0.65511  0.40978  1.0000
  H   H2834     1.0  0.87237  0.64116  0.26839  1.0000
  P   P117      1.0  0.82185  0.63142  0.99022  1.0000
  C   C3543     1.0  0.88079  0.64426  0.18471  1.0000
  C   C3544     1.0  0.84041  0.62749  0.03826  1.0000
  S   S479      1.0  0.75557  0.59568  0.06258  1.0000
  C   C3545     1.0  0.53249  0.64797  0.43641  1.0000
  C   C3546     1.0  0.76726  0.69843  0.48158  1.0000
  H   H2835     1.0  0.72315  0.72018  0.43282  1.0000
  C   C3547     1.0  0.89727  0.75929  0.45102  1.0000
  C   C3548     1.0  0.87713  0.65645  0.23057  1.0000
  C   C3549     1.0  0.89404  0.75857  0.42029  1.0000
  C   C3550     1.0  0.80003  0.59188  0.06210  1.0000
  C   C3551     1.0  0.66573  0.61138  0.18020  1.0000
  H   H2836     1.0  0.76089  0.67843  0.44956  1.0000
  H   H2837     1.0  0.96671  0.76396  0.27490  1.0000
  H   H2838     1.0  0.81695  0.64017  0.09710  1.0000
  C   C3552     1.0  0.86135  0.60164  0.15645  1.0000
  H   H2839     1.0  0.84337  0.74116  0.01304  1.0000
  C   C3553     1.0  0.83764  0.63422  0.08930  1.0000
  C   C3554     1.0  0.66617  0.74894  0.26111  1.0000
  H   H2840     1.0  0.87678  0.66683  0.24278  1.0000
  H   H2841     1.0  0.76016  0.77506  0.12897  1.0000
  H   H2842     1.0  0.82669  0.60475  0.12653  1.0000
  H   H2843     1.0  0.68270  0.65849  0.43343  1.0000
  C   C3555     1.0  0.63839  0.61438  0.08899  1.0000
  C   C3556     1.0  0.88254  0.74421  0.40617  1.0000
  C   C3557     1.0  0.87852  0.62975  0.19910  1.0000
  H   H2844     1.0  0.58695  0.60584  0.25233  1.0000
  H   H2845     1.0  0.77940  0.76768  0.22991  1.0000
  H   H2846     1.0  0.63623  0.59587  0.03727  1.0000
  C   C3558     1.0  0.67133  0.76163  0.24119  1.0000
  H   H2847     1.0  0.56523  0.60963  0.39742  1.0000
  C   C3559     1.0  0.88018  0.65757  0.20042  1.0000
  C   C3560     1.0  0.69126  0.73785  0.46649  1.0000
  H   H2848     1.0  0.88008  0.74368  0.38233  1.0000
  C   C3561     1.0  0.87537  0.62868  0.22935  1.0000
  H   H2849     1.0  0.71470  0.77194  0.21549  1.0000
  H   H2850     1.0  0.90874  0.77669  0.13152  1.0000
  H   H2851     1.0  0.58185  0.75655  0.17065  1.0000
  H   H2852     1.0  0.83972  0.69796  0.47387  1.0000
  H   H2853     1.0  0.54473  0.66648  0.15647  1.0000
  H   H2854     1.0  0.59645  0.69167  0.03125  1.0000
  C   C3562     1.0  0.70402  0.65727  0.45615  1.0000
  C   C3563     1.0  0.95915  0.59439  0.07083  1.0000
  H   H2855     1.0  0.65355  0.73993  0.25964  1.0000
  H   H2856     1.0  0.87362  0.61768  0.24103  1.0000
  H   H2857     1.0  0.71103  0.78185  0.26903  1.0000
  H   H2858     1.0  0.77876  0.77913  0.28034  1.0000
  C   C3564     1.0  0.92929  0.59792  0.06578  1.0000
  C   C3565     1.0  0.69354  0.66491  0.44806  1.0000
  H   H2859     1.0  0.96122  0.69561  0.47474  1.0000
  H   H2860     1.0  0.81527  0.74036  0.00323  1.0000
  C   C3566     1.0  0.97764  0.58946  0.13010  1.0000
  H   H2861     1.0  0.57311  0.65675  0.45198  1.0000
  C   C3567     1.0  0.95974  0.63073  0.17085  1.0000
  C   C3568     1.0  0.77174  0.61631  0.98996  1.0000
  H   H2862     1.0  0.90046  0.76918  0.40743  1.0000
  C   C3569     1.0  0.72652  0.78543  0.14702  1.0000
  Fe  Fe241     1.0  0.73561  0.78498  0.34704  1.0000
  C   C3570     1.0  0.49237  0.62920  0.43892  1.0000
  H   H2863     1.0  0.95380  0.63515  0.21495  1.0000
  H   H2864     1.0  0.79036  0.61145  0.01459  1.0000
  H   H2865     1.0  0.97025  0.70907  0.00029  1.0000
  H   H2866     1.0  0.77476  0.66413  0.47871  1.0000
  H   H2867     1.0  0.58775  0.62575  0.99545  1.0000
  H   H2868     1.0  0.49880  0.65144  0.41455  1.0000
  H   H2869     1.0  0.64851  0.77558  0.14276  1.0000
  H   H2870     1.0  0.58451  0.65903  0.98674  1.0000
  C   C3571     1.0  0.67093  0.71264  0.48372  1.0000
  C   C3572     1.0  0.92264  0.78249  0.04997  1.0000
  H   H2871     1.0  0.97089  0.59344  0.07214  1.0000
  C   C3573     1.0  0.65456  0.78343  0.16209  1.0000
  C   C3574     1.0  0.76639  0.78809  0.13420  1.0000
  H   H2872     1.0  0.64148  0.58842  0.30949  1.0000
  C   C3575     1.0  0.55453  0.64994  0.48409  1.0000
  Fe  Fe242     1.0  0.87546  0.61280  0.52758  1.0000
  H   H2873     1.0  0.55968  0.70709  0.58119  1.0000
  S   S480      1.0  0.89088  0.63955  0.51953  1.0000
  C   C3576     1.0  0.62507  0.76468  0.95336  1.0000
  H   H2874     1.0  0.50694  0.65817  0.75487  1.0000
  Fe  Fe243     1.0  0.95956  0.75154  0.65019  1.0000
  S   S481      1.0  0.95610  0.76834  0.61594  1.0000
  C   C3577     1.0  0.93967  0.59595  0.57549  1.0000
  Fe  Fe244     1.0  0.93219  0.72111  0.61810  1.0000
  S   S482      1.0  0.92705  0.73581  0.58227  1.0000
  S   S483      1.0  0.91713  0.69393  0.62418  1.0000
  Fe  Fe245     1.0  0.95482  0.74930  0.58105  1.0000
  C   C3578     1.0  0.77084  0.61695  0.50892  1.0000
  Fe  Fe246     1.0  0.92850  0.75347  0.61950  1.0000
  S   S484      1.0  0.90992  0.76536  0.62390  1.0000
  S   S485      1.0  0.95963  0.73324  0.61501  1.0000
  S   S486      1.0  0.93229  0.73808  0.65565  1.0000
  Fe  Fe247     1.0  0.51386  0.61671  0.72696  1.0000
  S   S487      1.0  0.53469  0.62615  0.69636  1.0000
  S   S488      1.0  0.51280  0.62747  0.77294  1.0000
  H   H2875     1.0  0.60991  0.68613  0.83078  1.0000
  C   C3579     1.0  0.69504  0.65114  0.72244  1.0000
  Fe  Fe248     1.0  0.53099  0.59973  0.69149  1.0000
  Fe  Fe249     1.0  0.51498  0.61997  0.65911  1.0000
  S   S489      1.0  0.51460  0.63717  0.62134  1.0000
  H   H2876     1.0  0.64434  0.78446  0.76813  1.0000
  S   S490      1.0  0.49395  0.61183  0.69029  1.0000
  C   C3580     1.0  0.71980  0.65702  0.69599  1.0000
  S   S491      1.0  0.72457  0.63699  0.52883  1.0000
  Fe  Fe250     1.0  0.80831  0.74017  0.62073  1.0000
  S   S492      1.0  0.79079  0.72911  0.65663  1.0000
  S   S493      1.0  0.83054  0.73326  0.61575  1.0000
  Fe  Fe251     1.0  0.78385  0.75233  0.58973  1.0000
  S   S494      1.0  0.76458  0.74191  0.62338  1.0000
  S   S495      1.0  0.78379  0.76574  0.54677  1.0000
  Fe  Fe252     1.0  0.78576  0.75191  0.65792  1.0000
  S   S496      1.0  0.78438  0.76041  0.70598  1.0000
  Fe  Fe253     1.0  0.77051  0.71971  0.62087  1.0000
  S   S497      1.0  0.75123  0.69413  0.62827  1.0000
  S   S498      1.0  0.80502  0.76388  0.62443  1.0000
  S   S499      1.0  0.78805  0.72919  0.58470  1.0000
  C   C3581     1.0  0.62120  0.62507  0.85689  1.0000
  C   C3582     1.0  0.76737  0.64151  0.52302  1.0000
  Fe  Fe254     1.0  0.70083  0.77537  0.85820  1.0000
  S   S500      1.0  0.67343  0.76007  0.84703  1.0000
  C   C3583     1.0  0.50150  0.65483  0.67968  1.0000
  C   C3584     1.0  0.55705  0.59982  0.84236  1.0000
  S   S501      1.0  0.72044  0.76619  0.84997  1.0000
  Fe  Fe255     1.0  0.56321  0.70052  0.89634  1.0000
  S   S502      1.0  0.57771  0.69058  0.92622  1.0000
  S   S503      1.0  0.55876  0.69327  0.84650  1.0000
  Fe  Fe256     1.0  0.56594  0.72745  0.94234  1.0000
  H   H2877     1.0  0.92381  0.69484  0.56139  1.0000
  S   S504      1.0  0.56374  0.75058  0.96118  1.0000
  Fe  Fe257     1.0  0.59466  0.71677  0.93638  1.0000
  S   S505      1.0  0.62236  0.72519  0.94477  1.0000
  C   C3585     1.0  0.56943  0.71383  0.76513  1.0000
  S   S506      1.0  0.56126  0.68470  0.52602  1.0000
  S   S507      1.0  0.58136  0.72684  0.90466  1.0000
  S   S508      1.0  0.54672  0.70149  0.93269  1.0000
  C   C3586     1.0  0.56383  0.76890  0.94555  1.0000
  H   H2878     1.0  0.56256  0.74522  0.73477  1.0000
  C   C3587     1.0  0.55769  0.76923  0.91654  1.0000
  H   H2879     1.0  0.58419  0.70209  0.69322  1.0000
  H   H2880     1.0  0.55314  0.75821  0.90255  1.0000
  C   C3588     1.0  0.65940  0.75084  0.87472  1.0000
  C   C3589     1.0  0.64241  0.74337  0.86675  1.0000
  C   C3590     1.0  0.63090  0.73576  0.88806  1.0000
  C   C3591     1.0  0.63632  0.73521  0.91746  1.0000
  C   C3592     1.0  0.65330  0.74260  0.92540  1.0000
  C   C3593     1.0  0.66479  0.75053  0.90423  1.0000
  H   H2881     1.0  0.63814  0.74336  0.84395  1.0000
  H   H2882     1.0  0.61787  0.73008  0.88166  1.0000
  H   H2883     1.0  0.65762  0.74221  0.94807  1.0000
  H   H2884     1.0  0.67783  0.75613  0.91063  1.0000
  C   C3594     1.0  0.76879  0.76947  0.52393  1.0000
  C   C3595     1.0  0.75270  0.76548  0.53231  1.0000
  C   C3596     1.0  0.52480  0.67269  0.72475  1.0000
  C   C3597     1.0  0.75160  0.76852  0.96028  1.0000
  C   C3598     1.0  0.72487  0.72737  0.57870  1.0000
  H   H2885     1.0  0.58947  0.68874  0.86361  1.0000
  H   H2886     1.0  0.74925  0.76046  0.55378  1.0000
  Fe  Fe258     1.0  0.56358  0.70068  0.48470  1.0000
  C   C3599     1.0  0.85415  0.63733  0.66337  1.0000
  C   C3600     1.0  0.77172  0.76811  0.72553  1.0000
  H   H2887     1.0  0.75923  0.64756  0.52680  1.0000
  H   H2888     1.0  0.69732  0.65658  0.58922  1.0000
  C   C3601     1.0  0.95907  0.70511  0.51761  1.0000
  C   C3602     1.0  0.76191  0.77329  0.77317  1.0000
  C   C3603     1.0  0.77125  0.76690  0.75660  1.0000
  C   C3604     1.0  0.64634  0.59259  0.72306  1.0000
  H   H2889     1.0  0.71263  0.68494  0.53922  1.0000
  H   H2890     1.0  0.91380  0.67320  0.52115  1.0000
  C   C3605     1.0  0.73289  0.65247  0.55714  1.0000
  C   C3606     1.0  0.73001  0.64919  0.58698  1.0000
  C   C3607     1.0  0.73595  0.66208  0.60856  1.0000
  C   C3608     1.0  0.74506  0.67824  0.60064  1.0000
  C   C3609     1.0  0.74837  0.68144  0.57092  1.0000
  C   C3610     1.0  0.74227  0.66860  0.54928  1.0000
  H   H2891     1.0  0.72285  0.63681  0.59331  1.0000
  H   H2892     1.0  0.73349  0.65952  0.63150  1.0000
  H   H2893     1.0  0.75531  0.69385  0.56457  1.0000
  H   H2894     1.0  0.74481  0.67118  0.52633  1.0000
  C   C3611     1.0  0.52637  0.64544  0.79344  1.0000
  C   C3612     1.0  0.54137  0.65620  0.78302  1.0000
  C   C3613     1.0  0.55133  0.67055  0.79989  1.0000
  C   C3614     1.0  0.54649  0.67432  0.82734  1.0000
  C   C3615     1.0  0.53165  0.66343  0.83789  1.0000
  C   C3616     1.0  0.52167  0.64913  0.82100  1.0000
  H   H2895     1.0  0.54513  0.65359  0.76180  1.0000
  H   H2896     1.0  0.56288  0.67879  0.79171  1.0000
  H   H2897     1.0  0.52760  0.66633  0.85859  1.0000
  H   H2898     1.0  0.50999  0.64101  0.82903  1.0000
  C   C3617     1.0  0.52801  0.65045  0.59540  1.0000
  C   C3618     1.0  0.52277  0.66110  0.57950  1.0000
  C   C3619     1.0  0.53269  0.67166  0.55848  1.0000
  C   C3620     1.0  0.54812  0.67178  0.55278  1.0000
  C   C3621     1.0  0.55345  0.66126  0.56896  1.0000
  C   C3622     1.0  0.54348  0.65063  0.58989  1.0000
  H   H2899     1.0  0.51092  0.66126  0.58357  1.0000
  H   H2900     1.0  0.52854  0.67998  0.54726  1.0000
  H   H2901     1.0  0.56534  0.66118  0.56499  1.0000
  H   H2902     1.0  0.54767  0.64240  0.60141  1.0000
  C   C3623     1.0  0.88783  0.75627  0.62246  1.0000
  C   C3624     1.0  0.87908  0.76631  0.62500  1.0000
  C   C3625     1.0  0.86161  0.75960  0.62351  1.0000
  C   C3626     1.0  0.85262  0.74273  0.61876  1.0000
  C   C3627     1.0  0.86138  0.73277  0.61578  1.0000
  C   C3628     1.0  0.87880  0.73939  0.61846  1.0000
  H   H2903     1.0  0.88587  0.77938  0.62821  1.0000
  H   H2904     1.0  0.85515  0.76750  0.62567  1.0000
  H   H2905     1.0  0.85461  0.71981  0.61134  1.0000
  H   H2906     1.0  0.88529  0.73148  0.61706  1.0000
  C   C3629     1.0  0.85799  0.65063  0.53256  1.0000
  H   H2907     1.0  0.72595  0.71503  0.61879  1.0000
  H   H2908     1.0  0.88448  0.69496  0.64547  1.0000
  C   C3630     1.0  0.77542  0.66558  0.62078  1.0000
  C   C3631     1.0  0.69164  0.64504  0.59997  1.0000
  H   H2909     1.0  0.71780  0.68804  0.59334  1.0000
  C   C3632     1.0  0.71615  0.69691  0.54969  1.0000
  C   C3633     1.0  0.89864  0.65433  0.54913  1.0000
  C   C3634     1.0  0.89353  0.65072  0.57795  1.0000
  C   C3635     1.0  0.89963  0.66288  0.60083  1.0000
  C   C3636     1.0  0.91057  0.67886  0.59501  1.0000
  C   C3637     1.0  0.91567  0.68249  0.56621  1.0000
  C   C3638     1.0  0.90980  0.67025  0.54339  1.0000
  H   H2910     1.0  0.88487  0.63857  0.58265  1.0000
  H   H2911     1.0  0.89580  0.65989  0.62314  1.0000
  H   H2912     1.0  0.72841  0.73920  0.58988  1.0000
  H   H2913     1.0  0.78414  0.68209  0.65909  1.0000
  C   C3639     1.0  0.84299  0.68588  0.54408  1.0000
  C   C3640     1.0  0.52851  0.67580  0.69493  1.0000
  C   C3641     1.0  0.95629  0.67737  0.50793  1.0000
  H   H2914     1.0  0.92370  0.64611  0.50730  1.0000
  C   C3642     1.0  0.81943  0.68709  0.50193  1.0000
  C   C3643     1.0  0.58684  0.65003  0.94295  1.0000
  H   H2915     1.0  0.54284  0.65821  0.66156  1.0000
  H   H2916     1.0  0.83592  0.62865  0.93333  1.0000
  C   C3644     1.0  0.86130  0.69730  0.64752  1.0000
  C   C3645     1.0  0.80478  0.63697  0.59680  1.0000
  C   C3646     1.0  0.53004  0.62435  0.88586  1.0000
  H   H2917     1.0  0.83862  0.61145  0.60272  1.0000
  H   H2918     1.0  0.95915  0.76310  0.78734  1.0000
  C   C3647     1.0  0.97413  0.59872  0.84612  1.0000
  C   C3648     1.0  0.73274  0.60401  0.68719  1.0000
  H   H2919     1.0  0.57092  0.64746  0.77419  1.0000
  C   C3649     1.0  0.72726  0.67226  0.71093  1.0000
  C   C3650     1.0  0.58027  0.63169  0.71243  1.0000
  C   C3651     1.0  0.67569  0.60126  0.71794  1.0000
  H   H2920     1.0  0.60772  0.68580  0.98303  1.0000
  H   H2921     1.0  0.59971  0.75761  0.96364  1.0000
  C   C3652     1.0  0.84103  0.64142  0.57487  1.0000
  C   C3653     1.0  0.55678  0.78367  0.90600  1.0000
  C   C3654     1.0  0.88594  0.70859  0.56208  1.0000
  H   H2922     1.0  0.62309  0.69267  0.93741  1.0000
  H   H2923     1.0  0.51958  0.71515  0.61743  1.0000
  C   C3655     1.0  0.94365  0.63912  0.52023  1.0000
  C   C3656     1.0  0.67569  0.61346  0.69875  1.0000
  C   C3657     1.0  0.71213  0.60994  0.65869  1.0000
  H   H2924     1.0  0.54614  0.61224  0.89363  1.0000
  H   H2925     1.0  0.93771  0.76211  0.74978  1.0000
  C   C3658     1.0  0.72924  0.77324  0.63282  1.0000
  H   H2926     1.0  0.80715  0.70268  0.63385  1.0000
  S   S509      1.0  0.58053  0.71888  0.97481  1.0000
  H   H2927     1.0  0.57346  0.73796  0.78150  1.0000
  P   P118      1.0  0.54826  0.69091  0.68516  1.0000
  H   H2928     1.0  0.92472  0.75557  0.85585  1.0000
  H   H2929     1.0  0.83693  0.60498  0.90600  1.0000
  H   H2930     1.0  0.56461  0.66431  0.87440  1.0000
  H   H2931     1.0  0.96203  0.63691  0.59698  1.0000
  H   H2932     1.0  0.86405  0.66295  0.57511  1.0000
  C   C3659     1.0  0.72217  0.72579  0.54784  1.0000
  C   C3660     1.0  0.49545  0.60904  0.55557  1.0000
  C   C3661     1.0  0.83449  0.66509  0.98247  1.0000
  C   C3662     1.0  0.51666  0.66680  0.67248  1.0000
  H   H2933     1.0  0.63942  0.76365  0.80635  1.0000
  C   C3663     1.0  0.63574  0.77371  0.80972  1.0000
  C   C3664     1.0  0.53561  0.64868  0.91637  1.0000
  C   C3665     1.0  0.73032  0.61210  0.71207  1.0000
  C   C3666     1.0  0.71874  0.67689  0.73192  1.0000
  H   H2934     1.0  0.59202  0.66081  0.65974  1.0000
  H   H2935     1.0  0.72102  0.75954  0.73326  1.0000
  C   C3667     1.0  0.66107  0.59097  0.73020  1.0000
  H   H2936     1.0  0.66588  0.60532  0.58415  1.0000
  H   H2937     1.0  0.91841  0.62659  0.55605  1.0000
  H   H2938     1.0  0.55889  0.78336  0.82435  1.0000
  C   C3668     1.0  0.54323  0.62228  0.90068  1.0000
  H   H2939     1.0  0.70390  0.65484  0.64218  1.0000
  S   S510      1.0  0.55170  0.59115  0.68848  1.0000
  H   H2940     1.0  0.73270  0.68782  0.49955  1.0000
  C   C3669     1.0  0.59921  0.67535  0.83587  1.0000
  C   C3670     1.0  0.83043  0.61666  0.94247  1.0000
  C   C3671     1.0  0.51498  0.67231  0.48912  1.0000
  H   H2941     1.0  0.57930  0.63212  0.68848  1.0000
  H   H2942     1.0  0.73278  0.78318  0.61761  1.0000
  C   C3672     1.0  0.91224  0.62758  0.60081  1.0000
  H   H2943     1.0  0.72341  0.73642  0.53538  1.0000
  C   C3673     1.0  0.84644  0.63167  0.63504  1.0000
  H   H2944     1.0  0.75024  0.74393  0.96172  1.0000
  H   H2945     1.0  0.56487  0.69623  0.62831  1.0000
  C   C3674     1.0  0.88904  0.69738  0.54431  1.0000
  C   C3675     1.0  0.88131  0.76919  0.52761  1.0000
  C   C3676     1.0  0.55681  0.72186  0.71266  1.0000
  C   C3677     1.0  0.68866  0.68239  0.66775  1.0000
  C   C3678     1.0  0.68255  0.68355  0.63918  1.0000
  C   C3679     1.0  0.68531  0.69889  0.62814  1.0000
  C   C3680     1.0  0.69433  0.71310  0.64551  1.0000
  C   C3681     1.0  0.70071  0.71204  0.67413  1.0000
  C   C3682     1.0  0.69763  0.69657  0.68519  1.0000
  P   P119      1.0  0.71369  0.73020  0.69602  1.0000
  C   C3683     1.0  0.73123  0.72660  0.71060  1.0000
  C   C3684     1.0  0.72020  0.74751  0.67229  1.0000
  C   C3685     1.0  0.73549  0.75295  0.65947  1.0000
  C   C3686     1.0  0.73994  0.76571  0.63969  1.0000
  C   C3687     1.0  0.77692  0.77358  0.87569  1.0000
  C   C3688     1.0  0.56202  0.68094  0.67918  1.0000
  C   C3689     1.0  0.70954  0.75523  0.66547  1.0000
  C   C3690     1.0  0.73886  0.71923  0.69226  1.0000
  C   C3691     1.0  0.75241  0.71638  0.70321  1.0000
  C   C3692     1.0  0.75828  0.72056  0.73272  1.0000
  C   C3693     1.0  0.75050  0.72748  0.75137  1.0000
  C   C3694     1.0  0.73712  0.73063  0.74036  1.0000
  C   C3695     1.0  0.70313  0.73451  0.72612  1.0000
  C   C3696     1.0  0.68868  0.72244  0.73622  1.0000
  C   C3697     1.0  0.68116  0.72589  0.76048  1.0000
  C   C3698     1.0  0.68801  0.74135  0.77479  1.0000
  C   C3699     1.0  0.70230  0.75344  0.76469  1.0000
  C   C3700     1.0  0.70980  0.75007  0.74043  1.0000
  H   H2946     1.0  0.68657  0.67051  0.67627  1.0000
  H   H2947     1.0  0.67571  0.67257  0.62557  1.0000
  H   H2948     1.0  0.68066  0.69981  0.60591  1.0000
  H   H2949     1.0  0.69654  0.72480  0.63617  1.0000
  H   H2950     1.0  0.70244  0.69554  0.70717  1.0000
  H   H2951     1.0  0.74418  0.74765  0.66516  1.0000
  H   H2952     1.0  0.76998  0.76315  0.88862  1.0000
  C   C3701     1.0  0.84775  0.69228  0.51634  1.0000
  S   S511      1.0  0.96598  0.75054  0.53520  1.0000
  H   H2953     1.0  0.69768  0.75126  0.67516  1.0000
  H   H2954     1.0  0.73460  0.71594  0.66928  1.0000
  H   H2955     1.0  0.75857  0.71123  0.68859  1.0000
  H   H2956     1.0  0.76911  0.71884  0.74091  1.0000
  H   H2957     1.0  0.75524  0.73101  0.77412  1.0000
  H   H2958     1.0  0.73171  0.73649  0.75510  1.0000
  H   H2959     1.0  0.68326  0.71037  0.72566  1.0000
  H   H2960     1.0  0.67011  0.71656  0.76847  1.0000
  H   H2961     1.0  0.82359  0.66743  0.62834  1.0000
  C   C3702     1.0  0.87810  0.75257  0.52340  1.0000
  H   H2962     1.0  0.60338  0.60306  0.90599  1.0000
  H   H2963     1.0  0.86694  0.70989  0.65596  1.0000
  H   H2964     1.0  0.94650  0.77039  0.90302  1.0000
  C   C3703     1.0  0.56906  0.72923  0.76281  1.0000
  C   C3704     1.0  0.54885  0.64669  0.93105  1.0000
  H   H2965     1.0  0.68235  0.74399  0.79388  1.0000
  C   C3705     1.0  0.60914  0.76395  0.94847  1.0000
  C   C3706     1.0  0.56014  0.59779  0.92948  1.0000
  H   H2966     1.0  0.53275  0.65899  0.92240  1.0000
  C   C3707     1.0  0.50960  0.66075  0.73185  1.0000
  C   C3708     1.0  0.72341  0.71377  0.59500  1.0000
  C   C3709     1.0  0.71818  0.71067  0.53300  1.0000
  H   H2967     1.0  0.54649  0.75303  0.82502  1.0000
  S   S512      1.0  0.86425  0.60296  0.57018  1.0000
  H   H2968     1.0  0.66591  0.78739  0.84576  1.0000
  C   C3710     1.0  0.58772  0.67683  0.85444  1.0000
  C   C3711     1.0  0.78268  0.68198  0.51557  1.0000
  P   P120      1.0  0.71563  0.70943  0.49296  1.0000
  H   H2969     1.0  0.84581  0.76551  0.55875  1.0000
  C   C3712     1.0  0.71885  0.69853  0.58057  1.0000
  C   C3713     1.0  0.58873  0.61522  0.92272  1.0000
  H   H2970     1.0  0.51572  0.63885  0.88288  1.0000
  H   H2971     1.0  0.72463  0.68867  0.74367  1.0000
  C   C3714     1.0  0.85466  0.76195  0.54822  1.0000
  C   C3715     1.0  0.85109  0.74541  0.54293  1.0000
  H   H2972     1.0  0.65824  0.70513  0.48809  1.0000
  H   H2973     1.0  0.90083  0.61673  0.59768  1.0000
  C   C3716     1.0  0.86391  0.67261  0.63129  1.0000
  H   H2974     1.0  0.93512  0.72979  0.95987  1.0000
  H   H2975     1.0  0.87904  0.66866  0.97330  1.0000
  H   H2976     1.0  0.88779  0.68580  0.55313  1.0000
  C   C3717     1.0  0.79907  0.69147  0.62196  1.0000
  C   C3718     1.0  0.78612  0.67984  0.63626  1.0000
  C   C3719     1.0  0.94560  0.62074  0.66411  1.0000
  C   C3720     1.0  0.86265  0.74072  0.53023  1.0000
  H   H2977     1.0  0.90831  0.63198  0.64618  1.0000
  H   H2978     1.0  0.58845  0.76044  0.53070  1.0000
  H   H2979     1.0  0.70520  0.60877  0.63781  1.0000
  H   H2980     1.0  0.52444  0.70407  0.66505  1.0000
  C   C3721     1.0  0.58088  0.62893  0.77430  1.0000
  C   C3722     1.0  0.78794  0.62542  0.51258  1.0000
  C   C3723     1.0  0.95070  0.74987  0.88502  1.0000
  C   C3724     1.0  0.93488  0.76063  0.77296  1.0000
  H   H2981     1.0  0.58923  0.61266  0.71154  1.0000
  H   H2982     1.0  0.81119  0.69838  0.58140  1.0000
  C   C3725     1.0  0.59125  0.60167  0.91216  1.0000
  C   C3726     1.0  0.93998  0.75085  0.93334  1.0000
  C   C3727     1.0  0.56671  0.65777  0.65983  1.0000
  C   C3728     1.0  0.84418  0.68953  0.64233  1.0000
  H   H2983     1.0  0.82291  0.67477  0.57207  1.0000
  H   H2984     1.0  0.57049  0.64980  0.72020  1.0000
  H   H2985     1.0  0.63473  0.60576  0.69825  1.0000
  H   H2986     1.0  0.78911  0.70237  0.54712  1.0000
  H   H2987     1.0  0.93450  0.65674  0.65341  1.0000
  C   C3729     1.0  0.91651  0.63612  0.62819  1.0000
  C   C3730     1.0  0.87116  0.68889  0.64173  1.0000
  H   H2988     1.0  0.93285  0.59990  0.63486  1.0000
  H   H2989     1.0  0.67284  0.60308  0.63684  1.0000
  C   C3731     1.0  0.92240  0.63325  0.57713  1.0000
  C   C3732     1.0  0.93908  0.73519  0.93871  1.0000
  C   C3733     1.0  0.94345  0.75911  0.82441  1.0000
  C   C3734     1.0  0.94971  0.73410  0.89059  1.0000
  C   C3735     1.0  0.58288  0.64605  0.83025  1.0000
  C   C3736     1.0  0.80129  0.68893  0.59214  1.0000
  C   C3737     1.0  0.55591  0.66500  0.66664  1.0000
  C   C3738     1.0  0.54519  0.69957  0.65060  1.0000
  C   C3739     1.0  0.97363  0.61441  0.65736  1.0000
  C   C3740     1.0  0.95337  0.67378  0.53791  1.0000
  C   C3741     1.0  0.94388  0.72680  0.91730  1.0000
  C   C3742     1.0  0.63856  0.78546  0.78824  1.0000
  H   H2990     1.0  0.76795  0.61285  0.62356  1.0000
  C   C3743     1.0  0.58426  0.76050  0.85779  1.0000
  C   C3744     1.0  0.71875  0.61905  0.71032  1.0000
  C   C3745     1.0  0.94176  0.65538  0.60891  1.0000
  H   H2991     1.0  0.85210  0.68541  0.56044  1.0000
  Fe  Fe259     1.0  0.71304  0.60964  0.53635  1.0000
  H   H2992     1.0  0.88524  0.73226  0.56476  1.0000
  C   C3746     1.0  0.93125  0.65003  0.63223  1.0000
  H   H2993     1.0  0.77817  0.76092  0.76794  1.0000
  H   H2994     1.0  0.79258  0.59401  0.58690  1.0000
  H   H2995     1.0  0.53352  0.67925  0.74275  1.0000
  C   C3747     1.0  0.56287  0.73328  0.73652  1.0000
  C   C3748     1.0  0.57913  0.68959  0.68449  1.0000
  C   C3749     1.0  0.88726  0.72346  0.55068  1.0000
  S   S513      1.0  0.88670  0.59455  0.52240  1.0000
  H   H2996     1.0  0.61063  0.64259  0.85242  1.0000
  H   H2997     1.0  0.93667  0.75748  0.95036  1.0000
  H   H2998     1.0  0.84492  0.69139  0.98084  1.0000
  H   H2999     1.0  0.94340  0.71475  0.92173  1.0000
  C   C3750     1.0  0.58613  0.61923  0.75624  1.0000
  C   C3751     1.0  0.91918  0.75829  0.78145  1.0000
  H   H3000     1.0  0.56738  0.59968  0.85584  1.0000
  H   H3001     1.0  0.82493  0.61498  0.51499  1.0000
  C   C3752     1.0  0.79054  0.67463  0.57631  1.0000
  H   H3002     1.0  0.56384  0.69053  0.74338  1.0000
  C   C3753     1.0  0.78295  0.69695  0.52597  1.0000
  H   H3003     1.0  0.76513  0.65675  0.63167  1.0000
  H   H3004     1.0  0.53398  0.64408  0.51138  1.0000
  S   S514      1.0  0.51164  0.59066  0.72460  1.0000
  H   H3005     1.0  0.56184  0.64545  0.65014  1.0000
  C   C3754     1.0  0.94326  0.77178  0.51023  1.0000
  H   H3006     1.0  0.54811  0.59602  0.93681  1.0000
  H   H3007     1.0  0.76356  0.58903  0.57168  1.0000
  C   C3755     1.0  0.49618  0.68574  0.49224  1.0000
  H   H3008     1.0  0.96121  0.64083  0.69337  1.0000
  H   H3009     1.0  0.97240  0.59993  0.56337  1.0000
  H   H3010     1.0  0.76858  0.65225  0.57923  1.0000
  C   C3756     1.0  0.59538  0.61975  0.82863  1.0000
  H   H3011     1.0  0.54685  0.62046  0.78743  1.0000
  C   C3757     1.0  0.57297  0.61349  0.93053  1.0000
  C   C3758     1.0  0.92702  0.76169  0.50084  1.0000
  H   H3012     1.0  0.96752  0.60458  0.85799  1.0000
  C   C3759     1.0  0.67405  0.61615  0.59699  1.0000
  C   C3760     1.0  0.96337  0.73548  0.81865  1.0000
  C   C3761     1.0  0.77749  0.66305  0.59088  1.0000
  C   C3762     1.0  0.57547  0.64013  0.76098  1.0000
  H   H3013     1.0  0.83947  0.73624  0.54940  1.0000
  C   C3763     1.0  0.58589  0.62070  0.72547  1.0000
  C   C3764     1.0  0.94699  0.76111  0.79434  1.0000
  H   H3014     1.0  0.73972  0.68043  0.70627  1.0000
  H   H3015     1.0  0.62561  0.76538  0.85158  1.0000
  C   C3765     1.0  0.52608  0.63739  0.89405  1.0000
  C   C3766     1.0  0.91751  0.76873  0.54626  1.0000
  H   H3016     1.0  0.90981  0.75794  0.76480  1.0000
  C   C3767     1.0  0.86076  0.62804  0.67984  1.0000
  H   H3017     1.0  0.63184  0.63331  0.87035  1.0000
  C   C3768     1.0  0.52956  0.71116  0.62012  1.0000
  C   C3769     1.0  0.70953  0.61800  0.68361  1.0000
  C   C3770     1.0  0.94565  0.75813  0.90657  1.0000
  C   C3771     1.0  0.83081  0.60324  0.92666  1.0000
  C   C3772     1.0  0.57520  0.64151  0.73022  1.0000
  H   H3018     1.0  0.95003  0.72951  0.81685  1.0000
  C   C3773     1.0  0.83312  0.62580  0.52785  1.0000
  C   C3774     1.0  0.91560  0.75648  0.81136  1.0000
  C   C3775     1.0  0.52980  0.59978  0.80866  1.0000
  C   C3776     1.0  0.92770  0.75694  0.83283  1.0000
  H   H3019     1.0  0.58988  0.61012  0.76543  1.0000
  C   C3777     1.0  0.80888  0.62464  0.64213  1.0000
  C   C3778     1.0  0.94478  0.61669  0.49060  1.0000
  C   C3779     1.0  0.60911  0.63032  0.84643  1.0000
  C   C3780     1.0  0.85137  0.60700  0.64072  1.0000
  P   P121      1.0  0.79299  0.67171  0.53733  1.0000
  C   C3781     1.0  0.95341  0.68615  0.55755  1.0000
  Fe  Fe260     1.0  0.73326  0.78042  0.89244  1.0000
  C   C3782     1.0  0.93727  0.64728  0.58087  1.0000
  H   H3020     1.0  0.52293  0.61593  0.86785  1.0000
  C   C3783     1.0  0.97129  0.65564  0.56458  1.0000
  C   C3784     1.0  0.76299  0.77623  0.71140  1.0000
  H   H3021     1.0  0.68678  0.59935  0.72307  1.0000
  H   H3022     1.0  0.51924  0.59985  0.79561  1.0000
  C   C3785     1.0  0.50038  0.62703  0.50379  1.0000
  C   C3786     1.0  0.94464  0.60760  0.64580  1.0000
  H   H3023     1.0  0.78560  0.77960  0.48942  1.0000
  C   C3787     1.0  0.59526  0.65430  0.91674  1.0000
  H   H3024     1.0  0.68012  0.69529  0.50002  1.0000
  C   C3788     1.0  0.59679  0.66002  0.82371  1.0000
  H   H3025     1.0  0.80808  0.64836  0.52337  1.0000
  C   C3789     1.0  0.74962  0.72852  0.49407  1.0000
  C   C3790     1.0  0.56944  0.78340  0.96345  1.0000
  C   C3791     1.0  0.49798  0.65178  0.70935  1.0000
  H   H3026     1.0  0.77947  0.63042  0.58144  1.0000
  H   H3027     1.0  0.93463  0.62293  0.66724  1.0000
  H   H3028     1.0  0.85014  0.59517  0.63199  1.0000
  C   C3792     1.0  0.81453  0.68054  0.52968  1.0000
  C   C3793     1.0  0.56820  0.75164  0.84584  1.0000
  H   H3029     1.0  0.95338  0.66584  0.61285  1.0000
  H   H3030     1.0  0.86911  0.65907  0.52314  1.0000
  C   C3794     1.0  0.55938  0.61147  0.82058  1.0000
  C   C3795     1.0  0.77317  0.77637  0.49611  1.0000
  H   H3031     1.0  0.95666  0.66827  0.49226  1.0000
  C   C3796     1.0  0.78120  0.61909  0.62236  1.0000
  C   C3797     1.0  0.54557  0.61148  0.80403  1.0000
  H   H3032     1.0  0.81940  0.61878  0.56667  1.0000
  C   C3798     1.0  0.82643  0.67994  0.55069  1.0000
  C   C3799     1.0  0.53238  0.70493  0.64707  1.0000
  C   C3800     1.0  0.55258  0.63331  0.92377  1.0000
  C   C3801     1.0  0.81551  0.63456  0.61817  1.0000
  S   S515      1.0  0.71343  0.59392  0.49724  1.0000
  P   P122      1.0  0.83751  0.64334  0.61368  1.0000
  P   P123      1.0  0.95118  0.65395  0.55098  1.0000
  H   H3033     1.0  0.56003  0.63735  0.85262  1.0000
  C   C3802     1.0  0.57120  0.64772  0.84833  1.0000
  C   C3803     1.0  0.57373  0.66303  0.86065  1.0000
  C   C3804     1.0  0.83687  0.67321  0.63187  1.0000
  S   S516      1.0  0.72229  0.59638  0.56947  1.0000
  C   C3805     1.0  0.96056  0.63078  0.67889  1.0000
  H   H3034     1.0  0.97021  0.77957  0.72177  1.0000
  H   H3035     1.0  0.80965  0.64459  0.57826  1.0000
  H   H3036     1.0  0.67845  0.63190  0.55989  1.0000
  H   H3037     1.0  0.97124  0.74835  0.96381  1.0000
  C   C3806     1.0  0.60591  0.59855  0.83272  1.0000
  C   C3807     1.0  0.97734  0.59105  0.60553  1.0000
  C   C3808     1.0  0.66085  0.61517  0.69203  1.0000
  C   C3809     1.0  0.79178  0.61697  0.64420  1.0000
  H   H3038     1.0  0.74152  0.59842  0.68861  1.0000
  P   P124      1.0  0.57980  0.62639  0.81390  1.0000
  H   H3039     1.0  0.60570  0.65905  0.80906  1.0000
  H   H3040     1.0  0.49268  0.64759  0.66214  1.0000
  Fe  Fe261     1.0  0.56262  0.69308  0.96351  1.0000
  C   C3810     1.0  0.60452  0.67677  0.96492  1.0000
  H   H3041     1.0  0.49400  0.60247  0.57597  1.0000
  H   H3042     1.0  0.87244  0.78666  0.54445  1.0000
  H   H3043     1.0  0.55194  0.72522  0.69268  1.0000
  C   C3811     1.0  0.62819  0.77490  0.83562  1.0000
  H   H3044     1.0  0.59148  0.64597  0.89754  1.0000
  C   C3812     1.0  0.81550  0.59869  0.98045  1.0000
  C   C3813     1.0  0.55902  0.75987  0.83392  1.0000
  P   P125      1.0  0.95941  0.76013  0.85171  1.0000
  H   H3045     1.0  0.56287  0.73838  0.84599  1.0000
  H   H3046     1.0  0.73730  0.61285  0.73280  1.0000
  H   H3047     1.0  0.85962  0.72786  0.52636  1.0000
  C   C3814     1.0  0.68104  0.63114  0.58340  1.0000
  H   H3048     1.0  0.53718  0.71666  0.57545  1.0000
  C   C3815     1.0  0.60849  0.66948  0.91498  1.0000
  H   H3049     1.0  0.70773  0.76539  0.77597  1.0000
  C   C3816     1.0  0.68882  0.62880  0.64369  1.0000
  H   H3050     1.0  0.77551  0.71665  0.51746  1.0000
  C   C3817     1.0  0.49358  0.63138  0.52826  1.0000
  H   H3051     1.0  0.48641  0.62611  0.57320  1.0000
  H   H3052     1.0  0.90344  0.75474  0.81789  1.0000
  H   H3053     1.0  0.61493  0.67276  0.89472  1.0000
  C   C3818     1.0  0.78770  0.62908  0.59867  1.0000
  C   C3819     1.0  0.85506  0.65274  0.56219  1.0000
  C   C3820     1.0  0.97136  0.75042  0.83476  1.0000
  C   C3821     1.0  0.72365  0.60295  0.66054  1.0000
  C   C3822     1.0  0.78451  0.65023  0.52637  1.0000
  C   C3823     1.0  0.64623  0.60471  0.70404  1.0000
  C   C3824     1.0  0.85943  0.61291  0.66846  1.0000
  H   H3054     1.0  0.85501  0.64883  0.67296  1.0000
  H   H3055     1.0  0.72876  0.76516  0.51972  1.0000
  H   H3056     1.0  0.87176  0.66624  0.62732  1.0000
  C   C3825     1.0  0.55698  0.70628  0.71492  1.0000
  C   C3826     1.0  0.84711  0.63711  0.51548  1.0000
  C   C3827     1.0  0.58369  0.66641  0.66530  1.0000
  C   C3828     1.0  0.70265  0.66632  0.73773  1.0000
  H   H3057     1.0  0.86687  0.63254  0.70151  1.0000
  H   H3058     1.0  0.72522  0.59641  0.64131  1.0000
  C   C3829     1.0  0.79480  0.64205  0.52109  1.0000
  C   C3830     1.0  0.83006  0.62797  0.55734  1.0000
  H   H3059     1.0  0.83661  0.69622  0.64649  1.0000
  H   H3060     1.0  0.88283  0.70592  0.58488  1.0000
  H   H3061     1.0  0.48638  0.64224  0.71495  1.0000
  C   C3831     1.0  0.93377  0.77875  0.55567  1.0000
  H   H3062     1.0  0.72672  0.65348  0.68027  1.0000
  H   H3063     1.0  0.81682  0.62255  0.65898  1.0000
  H   H3064     1.0  0.86452  0.60568  0.68120  1.0000
  H   H3065     1.0  0.55604  0.65548  0.94842  1.0000
  C   C3832     1.0  0.56600  0.77695  0.83356  1.0000
  P   P126      1.0  0.69431  0.62667  0.68200  1.0000
  H   H3066     1.0  0.78071  0.75911  0.84064  1.0000
  H   H3067     1.0  0.59140  0.75398  0.86625  1.0000
  C   C3833     1.0  0.84669  0.66457  0.62650  1.0000
  C   C3834     1.0  0.84490  0.61633  0.62407  1.0000
  C   C3835     1.0  0.59634  0.76908  0.51567  1.0000
  H   H3068     1.0  0.70581  0.77398  0.64064  1.0000
  C   C3836     1.0  0.78112  0.63529  0.95049  1.0000
  C   C3837     1.0  0.86653  0.66769  0.97508  1.0000
  C   C3838     1.0  0.75402  0.78303  0.72805  1.0000
  H   H3069     1.0  0.60308  0.68907  0.68171  1.0000
  C   C3839     1.0  0.59110  0.77765  0.85872  1.0000
  C   C3840     1.0  0.91398  0.76035  0.51856  1.0000
  C   C3841     1.0  0.70357  0.64641  0.70133  1.0000
  H   H3070     1.0  0.68263  0.64310  0.72743  1.0000
  C   C3842     1.0  0.76057  0.62496  0.51433  1.0000
  H   H3071     1.0  0.69609  0.66986  0.75420  1.0000
  S   S517      1.0  0.74283  0.76552  0.92314  1.0000
  C   C3843     1.0  0.75402  0.75552  0.97384  1.0000
  H   H3072     1.0  0.57395  0.71057  0.78574  1.0000
  C   C3844     1.0  0.67796  0.61494  0.62695  1.0000
  C   C3845     1.0  0.55222  0.70673  0.59978  1.0000
  H   H3073     1.0  0.90779  0.76726  0.56100  1.0000
  C   C3846     1.0  0.71406  0.76805  0.64581  1.0000
  H   H3074     1.0  0.49406  0.69660  0.49727  1.0000
  C   C3847     1.0  0.56360  0.70247  0.74118  1.0000
  C   C3848     1.0  0.75344  0.78167  0.75908  1.0000
  H   H3075     1.0  0.75014  0.72643  0.51757  1.0000
  H   H3076     1.0  0.78674  0.60911  0.66245  1.0000
  C   C3849     1.0  0.60957  0.76666  0.50427  1.0000
  C   C3850     1.0  0.69547  0.64393  0.63006  1.0000
  H   H3077     1.0  0.64287  0.78652  0.89423  1.0000
  C   C3851     1.0  0.76829  0.62477  0.96672  1.0000
  H   H3078     1.0  0.66052  0.62439  0.67709  1.0000
  H   H3079     1.0  0.95625  0.71122  0.56256  1.0000
  C   C3852     1.0  0.58990  0.68230  0.67774  1.0000
  H   H3080     1.0  0.62903  0.60514  0.85781  1.0000
  H   H3081     1.0  0.49067  0.64201  0.52818  1.0000
  C   C3853     1.0  0.89557  0.71624  0.50417  1.0000
  H   H3082     1.0  0.79582  0.61905  0.50869  1.0000
  C   C3854     1.0  0.53946  0.71203  0.59647  1.0000
  C   C3855     1.0  0.59384  0.60377  0.82222  1.0000
  H   H3083     1.0  0.59919  0.62686  0.92517  1.0000
  H   H3084     1.0  0.89289  0.77857  0.52159  1.0000
  C   C3856     1.0  0.63721  0.77290  0.93380  1.0000
  S   S518      1.0  0.51275  0.59414  0.65227  1.0000
  H   H3085     1.0  0.71687  0.62512  0.72989  1.0000
  H   H3086     1.0  0.76151  0.77206  0.79691  1.0000
  C   C3857     1.0  0.94665  0.78027  0.53767  1.0000
  C   C3858     1.0  0.92969  0.63795  0.50279  1.0000
  H   H3087     1.0  0.95058  0.60841  0.48579  1.0000
  C   C3859     1.0  0.55511  0.70053  0.62669  1.0000
  C   C3860     1.0  0.59139  0.66152  0.96690  1.0000
  H   H3088     1.0  0.86052  0.69668  0.51103  1.0000
  C   C3861     1.0  0.95632  0.70172  0.54740  1.0000
  C   C3862     1.0  0.95126  0.62847  0.51386  1.0000
  H   H3089     1.0  0.95369  0.72748  0.87474  1.0000
  S   S519      1.0  0.85255  0.59796  0.49901  1.0000
  C   C3863     1.0  0.61313  0.68071  0.93906  1.0000
  H   H3090     1.0  0.61200  0.75615  0.51046  1.0000
  H   H3091     1.0  0.77839  0.64162  0.93210  1.0000
  C   C3864     1.0  0.82307  0.61449  0.96983  1.0000
  C   C3865     1.0  0.74113  0.76816  0.51293  1.0000
  C   C3866     1.0  0.95868  0.60436  0.64216  1.0000
  H   H3092     1.0  0.51924  0.66870  0.64929  1.0000
  H   H3093     1.0  0.94666  0.60842  0.58346  1.0000
  H   H3094     1.0  0.80711  0.64525  0.94429  1.0000
  C   C3867     1.0  0.61965  0.60922  0.84988  1.0000
  C   C3868     1.0  0.79741  0.63749  0.95772  1.0000
  H   H3095     1.0  0.76380  0.77795  0.68783  1.0000
  H   H3096     1.0  0.75185  0.76992  0.63001  1.0000
  C   C3869     1.0  0.89155  0.72717  0.52142  1.0000
  C   C3870     1.0  0.97254  0.72833  0.80418  1.0000
  P   P127      1.0  0.89316  0.74649  0.50742  1.0000
  H   H3097     1.0  0.89728  0.69283  0.50234  1.0000
  C   C3871     1.0  0.78294  0.77133  0.84870  1.0000
  C   C3872     1.0  0.61725  0.77909  0.90359  1.0000
  H   H3098     1.0  0.74731  0.61837  0.51166  1.0000
  H   H3099     1.0  0.92553  0.60282  0.54246  1.0000
  C   C3873     1.0  0.51206  0.68619  0.49603  1.0000
  H   H3100     1.0  0.64954  0.77335  0.93752  1.0000
  S   S520      1.0  0.68626  0.59471  0.54313  1.0000
  C   C3874     1.0  0.92790  0.59289  0.55194  1.0000
  C   C3875     1.0  0.56430  0.62655  0.98272  1.0000
  P   P128      1.0  0.56923  0.63071  0.94453  1.0000
  H   H3101     1.0  0.96203  0.62908  0.52691  1.0000
  H   H3102     1.0  0.59286  0.77063  0.92046  1.0000
  H   H3103     1.0  0.96631  0.71695  0.79134  1.0000
  H   H3104     1.0  0.62796  0.75864  0.97203  1.0000
  C   C3876     1.0  0.60525  0.77123  0.92378  1.0000
  H   H3105     1.0  0.58325  0.59527  0.80908  1.0000
  C   C3877     1.0  0.63335  0.78018  0.90910  1.0000
  C   C3878     1.0  0.77524  0.70511  0.50909  1.0000
  C   C3879     1.0  0.97230  0.78122  0.86207  1.0000
  H   H3106     1.0  0.58225  0.78380  0.51475  1.0000
  H   H3107     1.0  0.95104  0.68396  0.58062  1.0000
  H   H3108     1.0  0.52220  0.69736  0.50418  1.0000
  C   C3880     1.0  0.72170  0.68150  0.48527  1.0000
  H   H3109     1.0  0.55152  0.78358  0.88390  1.0000
  C   C3881     1.0  0.97280  0.64535  0.58670  1.0000
  H   H3110     1.0  0.56317  0.65142  0.50282  1.0000
  C   C3882     1.0  0.89416  0.70129  0.51556  1.0000
  C   C3883     1.0  0.68332  0.70708  0.49025  1.0000
  H   H3111     1.0  0.53976  0.62641  0.97795  1.0000
  C   C3884     1.0  0.50457  0.61349  0.50548  1.0000
  C   C3885     1.0  0.58204  0.78582  0.84569  1.0000
  H   H3112     1.0  0.50568  0.59433  0.53280  1.0000
  C   C3886     1.0  0.97457  0.62760  0.67553  1.0000
  C   C3887     1.0  0.86970  0.77384  0.54032  1.0000
  C   C3888     1.0  0.83601  0.69298  0.49536  1.0000
  C   C3889     1.0  0.97963  0.75949  0.97529  1.0000
  H   H3113     1.0  0.76550  0.60417  0.50173  1.0000
  H   H3114     1.0  0.75566  0.62305  0.96118  1.0000
  H   H3115     1.0  0.84983  0.63512  0.49297  1.0000
  C   C3890     1.0  0.50210  0.60453  0.53128  1.0000
  H   H3116     1.0  0.95333  0.77257  0.49676  1.0000
  C   C3891     1.0  0.49111  0.62238  0.55396  1.0000
  H   H3117     1.0  0.52741  0.67297  0.49211  1.0000
  H   H3118     1.0  0.77575  0.74319  0.49434  1.0000
  S   S521      1.0  0.58011  0.72752  0.48544  1.0000
  C   C3892     1.0  0.53792  0.64588  0.48888  1.0000
  H   H3119     1.0  0.96125  0.71722  0.50995  1.0000
  H   H3120     1.0  0.51021  0.61016  0.48718  1.0000
  C   C3893     1.0  0.59288  0.78227  0.50672  1.0000
  C   C3894     1.0  0.75659  0.78344  0.97624  1.0000
  H   H3121     1.0  0.95931  0.78763  0.54528  1.0000
  H   H3122     1.0  0.93636  0.78495  0.57733  1.0000
  C   C3895     1.0  0.74541  0.77472  0.48484  1.0000
  C   C3896     1.0  0.77484  0.67546  0.48767  1.0000
  H   H3123     1.0  0.54979  0.78019  0.48783  1.0000
  C   C3897     1.0  0.95903  0.69292  0.49785  1.0000
  H   H3124     1.0  0.79590  0.78271  0.81085  1.0000
  C   C3898     1.0  0.79157  0.78480  0.83183  1.0000
  H   H3125     1.0  0.87332  0.69365  0.97410  1.0000
  C   C3899     1.0  0.86331  0.68174  0.97570  1.0000
  H   H3126     1.0  0.85671  0.64170  0.97869  1.0000
  C   C3900     1.0  0.85375  0.65234  0.97790  1.0000
  H   H3127     1.0  0.81048  0.68750  0.48520  1.0000
  C   C3901     1.0  0.84729  0.68044  0.97940  1.0000
  C   C3902     1.0  0.80102  0.62943  0.98170  1.0000
  C   C3903     1.0  0.83753  0.65086  0.98101  1.0000
  S   S522      1.0  0.71265  0.78816  0.90170  1.0000
  C   C3904     1.0  0.62382  0.78814  0.84055  1.0000
  S   S523      1.0  0.74702  0.80416  0.38450  1.0000
  C   C3905     1.0  0.70047  0.88359  0.43862  1.0000
  Fe  Fe262     1.0  0.72665  0.81267  0.37329  1.0000
  S   S524      1.0  0.72593  0.83720  0.36027  1.0000
  H   H3128     1.0  0.55655  0.80839  0.47088  1.0000
  Fe  Fe263     1.0  0.73544  0.92966  0.38983  1.0000
  S   S525      1.0  0.72322  0.92805  0.34455  1.0000
  S   S526      1.0  0.74380  0.91052  0.40942  1.0000
  Fe  Fe264     1.0  0.73208  0.96181  0.40710  1.0000
  S   S527      1.0  0.71887  0.96168  0.36288  1.0000
  C   C3906     1.0  0.59295  0.87333  0.29695  1.0000
  Fe  Fe265     1.0  0.70499  0.93463  0.36888  1.0000
  S   S528      1.0  0.67756  0.91995  0.35740  1.0000
  Fe  Fe266     1.0  0.73821  0.95533  0.34215  1.0000
  C   C3907     1.0  0.72034  0.82118  0.23381  1.0000
  S   S529      1.0  0.71660  0.93520  0.41427  1.0000
  S   S530      1.0  0.75198  0.95650  0.38624  1.0000
  Fe  Fe267     1.0  0.57178  0.84937  0.43433  1.0000
  H   H3129     1.0  0.79597  0.83359  0.26401  1.0000
  S   S531      1.0  0.57274  0.82513  0.41769  1.0000
  Fe  Fe268     1.0  0.56623  0.87987  0.41290  1.0000
  S   S532      1.0  0.57915  0.89456  0.45479  1.0000
  S   S533      1.0  0.55730  0.89514  0.38154  1.0000
  Fe  Fe269     1.0  0.59783  0.88382  0.44895  1.0000
  S   S534      1.0  0.62543  0.89863  0.45740  1.0000
  H   H3130     1.0  0.58464  0.96738  0.30776  1.0000
  H   H3131     1.0  0.77736  0.97283  0.06601  1.0000
  S   S535      1.0  0.58603  0.87066  0.40591  1.0000
  S   S536      1.0  0.55084  0.85767  0.43803  1.0000
  Fe  Fe270     1.0  0.52994  0.91049  0.21248  1.0000
  S   S537      1.0  0.54942  0.93042  0.18832  1.0000
  S   S538      1.0  0.53681  0.89363  0.24306  1.0000
  Fe  Fe271     1.0  0.50108  0.91572  0.17976  1.0000
  S   S539      1.0  0.51889  0.93541  0.15311  1.0000
  Fe  Fe272     1.0  0.53285  0.91946  0.14698  1.0000
  S   S540      1.0  0.54310  0.91980  0.10064  1.0000
  Fe  Fe273     1.0  0.53397  0.94470  0.19593  1.0000
  S   S541      1.0  0.53933  0.97116  0.20838  1.0000
  S   S542      1.0  0.51393  0.89888  0.17064  1.0000
  S   S543      1.0  0.51564  0.92562  0.22297  1.0000
  C   C3908     1.0  0.65942  0.93576  0.01019  1.0000
  C   C3909     1.0  0.76775  0.79925  0.11214  1.0000
  C   C3910     1.0  0.49754  0.86863  0.04918  1.0000
  C   C3911     1.0  0.55566  0.88429  0.04048  1.0000
  C   C3912     1.0  0.55884  0.90024  0.03210  1.0000
  C   C3913     1.0  0.55515  0.91094  0.05100  1.0000
  C   C3914     1.0  0.54831  0.90595  0.07861  1.0000
  C   C3915     1.0  0.54535  0.89007  0.08713  1.0000
  C   C3916     1.0  0.54897  0.87935  0.06818  1.0000
  H   H3132     1.0  0.56405  0.90429  0.01102  1.0000
  H   H3133     1.0  0.55753  0.92317  0.04412  1.0000
  H   H3134     1.0  0.54007  0.88597  0.10817  1.0000
  H   H3135     1.0  0.54644  0.86707  0.07499  1.0000
  C   C3917     1.0  0.55233  0.89468  0.34269  1.0000
  C   C3918     1.0  0.55007  0.88129  0.32388  1.0000
  C   C3919     1.0  0.54544  0.88129  0.29351  1.0000
  C   C3920     1.0  0.54274  0.89451  0.28158  1.0000
  C   C3921     1.0  0.54486  0.90785  0.30046  1.0000
  C   C3922     1.0  0.54990  0.90804  0.33065  1.0000
  H   H3136     1.0  0.55168  0.87085  0.33277  1.0000
  H   H3137     1.0  0.54379  0.87087  0.27918  1.0000
  H   H3138     1.0  0.54277  0.91808  0.29175  1.0000
  H   H3139     1.0  0.55164  0.91849  0.34493  1.0000
  C   C3923     1.0  0.66320  0.91333  0.38539  1.0000
  C   C3924     1.0  0.64643  0.90406  0.37744  1.0000
  C   C3925     1.0  0.63465  0.89918  0.39917  1.0000
  C   C3926     1.0  0.63963  0.90339  0.42911  1.0000
  C   C3927     1.0  0.65644  0.91218  0.43703  1.0000
  C   C3928     1.0  0.66815  0.91722  0.41536  1.0000
  H   H3140     1.0  0.64251  0.90072  0.35439  1.0000
  H   H3141     1.0  0.62175  0.89239  0.39271  1.0000
  H   H3142     1.0  0.66039  0.91520  0.46007  1.0000
  H   H3143     1.0  0.68098  0.92424  0.42189  1.0000
  C   C3929     1.0  0.78767  0.96261  0.42847  1.0000
  C   C3930     1.0  0.64814  0.80427  0.34568  1.0000
  C   C3931     1.0  0.57578  0.93278  0.26549  1.0000
  C   C3932     1.0  0.54363  0.95404  0.32515  1.0000
  C   C3933     1.0  0.63451  0.86844  0.32478  1.0000
  C   C3934     1.0  0.66714  0.83281  0.35327  1.0000
  Fe  Fe274     1.0  0.56487  0.87220  0.47970  1.0000
  H   H3144     1.0  0.70945  0.86467  0.44342  1.0000
  C   C3935     1.0  0.56812  0.80521  0.43189  1.0000
  C   C3936     1.0  0.84034  0.96990  0.11709  1.0000
  C   C3937     1.0  0.68049  0.89633  0.00636  1.0000
  H   H3145     1.0  0.48139  0.96279  0.11839  1.0000
  C   C3938     1.0  0.73051  0.85728  0.37525  1.0000
  C   C3939     1.0  0.73889  0.86302  0.40290  1.0000
  C   C3940     1.0  0.74276  0.87927  0.41306  1.0000
  C   C3941     1.0  0.73812  0.88995  0.39597  1.0000
  C   C3942     1.0  0.72945  0.88409  0.36860  1.0000
  C   C3943     1.0  0.72576  0.86792  0.35828  1.0000
  H   H3146     1.0  0.74268  0.85506  0.41621  1.0000
  H   H3147     1.0  0.74950  0.88364  0.43423  1.0000
  H   H3148     1.0  0.72587  0.89214  0.35517  1.0000
  H   H3149     1.0  0.71930  0.86371  0.33686  1.0000
  C   C3944     1.0  0.65222  0.85741  0.35057  1.0000
  C   C3945     1.0  0.70120  0.86874  0.43083  1.0000
  C   C3946     1.0  0.68036  0.82795  0.35365  1.0000
  C   C3947     1.0  0.66390  0.95773  0.29999  1.0000
  C   C3948     1.0  0.48510  0.89887  0.26763  1.0000
  C   C3949     1.0  0.68560  0.92458  0.99657  1.0000
  C   C3950     1.0  0.49772  0.87496  0.26420  1.0000
  C   C3951     1.0  0.57258  0.79410  0.41586  1.0000
  H   H3150     1.0  0.53760  0.93486  0.99713  1.0000
  H   H3151     1.0  0.49262  0.94757  0.15171  1.0000
  H   H3152     1.0  0.93515  0.82927  0.14529  1.0000
  H   H3153     1.0  0.73008  0.84752  0.29410  1.0000
  S   S544      1.0  0.55937  0.86990  0.01720  1.0000
  C   C3952     1.0  0.65719  0.96609  0.41288  1.0000
  H   H3154     1.0  0.75473  0.98430  0.16939  1.0000
  C   C3953     1.0  0.67747  0.81141  0.35083  1.0000
  C   C3954     1.0  0.51438  0.92567  0.32698  1.0000
  C   C3955     1.0  0.49579  0.89528  0.35893  1.0000
  C   C3956     1.0  0.69193  0.85949  0.40598  1.0000
  C   C3957     1.0  0.64096  0.85224  0.37296  1.0000
  H   H3155     1.0  0.78925  0.84855  0.20997  1.0000
  C   C3958     1.0  0.84775  0.98649  0.11104  1.0000
  H   H3156     1.0  0.63217  0.87506  0.30651  1.0000
  C   C3959     1.0  0.78207  0.81043  0.16944  1.0000
  C   C3960     1.0  0.52527  0.83551  0.99076  1.0000
  C   C3961     1.0  0.51022  0.88285  0.39041  1.0000
  H   H3157     1.0  0.52227  0.92531  0.37313  1.0000
  H   H3158     1.0  0.84810  0.86073  0.19578  1.0000
  C   C3962     1.0  0.93793  0.83578  0.12486  1.0000
  C   C3963     1.0  0.94820  0.86150  0.10000  1.0000
  H   H3159     1.0  0.70233  0.80551  0.16215  1.0000
  C   C3964     1.0  0.72319  0.83694  0.27950  1.0000
  C   C3965     1.0  0.67875  0.80149  0.45311  1.0000
  C   C3966     1.0  0.72913  0.83504  0.25220  1.0000
  H   H3160     1.0  0.67587  0.81163  0.23128  1.0000
  C   C3967     1.0  0.49302  0.89573  0.29301  1.0000
  H   H3161     1.0  0.90126  0.80063  0.14047  1.0000
  H   H3162     1.0  0.80947  0.87717  0.20830  1.0000
  C   C3968     1.0  0.66571  0.96185  0.39135  1.0000
  H   H3163     1.0  0.50324  0.86618  0.26250  1.0000
  H   H3164     1.0  0.68776  0.80777  0.35171  1.0000
  H   H3165     1.0  0.76861  0.96351  0.01396  1.0000
  C   C3969     1.0  0.49943  0.88375  0.29094  1.0000
  H   H3166     1.0  0.83891  0.88336  0.20122  1.0000
  H   H3167     1.0  0.73699  0.79673  0.24606  1.0000
  H   H3168     1.0  0.65157  0.81332  0.20581  1.0000
  P   P129      1.0  0.69412  0.79089  0.21983  1.0000
  H   H3169     1.0  0.74066  0.84423  0.24552  1.0000
  C   C3970     1.0  0.65097  0.82079  0.34898  1.0000
  H   H3170     1.0  0.76802  0.79697  0.01718  1.0000
  C   C3971     1.0  0.48125  0.92924  0.34183  1.0000
  H   H3171     1.0  0.87120  0.79277  0.13675  1.0000
  C   C3972     1.0  0.58807  0.87786  0.32339  1.0000
  H   H3172     1.0  0.73498  0.97107  0.02471  1.0000
  C   C3973     1.0  0.86940  0.79146  0.08903  1.0000
  H   H3173     1.0  0.61785  0.85105  0.38838  1.0000
  C   C3974     1.0  0.63111  0.93955  0.31402  1.0000
  C   C3975     1.0  0.58502  0.95599  0.30025  1.0000
  H   H3174     1.0  0.84791  0.96324  0.12229  1.0000
  H   H3175     1.0  0.78976  0.83462  0.15158  1.0000
  C   C3976     1.0  0.94463  0.85302  0.07251  1.0000
  C   C3977     1.0  0.62335  0.86317  0.34710  1.0000
  C   C3978     1.0  0.78315  0.82161  0.14726  1.0000
  H   H3176     1.0  0.50613  0.88135  0.30951  1.0000
  C   C3979     1.0  0.51201  0.86647  0.00623  1.0000
  C   C3980     1.0  0.53971  0.94558  0.35141  1.0000
  H   H3177     1.0  0.58844  0.86053  0.29014  1.0000
  C   C3981     1.0  0.67680  0.90997  0.01071  1.0000
  H   H3178     1.0  0.61799  0.81614  0.39088  1.0000
  H   H3179     1.0  0.54808  0.94983  0.37095  1.0000
  H   H3180     1.0  0.50986  0.93057  0.28161  1.0000
  C   C3982     1.0  0.89493  0.79723  0.06513  1.0000
  C   C3983     1.0  0.78561  0.97869  0.04884  1.0000
  C   C3984     1.0  0.64890  0.86557  0.32643  1.0000
  P   P130      1.0  0.67117  0.85439  0.35426  1.0000
  C   C3985     1.0  0.68403  0.86369  0.32398  1.0000
  C   C3986     1.0  0.68512  0.85400  0.29998  1.0000
  C   C3987     1.0  0.69536  0.86117  0.27698  1.0000
  C   C3988     1.0  0.70430  0.87808  0.27735  1.0000
  C   C3989     1.0  0.70294  0.88784  0.30062  1.0000
  C   C3990     1.0  0.69289  0.88072  0.32389  1.0000
  C   C3991     1.0  0.68191  0.86512  0.38845  1.0000
  C   C3992     1.0  0.69016  0.88903  0.42196  1.0000
  C   C3993     1.0  0.68090  0.87987  0.39704  1.0000
  H   H3181     1.0  0.67657  0.96472  0.29472  1.0000
  H   H3182     1.0  0.65750  0.87003  0.30916  1.0000
  H   H3183     1.0  0.67816  0.84090  0.29891  1.0000
  H   H3184     1.0  0.69641  0.85360  0.25892  1.0000
  H   H3185     1.0  0.71229  0.88368  0.25963  1.0000
  H   H3186     1.0  0.70980  0.90097  0.30076  1.0000
  H   H3187     1.0  0.69215  0.88860  0.34171  1.0000
  H   H3188     1.0  0.69297  0.83697  0.35543  1.0000
  C   C3994     1.0  0.51822  0.93453  0.30103  1.0000
  H   H3189     1.0  0.67339  0.88464  0.38399  1.0000
  H   H3190     1.0  0.64651  0.79347  0.40303  1.0000
  C   C3995     1.0  0.77182  0.82493  0.28074  1.0000
  C   C3996     1.0  0.75518  0.81463  0.27568  1.0000
  C   C3997     1.0  0.74977  0.80510  0.24940  1.0000
  C   C3998     1.0  0.76095  0.80580  0.22811  1.0000
  C   C3999     1.0  0.77769  0.81629  0.23281  1.0000
  H   H3191     1.0  0.52432  0.98498  0.24680  1.0000
  P   P131      1.0  0.79241  0.81726  0.20573  1.0000
  H   H3192     1.0  0.73027  0.98045  0.27943  1.0000
  C   C4000     1.0  0.80722  0.83819  0.20429  1.0000
  C   C4001     1.0  0.82388  0.84179  0.20005  1.0000
  C   C4002     1.0  0.83525  0.85803  0.19896  1.0000
  C   C4003     1.0  0.83007  0.87078  0.20199  1.0000
  C   C4004     1.0  0.81349  0.86729  0.20598  1.0000
  C   C4005     1.0  0.80208  0.85106  0.20704  1.0000
  H   H3193     1.0  0.61656  0.91105  0.27322  1.0000
  H   H3194     1.0  0.60294  0.95673  0.33456  1.0000
  H   H3195     1.0  0.58411  0.92704  0.36252  1.0000
  H   H3196     1.0  0.80246  0.98536  0.15439  1.0000
  H   H3197     1.0  0.65498  0.96942  0.45940  1.0000
  C   C4006     1.0  0.80303  0.80442  0.21593  1.0000
  C   C4007     1.0  0.56013  0.80010  0.45822  1.0000
  C   C4008     1.0  0.80523  0.80119  0.24578  1.0000
  H   H3198     1.0  0.60221  0.80254  0.34484  1.0000
  H   H3199     1.0  0.71854  0.95375  0.09218  1.0000
  H   H3200     1.0  0.50998  0.95513  0.24708  1.0000
  H   H3201     1.0  0.96815  0.80454  0.02954  1.0000
  H   H3202     1.0  0.74657  0.81367  0.29257  1.0000
  C   C4009     1.0  0.64507  0.83730  0.45393  1.0000
  H   H3203     1.0  0.80007  0.96399  0.10807  1.0000
  C   C4010     1.0  0.89489  0.79839  0.11875  1.0000
  H   H3204     1.0  0.82816  0.83212  0.19756  1.0000
  C   C4011     1.0  0.70858  0.79742  0.16544  1.0000
  C   C4012     1.0  0.95391  0.79798  0.16329  1.0000
  H   H3205     1.0  0.64051  0.82406  0.34755  1.0000
  H   H3206     1.0  0.90135  0.79865  0.04490  1.0000
  H   H3207     1.0  0.69310  0.84827  0.40042  1.0000
  C   C4013     1.0  0.69425  0.95508  0.03225  1.0000
  H   H3208     1.0  0.63432  0.93140  0.37380  1.0000
  C   C4014     1.0  0.70201  0.94866  0.05319  1.0000
  S   S545      1.0  0.70944  0.79561  0.40463  1.0000
  H   H3209     1.0  0.67344  0.88501  0.01686  1.0000
  H   H3210     1.0  0.77919  0.98525  0.26314  1.0000
  H   H3211     1.0  0.52147  0.88620  0.03923  1.0000
  H   H3212     1.0  0.57257  0.97300  0.22324  1.0000
  C   C4015     1.0  0.61696  0.84401  0.44833  1.0000
  H   H3213     1.0  0.52122  0.88071  0.39586  1.0000
  H   H3214     1.0  0.95755  0.81633  0.06919  1.0000
  H   H3215     1.0  0.72527  0.81995  0.21290  1.0000
  C   C4016     1.0  0.75977  0.98766  0.48298  1.0000
  H   H3216     1.0  0.52618  0.84467  0.00747  1.0000
  H   H3217     1.0  0.49334  0.93736  0.35108  1.0000
  C   C4017     1.0  0.62948  0.82427  0.44908  1.0000
  H   H3218     1.0  0.48055  0.90840  0.26808  1.0000
  C   C4018     1.0  0.66931  0.79697  0.42624  1.0000
  C   C4019     1.0  0.65377  0.79747  0.42374  1.0000
  H   H3219     1.0  0.77720  0.82460  0.10142  1.0000
  C   C4020     1.0  0.50982  0.89225  0.36622  1.0000
  C   C4021     1.0  0.61370  0.80302  0.38815  1.0000
  C   C4022     1.0  0.65628  0.80469  0.19760  1.0000
  C   C4023     1.0  0.71507  0.97519  0.07879  1.0000
  H   H3220     1.0  0.55499  0.96487  0.32429  1.0000
  C   C4024     1.0  0.81338  0.97043  0.10924  1.0000
  H   H3221     1.0  0.76201  0.97819  0.47121  1.0000
  H   H3222     1.0  0.72327  0.98301  0.09651  1.0000
  C   C4025     1.0  0.62611  0.92489  0.02337  1.0000
  H   H3223     1.0  0.57977  0.86859  0.33702  1.0000
  S   S546      1.0  0.75431  0.96781  0.30334  1.0000
  C   C4026     1.0  0.60886  0.90187  0.28767  1.0000
  C   C4027     1.0  0.68394  0.95855  0.42991  1.0000
  C   C4028     1.0  0.87793  0.79309  0.06322  1.0000
  C   C4029     1.0  0.67907  0.95810  0.39987  1.0000
  C   C4030     1.0  0.70847  0.82500  0.28839  1.0000
  C   C4031     1.0  0.59539  0.94993  0.31531  1.0000
  C   C4032     1.0  0.53283  0.94856  0.29999  1.0000
  C   C4033     1.0  0.93777  0.83592  0.07115  1.0000
  H   H3224     1.0  0.53583  0.95514  0.27958  1.0000
  H   H3225     1.0  0.60690  0.88184  0.25835  1.0000
  H   H3226     1.0  0.52053  0.89719  0.35325  1.0000
  C   C4034     1.0  0.48966  0.87804  0.23926  1.0000
  C   C4035     1.0  0.64764  0.80273  0.44803  1.0000
  H   H3227     1.0  0.95351  0.87475  0.10103  1.0000
  C   C4036     1.0  0.48286  0.95345  0.19080  1.0000
  H   H3228     1.0  0.61235  0.86563  0.34618  1.0000
  C   C4037     1.0  0.62653  0.85500  0.37107  1.0000
  H   H3229     1.0  0.64343  0.84618  0.39197  1.0000
  C   C4038     1.0  0.74484  0.98139  0.01591  1.0000
  H   H3230     1.0  0.63782  0.79543  0.16145  1.0000
  C   C4039     1.0  0.60336  0.88533  0.27911  1.0000
  C   C4040     1.0  0.93277  0.79735  0.06472  1.0000
  C   C4041     1.0  0.71240  0.95870  0.07632  1.0000
  H   H3231     1.0  0.64905  0.93468  0.47623  1.0000
  H   H3232     1.0  0.66703  0.90905  0.02501  1.0000
  C   C4042     1.0  0.78934  0.96033  0.45876  1.0000
  H   H3233     1.0  0.63260  0.93225  0.42779  1.0000
  H   H3234     1.0  0.66374  0.95406  0.04540  1.0000
  C   C4043     1.0  0.63071  0.91690  0.00099  1.0000
  C   C4044     1.0  0.66136  0.79958  0.34674  1.0000
  H   H3235     1.0  0.58921  0.89755  0.35222  1.0000
  C   C4045     1.0  0.59353  0.89437  0.33201  1.0000
  H   H3236     1.0  0.62742  0.96138  0.30282  1.0000
  C   C4046     1.0  0.60409  0.90651  0.31432  1.0000
  C   C4047     1.0  0.51343  0.97966  0.25928  1.0000
  H   H3237     1.0  0.56793  0.92591  0.24653  1.0000
  H   H3238     1.0  0.70399  0.82644  0.30966  1.0000
  H   H3239     1.0  0.94741  0.85944  0.14745  1.0000
  S   S547      1.0  0.71654  0.79461  0.33437  1.0000
  C   C4048     1.0  0.77602  0.81600  0.11872  1.0000
  H   H3240     1.0  0.76266  0.79487  0.08978  1.0000
  C   C4049     1.0  0.62316  0.93124  0.38266  1.0000
  H   H3241     1.0  0.79003  0.97978  0.39454  1.0000
  H   H3242     1.0  0.66804  0.93631  0.31096  1.0000
  C   C4050     1.0  0.49876  0.85180  0.99688  1.0000
  H   H3243     1.0  0.61327  0.92051  0.02864  1.0000
  C   C4051     1.0  0.90345  0.79933  0.09296  1.0000
  H   H3244     1.0  0.58268  0.92788  0.41672  1.0000
  P   P132      1.0  0.61017  0.92790  0.32411  1.0000
  C   C4052     1.0  0.59505  0.92891  0.37644  1.0000
  H   H3245     1.0  0.52297  0.87134  0.99367  1.0000
  C   C4053     1.0  0.59418  0.92937  0.40726  1.0000
  P   P133      1.0  0.49545  0.90745  0.32739  1.0000
  C   C4054     1.0  0.60779  0.93080  0.42578  1.0000
  C   C4055     1.0  0.65908  0.94170  0.30911  1.0000
  H   H3246     1.0  0.70023  0.93597  0.05157  1.0000
  C   C4056     1.0  0.60958  0.92993  0.36387  1.0000
  H   H3247     1.0  0.60694  0.93060  0.44964  1.0000
  H   H3248     1.0  0.63941  0.92035  0.32355  1.0000
  H   H3249     1.0  0.68555  0.95465  0.38317  1.0000
  H   H3250     1.0  0.48873  0.87150  0.21837  1.0000
  H   H3251     1.0  0.75649  0.79795  0.20838  1.0000
  C   C4057     1.0  0.94925  0.80527  0.05723  1.0000
  C   C4058     1.0  0.59615  0.93529  0.30538  1.0000
  H   H3252     1.0  0.58606  0.91518  0.27255  1.0000
  C   C4059     1.0  0.58614  0.92669  0.28046  1.0000
  P   P134      1.0  0.62749  0.80326  0.44547  1.0000
  C   C4060     1.0  0.78306  0.82574  0.25945  1.0000
  H   H3253     1.0  0.78309  0.95212  0.41299  1.0000
  C   C4061     1.0  0.62225  0.93173  0.41346  1.0000
  C   C4062     1.0  0.63605  0.95567  0.30473  1.0000
  H   H3254     1.0  0.49689  0.86895  0.42627  1.0000
  C   C4063     1.0  0.67265  0.80655  0.47753  1.0000
  H   H3255     1.0  0.65623  0.83519  0.45555  1.0000
  P   P135      1.0  0.92550  0.80517  0.09559  1.0000
  C   C4064     1.0  0.66184  0.96629  0.44298  1.0000
  C   C4065     1.0  0.94479  0.85288  0.12615  1.0000
  H   H3256     1.0  0.64681  0.96898  0.40625  1.0000
  C   C4066     1.0  0.94858  0.80455  0.13911  1.0000
  C   C4067     1.0  0.93209  0.79725  0.12792  1.0000
  C   C4068     1.0  0.70561  0.80904  0.24284  1.0000
  C   C4069     1.0  0.74124  0.98551  0.26707  1.0000
  C   C4070     1.0  0.67518  0.96238  0.45176  1.0000
  H   H3257     1.0  0.95741  0.81505  0.12875  1.0000
  H   H3258     1.0  0.56705  0.95198  0.26374  1.0000
  C   C4071     1.0  0.52508  0.93153  0.35245  1.0000
  H   H3259     1.0  0.96675  0.80326  0.17136  1.0000
  H   H3260     1.0  0.63451  0.94438  0.05675  1.0000
  C   C4072     1.0  0.49652  0.87623  0.40749  1.0000
  C   C4073     1.0  0.64280  0.93266  0.31615  1.0000
  C   C4074     1.0  0.93464  0.82720  0.09735  1.0000
  C   C4075     1.0  0.51128  0.87488  0.03212  1.0000
  H   H3261     1.0  0.69443  0.95573  0.43582  1.0000
  H   H3262     1.0  0.68970  0.90062  0.42780  1.0000
  C   C4076     1.0  0.82316  0.96185  0.11608  1.0000
  H   H3263     1.0  0.69071  0.80090  0.45510  1.0000
  H   H3264     1.0  0.48413  0.94226  0.27353  1.0000
  C   C4077     1.0  0.55823  0.98744  0.21990  1.0000
  C   C4078     1.0  0.49069  0.95545  0.27410  1.0000
  H   H3265     1.0  0.81740  0.94894  0.12038  1.0000
  C   C4079     1.0  0.77851  0.98372  0.16449  1.0000
  C   C4080     1.0  0.69980  0.81102  0.27040  1.0000
  P   P136      1.0  0.68089  0.94226  0.00207  1.0000
  C   C4081     1.0  0.48196  0.88842  0.37603  1.0000
  H   H3266     1.0  0.77604  0.83197  0.30152  1.0000
  C   C4082     1.0  0.79163  0.98702  0.14606  1.0000
  C   C4083     1.0  0.57520  0.94740  0.27535  1.0000
  H   H3267     1.0  0.71927  0.80222  0.12285  1.0000
  C   C4084     1.0  0.65469  0.94377  0.03264  1.0000
  H   H3268     1.0  0.87131  0.79101  0.04174  1.0000
  H   H3269     1.0  0.66196  0.96139  0.36805  1.0000
  C   C4085     1.0  0.80952  0.79781  0.19393  1.0000
  C   C4086     1.0  0.61550  0.82788  0.44557  1.0000
  H   H3270     1.0  0.77917  0.97941  0.18662  1.0000
  H   H3271     1.0  0.60344  0.81832  0.44009  1.0000
  C   C4087     1.0  0.67637  0.79260  0.20139  1.0000
  C   C4088     1.0  0.79511  0.97380  0.47875  1.0000
  C   C4089     1.0  0.64852  0.79460  0.17262  1.0000
  C   C4090     1.0  0.82074  0.98718  0.10380  1.0000
  C   C4091     1.0  0.65238  0.96470  0.29778  1.0000
  H   H3272     1.0  0.54594  0.83193  0.01106  1.0000
  C   C4092     1.0  0.50521  0.96265  0.25928  1.0000
  C   C4093     1.0  0.79151  0.97831  0.41814  1.0000
  H   H3273     1.0  0.93487  0.82950  0.04969  1.0000
  C   C4094     1.0  0.48238  0.87898  0.40027  1.0000
  H   H3274     1.0  0.80830  0.80036  0.17078  1.0000
  C   C4095     1.0  0.48437  0.85397  0.04019  1.0000
  C   C4096     1.0  0.70727  0.98163  0.05824  1.0000
  C   C4097     1.0  0.63809  0.93833  0.03917  1.0000
  H   H3275     1.0  0.65856  0.86344  0.45969  1.0000
  C   C4098     1.0  0.70700  0.78876  0.19164  1.0000
  C   C4099     1.0  0.49279  0.98237  0.28933  1.0000
  H   H3276     1.0  0.57865  0.79780  0.39540  1.0000
  C   C4100     1.0  0.87790  0.79421  0.11677  1.0000
  C   C4101     1.0  0.77350  0.79363  0.16272  1.0000
  H   H3277     1.0  0.49718  0.87513  0.06946  1.0000
  S   S548      1.0  0.58472  0.86242  0.47723  1.0000
  C   C4102     1.0  0.64726  0.92230  0.99444  1.0000
  H   H3278     1.0  0.69086  0.97680  0.01941  1.0000
  H   H3279     1.0  0.69608  0.88670  0.98499  1.0000
  C   C4103     1.0  0.71823  0.79567  0.14317  1.0000
  H   H3280     1.0  0.94714  0.85969  0.05223  1.0000
  H   H3281     1.0  0.81476  0.78845  0.27642  1.0000
  C   C4104     1.0  0.75459  0.98141  0.27430  1.0000
  C   C4105     1.0  0.48492  0.84559  0.01410  1.0000
  C   C4106     1.0  0.48325  0.88992  0.24103  1.0000
  C   C4107     1.0  0.78067  0.97320  0.01937  1.0000
  H   H3282     1.0  0.63567  0.79501  0.34249  1.0000
  H   H3283     1.0  0.59912  0.80274  0.47924  1.0000
  S   S549      1.0  0.73468  0.98303  0.43930  1.0000
  C   C4108     1.0  0.48442  0.96533  0.28891  1.0000
  C   C4109     1.0  0.64651  0.85346  0.45618  1.0000
  C   C4110     1.0  0.69679  0.97161  0.03521  1.0000
  C   C4111     1.0  0.60487  0.79536  0.36175  1.0000
  C   C4112     1.0  0.81339  0.79115  0.25338  1.0000
  C   C4113     1.0  0.63245  0.85680  0.45364  1.0000
  H   H3284     1.0  0.80045  0.80613  0.26323  1.0000
  H   H3285     1.0  0.53196  0.90541  0.99592  1.0000
  H   H3286     1.0  0.61625  0.97849  0.03634  1.0000
  C   C4114     1.0  0.76469  0.98644  0.15478  1.0000
  H   H3287     1.0  0.48750  0.94639  0.20488  1.0000
  H   H3288     1.0  0.67393  0.79278  0.40745  1.0000
  H   H3289     1.0  0.65612  0.97715  0.29069  1.0000
  C   C4115     1.0  0.74911  0.98034  0.98652  1.0000
  H   H3290     1.0  0.60604  0.84659  0.44586  1.0000
  C   C4116     1.0  0.95534  0.79861  0.03485  1.0000
  H   H3291     1.0  0.63352  0.86931  0.45542  1.0000
  H   H3292     1.0  0.62148  0.90634  0.98889  1.0000
  H   H3293     1.0  0.68860  0.80174  0.27813  1.0000
  C   C4117     1.0  0.53649  0.82816  0.99306  1.0000
  C   C4118     1.0  0.67013  0.80369  0.21201  1.0000
  C   C4119     1.0  0.65713  0.80711  0.47506  1.0000
  H   H3294     1.0  0.78605  0.94810  0.46668  1.0000
  C   C4120     1.0  0.61656  0.79371  0.41078  1.0000
  C   C4121     1.0  0.57266  0.98505  0.22618  1.0000
  H   H3295     1.0  0.70819  0.89106  0.45713  1.0000
  C   C4122     1.0  0.69320  0.89726  0.98839  1.0000
  C   C4123     1.0  0.48575  0.95407  0.16063  1.0000
  C   C4124     1.0  0.61582  0.79065  0.47442  1.0000
  C   C4125     1.0  0.79107  0.98042  0.99668  1.0000
  C   C4126     1.0  0.76874  0.98822  0.25777  1.0000
  C   C4127     1.0  0.53602  0.92898  0.86548  1.0000
  C   C4128     1.0  0.55083  0.94295  0.87000  1.0000
  Fe  Fe275     1.0  0.72626  0.81034  0.87484  1.0000
  S   S550      1.0  0.72568  0.83450  0.89236  1.0000
  C   C4129     1.0  0.54364  0.87571  0.69460  1.0000
  Fe  Fe276     1.0  0.73742  0.92928  0.86872  1.0000
  S   S551      1.0  0.72563  0.93920  0.83292  1.0000
  S   S552      1.0  0.74531  0.90875  0.85442  1.0000
  Fe  Fe277     1.0  0.73684  0.95478  0.91574  1.0000
  S   S553      1.0  0.72500  0.96589  0.88281  1.0000
  H   H3296     1.0  0.71528  0.96884  0.48582  1.0000
  Fe  Fe278     1.0  0.70871  0.93996  0.86824  1.0000
  S   S554      1.0  0.68104  0.93211  0.85841  1.0000
  Fe  Fe279     1.0  0.74294  0.96428  0.85040  1.0000
  H   H3297     1.0  0.66240  0.81406  0.71712  1.0000
  S   S555      1.0  0.71946  0.92870  0.90266  1.0000
  S   S556      1.0  0.75585  0.95450  0.88450  1.0000
  Fe  Fe280     1.0  0.56992  0.84300  0.92486  1.0000
  S   S557      1.0  0.58548  0.85490  0.96622  1.0000
  S   S558      1.0  0.56105  0.81601  0.90878  1.0000
  Fe  Fe281     1.0  0.56966  0.87574  0.90451  1.0000
  S   S559      1.0  0.58539  0.88979  0.94491  1.0000
  S   S560      1.0  0.56283  0.89220  0.87316  1.0000
  Fe  Fe282     1.0  0.60031  0.87510  0.93675  1.0000
  S   S561      1.0  0.62826  0.88508  0.94326  1.0000
  Fe  Fe283     1.0  0.56931  0.86882  0.97127  1.0000
  S   S562      1.0  0.55111  0.87158  0.52242  1.0000
  S   S563      1.0  0.58585  0.86249  0.89485  1.0000
  S   S564      1.0  0.55257  0.85553  0.93143  1.0000
  Fe  Fe284     1.0  0.51804  0.90258  0.72288  1.0000
  S   S565      1.0  0.54083  0.92310  0.70871  1.0000
  S   S566      1.0  0.52025  0.88237  0.75078  1.0000
  Fe  Fe285     1.0  0.49465  0.91488  0.68815  1.0000
  S   S567      1.0  0.51639  0.93599  0.67122  1.0000
  Fe  Fe286     1.0  0.52800  0.91802  0.66291  1.0000
  S   S568      1.0  0.54394  0.92030  0.62266  1.0000
  Fe  Fe287     1.0  0.52744  0.93911  0.71783  1.0000
  S   S569      1.0  0.53614  0.96256  0.74649  1.0000
  S   S570      1.0  0.50559  0.89666  0.67655  1.0000
  S   S571      1.0  0.50532  0.91886  0.73526  1.0000
  H   H3298     1.0  0.51429  0.91636  0.83655  1.0000
  H   H3299     1.0  0.56536  0.96958  0.71303  1.0000
  C   C4130     1.0  0.52550  0.92734  0.84039  1.0000
  C   C4131     1.0  0.54931  0.88549  0.54986  1.0000
  C   C4132     1.0  0.53819  0.87921  0.57241  1.0000
  C   C4133     1.0  0.53629  0.88957  0.59467  1.0000
  C   C4134     1.0  0.54558  0.90648  0.59492  1.0000
  C   C4135     1.0  0.55674  0.91279  0.57243  1.0000
  C   C4136     1.0  0.55857  0.90243  0.55007  1.0000
  H   H3300     1.0  0.53094  0.86617  0.57262  1.0000
  H   H3301     1.0  0.52763  0.88442  0.61160  1.0000
  H   H3302     1.0  0.56404  0.92581  0.57226  1.0000
  H   H3303     1.0  0.56717  0.90753  0.53302  1.0000
  C   C4137     1.0  0.55169  0.88914  0.83828  1.0000
  C   C4138     1.0  0.54538  0.87416  0.82231  1.0000
  C   C4139     1.0  0.53588  0.87229  0.79544  1.0000
  C   C4140     1.0  0.53272  0.88538  0.78415  1.0000
  C   C4141     1.0  0.53923  0.90040  0.79996  1.0000
  C   C4142     1.0  0.54882  0.90230  0.82663  1.0000
  H   H3304     1.0  0.54761  0.86395  0.83083  1.0000
  H   H3305     1.0  0.53084  0.86060  0.78342  1.0000
  H   H3306     1.0  0.53673  0.91049  0.79170  1.0000
  H   H3307     1.0  0.55391  0.91399  0.83851  1.0000
  C   C4143     1.0  0.66639  0.91919  0.88229  1.0000
  C   C4144     1.0  0.64944  0.91443  0.87516  1.0000
  C   C4145     1.0  0.63754  0.90401  0.89360  1.0000
  C   C4146     1.0  0.64253  0.89817  0.91916  1.0000
  C   C4147     1.0  0.65944  0.90299  0.92625  1.0000
  C   C4148     1.0  0.67130  0.91355  0.90813  1.0000
  H   H3308     1.0  0.64552  0.91876  0.85526  1.0000
  H   H3309     1.0  0.62454  0.90047  0.88808  1.0000
  H   H3310     1.0  0.66342  0.89856  0.94600  1.0000
  H   H3311     1.0  0.68425  0.91728  0.91417  1.0000
  C   C4149     1.0  0.69179  0.96741  0.81607  1.0000
  H   H3312     1.0  0.55404  0.91010  0.91235  1.0000
  H   H3313     1.0  0.73384  0.83010  0.79941  1.0000
  H   H3314     1.0  0.56626  0.96611  0.85189  1.0000
  C   C4150     1.0  0.60195  0.92850  0.90294  1.0000
  P   P137      1.0  0.56497  0.94497  0.90155  1.0000
  H   H3315     1.0  0.52154  0.93839  0.80022  1.0000
  C   C4151     1.0  0.70908  0.95616  0.49125  1.0000
  C   C4152     1.0  0.56244  0.79817  0.92382  1.0000
  H   H3316     1.0  0.57960  0.94471  0.84414  1.0000
  C   C4153     1.0  0.51638  0.87915  0.88911  1.0000
  S   S572      1.0  0.74260  0.79128  0.77909  1.0000
  C   C4154     1.0  0.73108  0.85502  0.88098  1.0000
  C   C4155     1.0  0.74106  0.86149  0.85732  1.0000
  C   C4156     1.0  0.74517  0.87786  0.84948  1.0000
  C   C4157     1.0  0.73940  0.88806  0.86514  1.0000
  C   C4158     1.0  0.72933  0.88158  0.88872  1.0000
  C   C4159     1.0  0.72534  0.86524  0.89669  1.0000
  H   H3317     1.0  0.74578  0.85394  0.84531  1.0000
  H   H3318     1.0  0.75296  0.88268  0.83121  1.0000
  H   H3319     1.0  0.72478  0.88920  0.90105  1.0000
  H   H3320     1.0  0.71775  0.86048  0.91523  1.0000
  H   H3321     1.0  0.54517  0.85971  0.72853  1.0000
  C   C4160     1.0  0.51344  0.83131  0.96685  1.0000
  H   H3322     1.0  0.82167  0.80152  0.78690  1.0000
  C   C4161     1.0  0.58921  0.93280  0.91131  1.0000
  C   C4162     1.0  0.64881  0.84016  0.75095  1.0000
  C   C4163     1.0  0.64986  0.82921  0.72957  1.0000
  C   C4164     1.0  0.66150  0.82248  0.73377  1.0000
  C   C4165     1.0  0.67216  0.82679  0.75925  1.0000
  C   C4166     1.0  0.67131  0.83791  0.78080  1.0000
  C   C4167     1.0  0.65948  0.84452  0.77645  1.0000
  P   P138      1.0  0.68608  0.84419  0.81246  1.0000
  C   C4168     1.0  0.68088  0.82872  0.83997  1.0000
  C   C4169     1.0  0.70547  0.84684  0.79744  1.0000
  C   C4170     1.0  0.71382  0.83719  0.80676  1.0000
  C   C4171     1.0  0.72769  0.83784  0.79245  1.0000
  C   C4172     1.0  0.73366  0.84851  0.76940  1.0000
  C   C4173     1.0  0.72555  0.85831  0.76022  1.0000
  C   C4174     1.0  0.71137  0.85732  0.77388  1.0000
  C   C4175     1.0  0.68577  0.83326  0.86997  1.0000
  C   C4176     1.0  0.60254  0.79303  0.48623  1.0000
  C   C4177     1.0  0.50629  0.85630  0.93396  1.0000
  C   C4178     1.0  0.79410  0.80064  0.84178  1.0000
  C   C4179     1.0  0.68686  0.86285  0.82985  1.0000
  C   C4180     1.0  0.67348  0.86253  0.84573  1.0000
  C   C4181     1.0  0.67377  0.87688  0.85907  1.0000
  C   C4182     1.0  0.68750  0.89158  0.85689  1.0000
  C   C4183     1.0  0.70096  0.89193  0.84173  1.0000
  C   C4184     1.0  0.70075  0.87764  0.82847  1.0000
  H   H3323     1.0  0.63985  0.84545  0.74761  1.0000
  H   H3324     1.0  0.64169  0.82597  0.70970  1.0000
  H   H3325     1.0  0.64450  0.95902  0.57309  1.0000
  H   H3326     1.0  0.68130  0.82166  0.76187  1.0000
  H   H3327     1.0  0.65861  0.85331  0.79218  1.0000
  H   H3328     1.0  0.70970  0.82912  0.82505  1.0000
  C   C4185     1.0  0.67627  0.80480  0.88225  1.0000
  H   H3329     1.0  0.74455  0.84913  0.75868  1.0000
  H   H3330     1.0  0.73018  0.86660  0.74236  1.0000
  H   H3331     1.0  0.70496  0.86468  0.76604  1.0000
  H   H3332     1.0  0.69214  0.84600  0.87702  1.0000
  H   H3333     1.0  0.68802  0.82497  0.91381  1.0000
  C   C4186     1.0  0.64558  0.95376  0.55193  1.0000
  H   H3334     1.0  0.66280  0.85117  0.84761  1.0000
  H   H3335     1.0  0.66343  0.87670  0.87115  1.0000
  H   H3336     1.0  0.68784  0.90274  0.86711  1.0000
  H   H3337     1.0  0.71171  0.90328  0.84061  1.0000
  H   H3338     1.0  0.71163  0.87828  0.81781  1.0000
  C   C4187     1.0  0.77206  0.83899  0.82917  1.0000
  C   C4188     1.0  0.78210  0.85541  0.83603  1.0000
  C   C4189     1.0  0.79925  0.86071  0.83736  1.0000
  C   C4190     1.0  0.80636  0.84958  0.83220  1.0000
  C   C4191     1.0  0.79632  0.83300  0.82569  1.0000
  C   C4192     1.0  0.77912  0.82785  0.82378  1.0000
  P   P139      1.0  0.80513  0.81821  0.82025  1.0000
  C   C4193     1.0  0.80402  0.81251  0.78133  1.0000
  C   C4194     1.0  0.82657  0.82692  0.83340  1.0000
  C   C4195     1.0  0.83136  0.82428  0.86226  1.0000
  C   C4196     1.0  0.84800  0.83118  0.87218  1.0000
  C   C4197     1.0  0.85995  0.84080  0.85344  1.0000
  C   C4198     1.0  0.85527  0.84357  0.82476  1.0000
  C   C4199     1.0  0.83865  0.83670  0.81477  1.0000
  C   C4200     1.0  0.79378  0.81616  0.76066  1.0000
  C   C4201     1.0  0.79345  0.81209  0.73054  1.0000
  C   C4202     1.0  0.48181  0.97575  0.73832  1.0000
  H   H3339     1.0  0.51664  0.84271  0.90748  1.0000
  H   H3340     1.0  0.62078  0.93501  0.55033  1.0000
  P   P140      1.0  0.68066  0.96210  0.49080  1.0000
  C   C4203     1.0  0.71800  0.94639  0.49270  1.0000
  H   H3341     1.0  0.60809  0.92370  0.91910  1.0000
  C   C4204     1.0  0.77961  0.78930  0.88596  1.0000
  H   H3342     1.0  0.79634  0.97204  0.50227  1.0000
  C   C4205     1.0  0.77469  0.96164  0.74423  1.0000
  H   H3343     1.0  0.75878  0.83479  0.82849  1.0000
  H   H3344     1.0  0.77659  0.86399  0.84052  1.0000
  H   H3345     1.0  0.80701  0.87345  0.84273  1.0000
  H   H3346     1.0  0.81965  0.85395  0.83369  1.0000
  H   H3347     1.0  0.77115  0.81514  0.81844  1.0000
  H   H3348     1.0  0.82234  0.81692  0.87721  1.0000
  H   H3349     1.0  0.85162  0.82907  0.89445  1.0000
  H   H3350     1.0  0.87284  0.84612  0.86115  1.0000
  C   C4206     1.0  0.74928  0.98530  0.76518  1.0000
  H   H3351     1.0  0.83521  0.83905  0.79254  1.0000
  H   H3352     1.0  0.78586  0.82194  0.76756  1.0000
  H   H3353     1.0  0.78527  0.81460  0.71477  1.0000
  C   C4207     1.0  0.67303  0.94904  0.94443  1.0000
  H   H3354     1.0  0.67266  0.97245  0.83569  1.0000
  H   H3355     1.0  0.50362  0.81562  0.92731  1.0000
  H   H3356     1.0  0.71701  0.92229  0.49975  1.0000
  C   C4208     1.0  0.78814  0.80278  0.86911  1.0000
  H   H3357     1.0  0.73984  0.97338  0.76904  1.0000
  C   C4209     1.0  0.51267  0.81918  0.94588  1.0000
  H   H3358     1.0  0.66752  0.95340  0.89923  1.0000
  C   C4210     1.0  0.59850  0.93602  0.85265  1.0000
  C   C4211     1.0  0.81378  0.80460  0.77137  1.0000
  C   C4212     1.0  0.76449  0.98609  0.63522  1.0000
  H   H3359     1.0  0.54046  0.89312  0.95355  1.0000
  H   H3360     1.0  0.52380  0.80304  0.93137  1.0000
  C   C4213     1.0  0.81524  0.96969  0.66170  1.0000
  C   C4214     1.0  0.58083  0.93855  0.89026  1.0000
  C   C4215     1.0  0.69336  0.92328  0.50465  1.0000
  H   H3361     1.0  0.57157  0.94119  0.67578  1.0000
  H   H3362     1.0  0.71228  0.91266  0.96122  1.0000
  C   C4216     1.0  0.80311  0.80412  0.72087  1.0000
  C   C4217     1.0  0.53794  0.91289  0.97775  1.0000
  C   C4218     1.0  0.63393  0.79848  0.79278  1.0000
  C   C4219     1.0  0.97315  0.79389  0.84336  1.0000
  H   H3363     1.0  0.49669  0.87277  0.95341  1.0000
  H   H3364     1.0  0.70565  0.93660  0.96802  1.0000
  C   C4220     1.0  0.69200  0.96992  0.91478  1.0000
  H   H3365     1.0  0.54735  0.96324  0.80832  1.0000
  H   H3366     1.0  0.58583  0.93149  0.93416  1.0000
  H   H3367     1.0  0.80233  0.80035  0.69770  1.0000
  C   C4221     1.0  0.50822  0.88188  0.91296  1.0000
  C   C4222     1.0  0.66178  0.95368  0.51003  1.0000
  C   C4223     1.0  0.51421  0.85355  0.90959  1.0000
  H   H3368     1.0  0.65057  0.91576  0.97735  1.0000
  H   H3369     1.0  0.62327  0.92290  0.50197  1.0000
  C   C4224     1.0  0.58571  0.94027  0.86089  1.0000
  S   S573      1.0  0.71307  0.79779  0.83190  1.0000
  C   C4225     1.0  0.57440  0.96618  0.91425  1.0000
  C   C4226     1.0  0.54421  0.95369  0.82434  1.0000
  H   H3370     1.0  0.68420  0.95449  0.81216  1.0000
  C   C4227     1.0  0.81968  0.98310  0.68185  1.0000
  C   C4228     1.0  0.70057  0.96598  0.96466  1.0000
  C   C4229     1.0  0.56658  0.98068  0.72471  1.0000
  H   H3371     1.0  0.48133  0.80778  0.97967  1.0000
  H   H3372     1.0  0.67992  0.80990  0.49842  1.0000
  H   H3373     1.0  0.73097  0.95161  0.48814  1.0000
  C   C4230     1.0  0.57679  0.97701  0.64377  1.0000
  H   H3374     1.0  0.82241  0.95151  0.64247  1.0000
  C   C4231     1.0  0.55483  0.95529  0.84917  1.0000
  C   C4232     1.0  0.54270  0.90598  0.95393  1.0000
  H   H3375     1.0  0.59891  0.83143  0.92029  1.0000
  H   H3376     1.0  0.96639  0.79131  0.82203  1.0000
  C   C4233     1.0  0.50313  0.87049  0.93526  1.0000
  C   C4234     1.0  0.52089  0.96319  0.57677  1.0000
  H   H3377     1.0  0.50147  0.95065  0.75214  1.0000
  C   C4235     1.0  0.77975  0.97011  0.77165  1.0000
  C   C4236     1.0  0.68343  0.82134  0.89100  1.0000
  C   C4237     1.0  0.71013  0.92991  0.49918  1.0000
  H   H3378     1.0  0.85666  0.98419  0.70888  1.0000
  H   H3379     1.0  0.63585  0.80744  0.77599  1.0000
  C   C4238     1.0  0.54831  0.97192  0.60092  1.0000
  H   H3380     1.0  0.55161  0.95215  0.95637  1.0000
  C   C4239     1.0  0.69847  0.92545  0.97882  1.0000
  H   H3381     1.0  0.77340  0.96487  0.79137  1.0000
  C   C4240     1.0  0.66034  0.96045  0.53749  1.0000
  C   C4241     1.0  0.53624  0.94634  0.57177  1.0000
  C   C4242     1.0  0.52191  0.94893  0.56587  1.0000
  H   H3382     1.0  0.53697  0.93517  0.56370  1.0000
  C   C4243     1.0  0.55407  0.98053  0.74247  1.0000
  C   C4244     1.0  0.55097  0.89124  0.68312  1.0000
  C   C4245     1.0  0.55119  0.87158  0.71910  1.0000
  C   C4246     1.0  0.56611  0.88296  0.73214  1.0000
  C   C4247     1.0  0.57358  0.89864  0.72073  1.0000
  C   C4248     1.0  0.56575  0.90272  0.69634  1.0000
  P   P141      1.0  0.59230  0.91394  0.73837  1.0000
  C   C4249     1.0  0.59871  0.90534  0.77009  1.0000
  C   C4250     1.0  0.60896  0.92088  0.71334  1.0000
  C   C4251     1.0  0.60623  0.91632  0.68295  1.0000
  C   C4252     1.0  0.61931  0.92168  0.66415  1.0000
  C   C4253     1.0  0.63526  0.93146  0.67550  1.0000
  C   C4254     1.0  0.63817  0.93584  0.70574  1.0000
  C   C4255     1.0  0.62511  0.93053  0.72459  1.0000
  C   C4256     1.0  0.61048  0.89866  0.76736  1.0000
  C   C4257     1.0  0.61538  0.89190  0.79177  1.0000
  C   C4258     1.0  0.60830  0.89140  0.81891  1.0000
  C   C4259     1.0  0.59630  0.89761  0.82159  1.0000
  C   C4260     1.0  0.59146  0.90453  0.79734  1.0000
  C   C4261     1.0  0.58745  0.93073  0.75106  1.0000
  C   C4262     1.0  0.57171  0.92748  0.76090  1.0000
  C   C4263     1.0  0.56756  0.94026  0.77018  1.0000
  C   C4264     1.0  0.57905  0.95642  0.76965  1.0000
  C   C4265     1.0  0.59476  0.95983  0.75989  1.0000
  C   C4266     1.0  0.59899  0.94706  0.75072  1.0000
  H   H3383     1.0  0.54497  0.89451  0.66437  1.0000
  H   H3384     1.0  0.57146  0.87952  0.75146  1.0000
  H   H3385     1.0  0.57097  0.91483  0.68763  1.0000
  H   H3386     1.0  0.59414  0.90845  0.67352  1.0000
  H   H3387     1.0  0.61706  0.91807  0.64076  1.0000
  H   H3388     1.0  0.64539  0.93548  0.66090  1.0000
  H   H3389     1.0  0.65058  0.94324  0.71462  1.0000
  H   H3390     1.0  0.62762  0.93384  0.74807  1.0000
  H   H3391     1.0  0.61581  0.89850  0.74634  1.0000
  H   H3392     1.0  0.62456  0.88690  0.78963  1.0000
  H   H3393     1.0  0.61193  0.88599  0.83778  1.0000
  H   H3394     1.0  0.59061  0.89691  0.84251  1.0000
  H   H3395     1.0  0.58186  0.90892  0.79991  1.0000
  H   H3396     1.0  0.56248  0.91506  0.76077  1.0000
  H   H3397     1.0  0.55523  0.93766  0.77695  1.0000
  H   H3398     1.0  0.57565  0.96630  0.77624  1.0000
  H   H3399     1.0  0.60353  0.97243  0.75904  1.0000
  H   H3400     1.0  0.61115  0.95011  0.74303  1.0000
  H   H3401     1.0  0.67027  0.80820  0.80843  1.0000
  H   H3402     1.0  0.80354  0.96519  0.64892  1.0000
  C   C4267     1.0  0.68499  0.95340  0.96818  1.0000
  C   C4268     1.0  0.54116  0.92952  0.97840  1.0000
  C   C4269     1.0  0.56883  0.96109  0.65370  1.0000
  H   H3403     1.0  0.76454  0.94970  0.74280  1.0000
  H   H3404     1.0  0.59848  0.96631  0.92540  1.0000
  C   C4270     1.0  0.56899  0.79798  0.95258  1.0000
  H   H3405     1.0  0.82027  0.79367  0.73378  1.0000
  C   C4271     1.0  0.54915  0.93929  0.95522  1.0000
  H   H3406     1.0  0.67512  0.79555  0.89828  1.0000
  H   H3407     1.0  0.71618  0.98371  0.93561  1.0000
  C   C4272     1.0  0.64824  0.94018  0.49731  1.0000
  C   C4273     1.0  0.78263  0.96862  0.71872  1.0000
  H   H3408     1.0  0.53531  0.97392  0.65763  1.0000
  S   S574      1.0  0.73895  0.96154  0.96559  1.0000
  C   C4274     1.0  0.84515  0.98022  0.69556  1.0000
  H   H3409     1.0  0.61633  0.92655  0.86716  1.0000
  H   H3410     1.0  0.58727  0.79903  0.84497  1.0000
  H   H3411     1.0  0.56039  0.95549  0.59331  1.0000
  C   C4275     1.0  0.55054  0.91567  0.93064  1.0000
  C   C4276     1.0  0.81320  0.80031  0.74129  1.0000
  H   H3412     1.0  0.59253  0.80353  0.90092  1.0000
  C   C4277     1.0  0.68443  0.93309  0.50327  1.0000
  C   C4278     1.0  0.49146  0.95456  0.74917  1.0000
  H   H3413     1.0  0.74216  0.98457  0.71854  1.0000
  H   H3414     1.0  0.78995  0.81485  0.87743  1.0000
  H   H3415     1.0  0.84902  0.96096  0.67227  1.0000
  H   H3416     1.0  0.78700  0.97633  0.97381  1.0000
  H   H3417     1.0  0.64902  0.84657  0.89629  1.0000
  C   C4279     1.0  0.63290  0.82148  0.88455  1.0000
  C   C4280     1.0  0.70817  0.97383  0.80833  1.0000
  C   C4281     1.0  0.59481  0.96207  0.67480  1.0000
  H   H3418     1.0  0.55217  0.97036  0.90620  1.0000
  H   H3419     1.0  0.77865  0.96186  0.69767  1.0000
  C   C4282     1.0  0.51928  0.86496  0.88743  1.0000
  H   H3420     1.0  0.53273  0.91915  0.88080  1.0000
  H   H3421     1.0  0.53187  0.86703  0.68500  1.0000
  H   H3422     1.0  0.52559  0.86280  0.86898  1.0000
  C   C4283     1.0  0.84083  0.96711  0.67498  1.0000
  H   H3423     1.0  0.69489  0.97591  0.89387  1.0000
  H   H3424     1.0  0.51158  0.93980  0.55304  1.0000
  C   C4284     1.0  0.63220  0.94028  0.53913  1.0000
  H   H3425     1.0  0.50591  0.89287  0.91422  1.0000
  H   H3426     1.0  0.62274  0.80980  0.82170  1.0000
  C   C4285     1.0  0.49478  0.97076  0.74276  1.0000
  H   H3427     1.0  0.55562  0.95439  0.64986  1.0000
  H   H3428     1.0  0.67147  0.92766  0.50743  1.0000
  C   C4286     1.0  0.82586  0.96181  0.65815  1.0000
  C   C4287     1.0  0.70398  0.97430  0.93823  1.0000
  H   H3429     1.0  0.60172  0.95620  0.68656  1.0000
  Fe  Fe288     1.0  0.73376  0.78948  0.82674  1.0000
  C   C4288     1.0  0.67355  0.81208  0.83143  1.0000
  C   C4289     1.0  0.63356  0.93349  0.51185  1.0000
  H   H3430     1.0  0.64264  0.81873  0.87554  1.0000
  C   C4290     1.0  0.67117  0.80020  0.85255  1.0000
  C   C4291     1.0  0.52959  0.93969  0.81984  1.0000
  H   H3431     1.0  0.77479  0.79096  0.90683  1.0000
  H   H3432     1.0  0.75198  0.98462  0.63857  1.0000
  H   H3433     1.0  0.50978  0.96519  0.57215  1.0000
  C   C4292     1.0  0.55400  0.93243  0.93116  1.0000
  C   C4293     1.0  0.60659  0.93009  0.87363  1.0000
  H   H3434     1.0  0.68722  0.91049  0.50960  1.0000
  C   C4294     1.0  0.62660  0.79985  0.81883  1.0000
  C   C4295     1.0  0.59103  0.97336  0.92465  1.0000
  H   H3435     1.0  0.86453  0.85104  0.81023  1.0000
  C   C4296     1.0  0.54947  0.95786  0.58893  1.0000
  H   H3436     1.0  0.60202  0.93715  0.82987  1.0000
  P   P142      1.0  0.49950  0.84145  0.96259  1.0000
  H   H3437     1.0  0.52049  0.88794  0.87184  1.0000
  C   C4297     1.0  0.61684  0.80929  0.88522  1.0000
  H   H3438     1.0  0.62713  0.85308  0.91804  1.0000
  H   H3439     1.0  0.71332  0.96590  0.79861  1.0000
  S   S575      1.0  0.74788  0.80347  0.86861  1.0000
  C   C4298     1.0  0.57785  0.95359  0.66878  1.0000
  C   C4299     1.0  0.53409  0.97472  0.59403  1.0000
  C   C4300     1.0  0.60475  0.81292  0.89877  1.0000
  C   C4301     1.0  0.60841  0.82871  0.91012  1.0000
  C   C4302     1.0  0.62430  0.84089  0.90884  1.0000
  C   C4303     1.0  0.63659  0.83723  0.89632  1.0000
  H   H3440     1.0  0.57349  0.80900  0.96660  1.0000
  H   H3441     1.0  0.66118  0.93897  0.94584  1.0000
  C   C4304     1.0  0.52397  0.81191  0.94819  1.0000
  H   H3442     1.0  0.65245  0.81091  0.49423  1.0000
  C   C4305     1.0  0.56507  0.97568  0.91387  1.0000
  C   C4306     1.0  0.67656  0.95727  0.91786  1.0000
  C   C4307     1.0  0.68531  0.97757  0.82933  1.0000
  C   C4308     1.0  0.69220  0.94958  0.49612  1.0000
  H   H3443     1.0  0.75488  0.79357  0.96616  1.0000
  H   H3444     1.0  0.59151  0.98748  0.58674  1.0000
  H   H3445     1.0  0.74768  0.78960  0.71681  1.0000
  C   C4309     1.0  0.60275  0.97815  0.66592  1.0000
  H   H3446     1.0  0.70354  0.97449  0.54312  1.0000
  H   H3447     1.0  0.67053  0.97086  0.54780  1.0000
  C   C4310     1.0  0.53592  0.81646  0.97168  1.0000
  H   H3448     1.0  0.53309  0.98569  0.60232  1.0000
  C   C4311     1.0  0.70227  0.91185  0.97484  1.0000
  H   H3449     1.0  0.48469  0.98818  0.73211  1.0000
  H   H3450     1.0  0.54491  0.81111  0.97300  1.0000
  P   P143      1.0  0.61231  0.78869  0.87202  1.0000
  H   H3451     1.0  0.50743  0.97935  0.74089  1.0000
  C   C4312     1.0  0.77510  0.98697  0.65970  1.0000
  H   H3452     1.0  0.61582  0.98486  0.67119  1.0000
  C   C4313     1.0  0.59377  0.98565  0.65057  1.0000
  C   C4314     1.0  0.79550  0.98430  0.72040  1.0000
  H   H3453     1.0  0.77055  0.98621  0.68168  1.0000
  C   C4315     1.0  0.69338  0.98258  0.50516  1.0000
  C   C4316     1.0  0.79283  0.98550  0.77363  1.0000
  H   H3454     1.0  0.76221  0.98783  0.58777  1.0000
  P   P144      1.0  0.56511  0.98658  0.62404  1.0000
  C   C4317     1.0  0.70341  0.98489  0.53133  1.0000
  S   S576      1.0  0.75896  0.98717  0.82569  1.0000
  H   H3455     1.0  0.52481  0.98645  0.69592  1.0000
  C   C4318     1.0  0.54230  0.98663  0.66437  1.0000
  C   C4319     1.0  0.77027  0.98797  0.60669  1.0000
  H   H3456     1.0  0.71035  0.96908  0.98192  1.0000
  C   C4320     1.0  0.83456  0.98812  0.69915  1.0000
