data_image0
_chemical_formula_structural       FeS2FeHFeS3CFeS2FeSPFeSFeS4C7H4C7H4CH2CH2CHC2H3C2HC5HCH4C3H2C3HC3H4CHCHPHC5HCH2C2H2C3H3CHC3SCH2CHCHC2SH2PCHC3HC2H4CHCHC2HC2H4FeC4HC2SCHC4HC3H4CH3C4HC3SH2CHC2HCH2CH2CH2C3HCHCHC4H3C2H2CFeS2FeSCFeSFeS3H2CSC10H2C6H4C6H6PC3H3C6H3C7HC3HCHC2HCH6C6PC5HC3HC3PC4H5C4H3CH2C3HCH2CSHCHCH2C2SH3CH2CHC3HCHPH7C4HCH3CHCHCPCH3CHCHC2H2C3H3C2H2C4HC4H2C2H3CH2CHC4H2FeS2Fe2S3FeS2FeS2Fe2CS2C2HC2H3C6H5SHC4H2PHCH2C4HCHC2HFeHCHC5HC2SHC2H5C2HCH2CHCH3C2HC4H3C3HC2HCFeS2FeSFeSFeS3FeS2Fe2CSH3PCHC6H4C4H2C3HCH3CHCSC2HC3HC2HC2H4C2HC3H4CH2CH2SC2HSCH3C4H3CHC2PC2HCH2C4H2CH3C3H6C3FeSFeSCFeSFeS3HCH4CHC3H2C6H4C2H5C2H2C3H3C4HPCHC2HC3HC3HC3HC3HC3HCHCHPC2HCSC3HCH2SHCH3C4H3CHCH3CH3C3FeS2FeS2FeSCS2CHSC6H4C4HCHC3HCHC2H2C2PHC5HCHFeH3CHCH4CHCH3C2HC2HCH3CHC2HC4HC5H2CH2C4HC2HCHC4HCH2CH5C2PH2CH2CHC2HCFeCHCHC3H3C5H4CHCH3C2H2C3FeS2FeS2FeSFeS3H2FeS2FeCFeS3C5H2CH3C6H4C6H4CSH2SCPC4PC18HC2H15C3HC2HC3H5CHCHC7H2C2SC3HCHCHC2H2C2FeH5C4HC2H3C2H2CPH2CH2C4HC2PHCHCHC2HCHC5HCH4C2HC8PH4CHSH5C4H4CHCH2CH3C3HC3SFeS2FeS2FeSFeS3CHSH3C7H4C6H4C3H5C6PC2HCHC4H2C7H6CHCH3CH2C3H2CHC6PC6HCH2CHC6H7C3H3CHCHC3H3PC2HC3PHC4H2CH2C2HCH3CH2CH2CH2C3HCHCHC2H2C2HC2H2C4HCH2C3HC
_chemical_formula_sum              "Fe48 S96 H576 C720 P24"
_cell_length_a       45.3484
_cell_length_b       36.6646
_cell_length_c       35.8803
_cell_angle_alpha    89.7418
_cell_angle_beta     90.0723
_cell_angle_gamma    89.8786

_space_group_name_H-M_alt    "P 1"
_space_group_IT_number       1

loop_
  _space_group_symop_operation_xyz
  'x, y, z'

loop_
  _atom_site_type_symbol
  _atom_site_label
  _atom_site_symmetry_multiplicity
  _atom_site_fract_x
  _atom_site_fract_y
  _atom_site_fract_z
  _atom_site_occupancy
  Fe  Fe1       1.0  0.09517  0.40179  0.16662  1.0000
  S   S1        1.0  0.09896  0.39634  0.10421  1.0000
  S   S2        1.0  0.10473  0.36021  0.21408  1.0000
  Fe  Fe2       1.0  0.13200  0.44234  0.10728  1.0000
  H   H1        1.0  0.13457  0.20891  0.15953  1.0000
  Fe  Fe3       1.0  0.06448  0.44108  0.09873  1.0000
  S   S3        1.0  0.02230  0.43719  0.06088  1.0000
  S   S4        1.0  0.12959  0.44574  0.16914  1.0000
  S   S5        1.0  0.05846  0.44356  0.16197  1.0000
  C   C1        1.0  0.24817  0.37144  0.14489  1.0000
  Fe  Fe4       1.0  0.13071  0.13637  0.37155  1.0000
  S   S6        1.0  0.12101  0.12255  0.31212  1.0000
  S   S7        1.0  0.17666  0.15301  0.39045  1.0000
  Fe  Fe5       1.0  0.06562  0.13005  0.39528  1.0000
  S   S8        1.0  0.05156  0.11638  0.33662  1.0000
  P   P1        1.0  0.00356  0.37969  0.25311  1.0000
  Fe  Fe6       1.0  0.09120  0.07897  0.33539  1.0000
  S   S9        1.0  0.08760  0.02401  0.30550  1.0000
  Fe  Fe7       1.0  0.08267  0.16118  0.31752  1.0000
  S   S10       1.0  0.07200  0.19756  0.26668  1.0000
  S   S11       1.0  0.10380  0.09001  0.39484  1.0000
  S   S12       1.0  0.09385  0.17752  0.37631  1.0000
  S   S13       1.0  0.29085  0.08665  0.31360  1.0000
  C   C2        1.0  0.23983  0.33424  0.30626  1.0000
  C   C3        1.0  0.20798  0.13649  0.36647  1.0000
  C   C4        1.0  0.20590  0.10700  0.34208  1.0000
  C   C5        1.0  0.23148  0.09245  0.32566  1.0000
  C   C6        1.0  0.25930  0.10758  0.33304  1.0000
  C   C7        1.0  0.26131  0.13803  0.35621  1.0000
  C   C8        1.0  0.23573  0.15221  0.37316  1.0000
  H   H2        1.0  0.18465  0.09485  0.33666  1.0000
  H   H3        1.0  0.22971  0.06901  0.30757  1.0000
  H   H4        1.0  0.28258  0.15015  0.36173  1.0000
  H   H5        1.0  0.23748  0.17514  0.39187  1.0000
  C   C9        1.0  0.17088  0.01615  0.31593  1.0000
  C   C10       1.0  0.09630  0.31434  0.22745  1.0000
  C   C11       1.0  0.10369  0.30247  0.26370  1.0000
  C   C12       1.0  0.09722  0.26666  0.27594  1.0000
  C   C13       1.0  0.08309  0.24215  0.25207  1.0000
  C   C14       1.0  0.07615  0.25383  0.21562  1.0000
  C   C15       1.0  0.08286  0.28952  0.20328  1.0000
  H   H6        1.0  0.11405  0.32132  0.28272  1.0000
  H   H7        1.0  0.10244  0.25834  0.30414  1.0000
  H   H8        1.0  0.06523  0.23518  0.19687  1.0000
  H   H9        1.0  0.07743  0.29784  0.17514  1.0000
  C   C16       1.0  0.13137  0.18441  0.17580  1.0000
  H   H10       1.0  0.26560  0.11250  0.24443  1.0000
  H   H11       1.0  0.03128  0.24390  0.32298  1.0000
  C   C17       1.0  0.19498  0.45107  0.22342  1.0000
  H   H12       1.0  0.23114  0.28986  0.12686  1.0000
  H   H13       1.0  0.30427  0.46165  0.19180  1.0000
  C   C18       1.0  0.15223  0.17288  0.20238  1.0000
  H   H14       1.0  0.28845  0.19742  0.20787  1.0000
  C   C19       1.0  0.29633  0.48152  0.21171  1.0000
  C   C20       1.0  0.03121  0.41381  0.26225  1.0000
  H   H15       1.0  0.17784  0.39913  0.20559  1.0000
  H   H16       1.0  0.16827  0.30592  0.25468  1.0000
  H   H17       1.0  0.14036  0.20111  0.27150  1.0000
  C   C21       1.0  0.28356  0.25399  0.22305  1.0000
  C   C22       1.0  0.29327  0.21810  0.22846  1.0000
  H   H18       1.0  0.18343  0.02296  0.37326  1.0000
  C   C23       1.0  0.23072  0.15014  0.23041  1.0000
  C   C24       1.0  0.21306  0.33239  0.32556  1.0000
  C   C25       1.0  0.18727  0.32236  0.30689  1.0000
  C   C26       1.0  0.18825  0.31406  0.26898  1.0000
  C   C27       1.0  0.21498  0.31573  0.24967  1.0000
  H   H19       1.0  0.27092  0.26060  0.19838  1.0000
  C   C28       1.0  0.04702  0.47707  0.25968  1.0000
  H   H20       1.0  0.14381  0.21624  0.33805  1.0000
  H   H21       1.0  0.21235  0.33828  0.35510  1.0000
  H   H22       1.0  0.16656  0.32045  0.32184  1.0000
  H   H23       1.0  0.21546  0.30823  0.22061  1.0000
  C   C29       1.0  0.24088  0.32649  0.26799  1.0000
  C   C30       1.0  0.27220  0.33793  0.19499  1.0000
  C   C31       1.0  0.16310  0.26574  0.18750  1.0000
  H   H24       1.0  0.06547  0.37526  0.27765  1.0000
  H   H25       1.0  0.19125  0.23559  0.36551  1.0000
  C   C32       1.0  0.00210  0.37193  0.12494  1.0000
  C   C33       1.0  0.30944  0.20889  0.26031  1.0000
  C   C34       1.0  0.18087  0.41759  0.22884  1.0000
  H   H26       1.0  0.25974  0.34125  0.32128  1.0000
  C   C35       1.0  0.24950  0.36101  0.18238  1.0000
  C   C36       1.0  0.01506  0.27029  0.27332  1.0000
  C   C37       1.0  0.29009  0.28098  0.24944  1.0000
  H   H27       1.0  0.23264  0.22691  0.25850  1.0000
  H   H28       1.0  0.14527  0.31724  0.16869  1.0000
  H   H29       1.0  0.04183  0.34026  0.13124  1.0000
  H   H30       1.0  0.23307  0.37141  0.20142  1.0000
  C   C38       1.0  0.29789  0.01685  0.43579  1.0000
  H   H31       1.0  0.23048  0.38900  0.13515  1.0000
  C   C39       1.0  0.02517  0.45068  0.25461  1.0000
  H   H32       1.0  0.19921  0.48676  0.12893  1.0000
  P   P2        1.0  0.27574  0.32664  0.24370  1.0000
  H   H33       1.0  0.23564  0.24162  0.32540  1.0000
  C   C40       1.0  0.19802  0.47579  0.25305  1.0000
  C   C41       1.0  0.21535  0.16816  0.20160  1.0000
  C   C42       1.0  0.21483  0.23324  0.31340  1.0000
  C   C43       1.0  0.18983  0.23018  0.33590  1.0000
  C   C44       1.0  0.21205  0.28293  0.14362  1.0000
  H   H34       1.0  0.15635  0.03969  0.31564  1.0000
  C   C45       1.0  0.26125  0.11928  0.18502  1.0000
  H   H35       1.0  0.31354  0.31210  0.17982  1.0000
  H   H36       1.0  0.20970  0.17206  0.14180  1.0000
  C   C46       1.0  0.21309  0.22470  0.27554  1.0000
  C   C47       1.0  0.16305  0.21905  0.32044  1.0000
  H   H37       1.0  0.16183  0.00234  0.25891  1.0000
  H   H38       1.0  0.20243  0.45809  0.19564  1.0000
  C   C48       1.0  0.02441  0.35702  0.18433  1.0000
  C   C49       1.0  0.25375  0.12613  0.22207  1.0000
  C   C50       1.0  0.18810  0.30693  0.14512  1.0000
  H   H39       1.0  0.15675  0.38362  0.26697  1.0000
  H   H40       1.0  0.27910  0.10057  0.17873  1.0000
  H   H41       1.0  0.28332  0.43251  0.05971  1.0000
  C   C51       1.0  0.24537  0.13598  0.15619  1.0000
  H   H42       1.0  0.26921  0.36833  0.09113  1.0000
  C   C52       1.0  0.30625  0.27148  0.28145  1.0000
  C   C53       1.0  0.10561  0.16424  0.17008  1.0000
  C   C54       1.0  0.18651  0.21218  0.26014  1.0000
  S   S14       1.0  0.17579  0.43185  0.07739  1.0000
  C   C55       1.0  0.02307  0.44210  0.98189  1.0000
  H   H43       1.0  0.00230  0.37062  0.09474  1.0000
  H   H44       1.0  0.25081  0.13004  0.12745  1.0000
  C   C56       1.0  0.10078  0.13210  0.19020  1.0000
  H   H45       1.0  0.08916  0.17382  0.15043  1.0000
  C   C57       1.0  0.27000  0.35991  0.12008  1.0000
  H   H46       1.0  0.16225  0.42636  0.31999  1.0000
  C   C58       1.0  0.21199  0.44750  0.08773  1.0000
  C   C59       1.0  0.27054  0.47156  0.10119  1.0000
  S   S15       1.0  0.09806  0.48710  0.09855  1.0000
  H   H47       1.0  0.22483  0.15391  0.25939  1.0000
  H   H48       1.0  0.31150  0.29178  0.30224  1.0000
  P   P3        1.0  0.18520  0.19888  0.21185  1.0000
  C   C60       1.0  0.16131  0.21010  0.28269  1.0000
  H   H49       1.0  0.16336  0.13056  0.24232  1.0000
  C   C61       1.0  0.18631  0.46640  0.28807  1.0000
  C   C62       1.0  0.22226  0.15996  0.16443  1.0000
  C   C63       1.0  0.24653  0.48696  0.12027  1.0000
  H   H50       1.0  0.23202  0.41162  0.04758  1.0000
  C   C64       1.0  0.01225  0.33648  0.27502  1.0000
  C   C65       1.0  0.26515  0.44400  0.07529  1.0000
  H   H51       1.0  0.30779  0.01026  0.34215  1.0000
  H   H52       1.0  0.00019  0.30310  0.22757  1.0000
  H   H53       1.0  0.11800  0.09492  0.23142  1.0000
  H   H54       1.0  0.09228  0.48715  0.27449  1.0000
  C   C66       1.0  0.23601  0.43237  0.06832  1.0000
  H   H55       1.0  0.23046  0.23239  0.16260  1.0000
  C   C67       1.0  0.02429  0.35466  0.14548  1.0000
  H   H56       1.0  0.18841  0.33224  0.12929  1.0000
  C   C68       1.0  0.14750  0.14010  0.22184  1.0000
  C   C69       1.0  0.21144  0.25013  0.16375  1.0000
  H   H57       1.0  0.08055  0.11690  0.18635  1.0000
  C   C70       1.0  0.18659  0.24083  0.18512  1.0000
  C   C71       1.0  0.12188  0.11979  0.21570  1.0000
  H   H58       1.0  0.27443  0.03858  0.38807  1.0000
  H   H59       1.0  0.14415  0.25976  0.20488  1.0000
  H   H60       1.0  0.31420  0.09684  0.40791  1.0000
  H   H61       1.0  0.03649  0.30172  0.35806  1.0000
  Fe  Fe8       1.0  0.09348  0.48733  0.16163  1.0000
  C   C72       1.0  0.31603  0.23558  0.28668  1.0000
  C   C73       1.0  0.16374  0.29844  0.16727  1.0000
  C   C74       1.0  0.21746  0.47461  0.11413  1.0000
  C   C75       1.0  0.17185  0.43305  0.29321  1.0000
  H   H62       1.0  0.02418  0.36063  0.32786  1.0000
  C   C76       1.0  0.29463  0.32767  0.17020  1.0000
  C   C77       1.0  0.00199  0.37586  0.20303  1.0000
  S   S16       1.0  0.03910  0.12958  0.45019  1.0000
  C   C78       1.0  0.05964  0.40366  0.27383  1.0000
  H   H63       1.0  0.04649  0.44712  0.98421  1.0000
  C   C79       1.0  0.02856  0.30231  0.32957  1.0000
  C   C80       1.0  0.16897  0.40879  0.26353  1.0000
  C   C81       1.0  0.07514  0.46677  0.27175  1.0000
  C   C82       1.0  0.00656  0.43588  0.01439  1.0000
  H   H64       1.0  0.04217  0.34462  0.19991  1.0000
  C   C83       1.0  0.29273  0.02184  0.39767  1.0000
  C   C84       1.0  0.08149  0.43007  0.27859  1.0000
  C   C85       1.0  0.29343  0.33846  0.13286  1.0000
  H   H65       1.0  0.31120  0.33099  0.11413  1.0000
  H   H66       1.0  0.30037  0.44851  0.29273  1.0000
  H   H67       1.0  0.07869  0.02198  0.45398  1.0000
  H   H68       1.0  0.10364  0.42188  0.28614  1.0000
  C   C86       1.0  0.02175  0.33558  0.31229  1.0000
  H   H69       1.0  0.25135  0.46934  0.20044  1.0000
  H   H70       1.0  0.26599  0.39971  0.27422  1.0000
  H   H71       1.0  0.01851  0.05224  0.42666  1.0000
  C   C87       1.0  0.02541  0.26970  0.30999  1.0000
  C   C88       1.0  0.30892  0.42241  0.28368  1.0000
  C   C89       1.0  0.26602  0.48600  0.21678  1.0000
  C   C90       1.0  0.28951  0.39455  0.27352  1.0000
  H   H72       1.0  0.18754  0.48495  0.31129  1.0000
  C   C91       1.0  0.30999  0.11591  0.43033  1.0000
  C   C92       1.0  0.31154  0.00580  0.37169  1.0000
  C   C93       1.0  0.30052  0.36084  0.26124  1.0000
  S   S17       1.0  0.30616  0.49085  0.10711  1.0000
  H   H73       1.0  0.31730  0.18118  0.26434  1.0000
  H   H74       1.0  0.01296  0.24489  0.25816  1.0000
  C   C94       1.0  0.00830  0.30347  0.25591  1.0000
  H   H75       1.0  0.26336  0.10492  0.43225  1.0000
  C   C95       1.0  0.18592  0.00643  0.34850  1.0000
  C   C96       1.0  0.28141  0.12050  0.44401  1.0000
  H   H76       1.0  0.00107  0.02680  0.36679  1.0000
  C   C97       1.0  0.99845  0.03612  0.42584  1.0000
  H   H77       1.0  0.00384  0.45894  0.24386  1.0000
  H   H78       1.0  0.28337  0.02958  0.45589  1.0000
  C   C98       1.0  0.03700  0.33438  0.68467  1.0000
  H   H79       1.0  0.04563  0.40903  0.60843  1.0000
  H   H80       1.0  0.02244  0.44777  0.92175  1.0000
  C   C99       1.0  0.00924  0.44253  0.94627  1.0000
  H   H81       1.0  0.05091  0.03394  0.51211  1.0000
  H   H82       1.0  0.01538  0.13829  0.52355  1.0000
  C   C100      1.0  0.06354  0.00163  0.46474  1.0000
  C   C101      1.0  0.01190  0.34773  0.66608  1.0000
  C   C102      1.0  0.04795  0.00830  0.49761  1.0000
  H   H83       1.0  0.03514  0.31360  0.70603  1.0000
  C   C103      1.0  0.04322  0.38818  0.62971  1.0000
  H   H84       1.0  0.31551  0.30359  0.58312  1.0000
  C   C104      1.0  0.06496  0.34797  0.67588  1.0000
  H   H85       1.0  0.08975  0.38539  0.64172  1.0000
  C   C105      1.0  0.29911  0.16665  0.48671  1.0000
  C   C106      1.0  0.01524  0.37468  0.63845  1.0000
  C   C107      1.0  0.99730  0.14249  0.50431  1.0000
  C   C108      1.0  0.06808  0.37486  0.64844  1.0000
  H   H86       1.0  0.08422  0.33766  0.69044  1.0000
  H   H87       1.0  0.29426  0.18640  0.50814  1.0000
  H   H88       1.0  0.25362  0.14986  0.48209  1.0000
  C   C109      1.0  0.27595  0.14592  0.47209  1.0000
  C   C110      1.0  0.00266  0.14049  0.46570  1.0000
  H   H89       1.0  0.31980  0.24050  0.60790  1.0000
  H   H90       1.0  0.99617  0.38525  0.62366  1.0000
  C   C111      1.0  0.32355  0.28189  0.56537  1.0000
  Fe  Fe9       1.0  0.14361  0.73082  0.36694  1.0000
  S   S18       1.0  0.13683  0.75971  0.31256  1.0000
  S   S19       1.0  0.18784  0.70401  0.37919  1.0000
  Fe  Fe10      1.0  0.07936  0.74723  0.39355  1.0000
  S   S20       1.0  0.06897  0.77602  0.33941  1.0000
  C   C112      1.0  0.23398  0.86420  0.43714  1.0000
  Fe  Fe11      1.0  0.09376  0.72888  0.31188  1.0000
  S   S21       1.0  0.08130  0.69935  0.25750  1.0000
  Fe  Fe12      1.0  0.11333  0.80350  0.34519  1.0000
  S   S22       1.0  0.12814  0.86294  0.35321  1.0000
  S   S23       1.0  0.10131  0.69869  0.36586  1.0000
  S   S24       1.0  0.12304  0.77563  0.39974  1.0000
  H   H91       1.0  0.04539  0.84906  0.30941  1.0000
  H   H92       1.0  0.21474  0.96782  0.37495  1.0000
  C   C113      1.0  0.03939  0.94281  0.45888  1.0000
  S   S25       1.0  0.09656  0.53178  0.20731  1.0000
  C   C114      1.0  0.30112  0.96411  0.27412  1.0000
  C   C115      1.0  0.04365  0.87219  0.36443  1.0000
  C   C116      1.0  0.27115  0.63189  0.29964  1.0000
  C   C117      1.0  0.23242  0.67188  0.23590  1.0000
  C   C118      1.0  0.06398  0.87081  0.45440  1.0000
  C   C119      1.0  0.27993  0.74247  0.23828  1.0000
  C   C120      1.0  0.27943  0.62436  0.12473  1.0000
  C   C121      1.0  0.11608  0.90739  0.33966  1.0000
  C   C122      1.0  0.12175  0.93703  0.36346  1.0000
  C   C123      1.0  0.10305  0.91432  0.30502  1.0000
  H   H93       1.0  0.13291  0.93231  0.38970  1.0000
  H   H94       1.0  0.09936  0.89207  0.28592  1.0000
  C   C124      1.0  0.08667  0.65277  0.24383  1.0000
  C   C125      1.0  0.09826  0.62627  0.26804  1.0000
  C   C126      1.0  0.10137  0.58967  0.25621  1.0000
  C   C127      1.0  0.09310  0.57886  0.21998  1.0000
  C   C128      1.0  0.08208  0.60549  0.19554  1.0000
  C   C129      1.0  0.07885  0.64206  0.20744  1.0000
  H   H95       1.0  0.10435  0.63386  0.29610  1.0000
  H   H96       1.0  0.10997  0.56949  0.27544  1.0000
  H   H97       1.0  0.07561  0.59784  0.16764  1.0000
  H   H98       1.0  0.06992  0.66218  0.18836  1.0000
  C   C130      1.0  0.21941  0.72882  0.36524  1.0000
  C   C131      1.0  0.21696  0.76504  0.35333  1.0000
  C   C132      1.0  0.24227  0.78461  0.34292  1.0000
  C   C133      1.0  0.27022  0.76820  0.34382  1.0000
  C   C134      1.0  0.27274  0.73171  0.35506  1.0000
  C   C135      1.0  0.24739  0.71217  0.36602  1.0000
  H   H99       1.0  0.19561  0.77825  0.35269  1.0000
  H   H100      1.0  0.24020  0.81277  0.33449  1.0000
  H   H101      1.0  0.29417  0.71870  0.35568  1.0000
  H   H102      1.0  0.24945  0.68409  0.37504  1.0000
  H   H103      1.0  0.26177  0.74228  0.25762  1.0000
  H   H104      1.0  0.30501  0.59745  0.22412  1.0000
  P   P4        1.0  0.21561  0.51959  0.24532  1.0000
  C   C136      1.0  0.29712  0.60493  0.19678  1.0000
  C   C137      1.0  0.01635  0.54474  0.97806  1.0000
  C   C138      1.0  0.01160  0.52733  0.01223  1.0000
  H   H105      1.0  0.25444  0.85363  0.27142  1.0000
  H   H106      1.0  0.03013  0.51768  0.02874  1.0000
  H   H107      1.0  0.03868  0.54901  0.96829  1.0000
  C   C139      1.0  0.20636  0.55080  0.28266  1.0000
  C   C140      1.0  0.18572  0.57898  0.27689  1.0000
  C   C141      1.0  0.17883  0.60311  0.30570  1.0000
  C   C142      1.0  0.19244  0.59953  0.34043  1.0000
  C   C143      1.0  0.21249  0.57116  0.34673  1.0000
  C   C144      1.0  0.21935  0.54679  0.31806  1.0000
  H   H108      1.0  0.23149  0.80393  0.23602  1.0000
  H   H109      1.0  0.30925  0.84860  0.39297  1.0000
  H   H110      1.0  0.19405  0.94796  0.25929  1.0000
  C   C145      1.0  0.20224  0.53845  0.20190  1.0000
  C   C146      1.0  0.17301  0.53238  0.19075  1.0000
  C   C147      1.0  0.16251  0.54697  0.15720  1.0000
  C   C148      1.0  0.18108  0.56767  0.13452  1.0000
  C   C149      1.0  0.21011  0.57421  0.14564  1.0000
  C   C150      1.0  0.22060  0.56004  0.17945  1.0000
  C   C151      1.0  0.20362  0.97510  0.34931  1.0000
  H   H111      1.0  0.32399  0.68753  0.18563  1.0000
  C   C152      1.0  0.31767  0.90603  0.29888  1.0000
  C   C153      1.0  0.27280  0.64721  0.15474  1.0000
  C   C154      1.0  0.31625  0.50308  0.23146  1.0000
  H   H112      1.0  0.17463  0.58248  0.25038  1.0000
  C   C155      1.0  0.28966  0.71038  0.22080  1.0000
  H   H113      1.0  0.22264  0.56813  0.37391  1.0000
  C   C156      1.0  0.30574  0.52956  0.25598  1.0000
  C   C157      1.0  0.32368  0.93876  0.28029  1.0000
  H   H114      1.0  0.04958  0.84672  0.37798  1.0000
  C   C158      1.0  0.28901  0.89843  0.31084  1.0000
  H   H115      1.0  0.13993  0.54198  0.14868  1.0000
  H   H116      1.0  0.17298  0.57836  0.10822  1.0000
  H   H117      1.0  0.22456  0.58982  0.12776  1.0000
  H   H118      1.0  0.24314  0.56528  0.18758  1.0000
  H   H119      1.0  0.07235  0.96372  0.42069  1.0000
  H   H120      1.0  0.28470  0.87281  0.32501  1.0000
  C   C159      1.0  0.21776  0.82411  0.24950  1.0000
  C   C160      1.0  0.18709  0.82099  0.24771  1.0000
  C   C161      1.0  0.16932  0.84665  0.26557  1.0000
  C   C162      1.0  0.18218  0.87521  0.28541  1.0000
  C   C163      1.0  0.21295  0.87841  0.28784  1.0000
  C   C164      1.0  0.23069  0.85261  0.26954  1.0000
  P   P5        1.0  0.22887  0.91245  0.31829  1.0000
  C   C165      1.0  0.23027  0.89427  0.36517  1.0000
  C   C166      1.0  0.26600  0.92328  0.30378  1.0000
  C   C167      1.0  0.03270  0.90568  0.30772  1.0000
  C   C168      1.0  0.11514  0.85125  0.45417  1.0000
  C   C169      1.0  0.02755  0.93714  0.32858  1.0000
  H   H121      1.0  0.24758  0.62881  0.29623  1.0000
  C   C170      1.0  0.20650  0.95338  0.31736  1.0000
  C   C171      1.0  0.25171  0.90670  0.39040  1.0000
  C   C172      1.0  0.25357  0.89163  0.42622  1.0000
  H   H122      1.0  0.02488  0.96027  0.38310  1.0000
  C   C173      1.0  0.21226  0.85220  0.41244  1.0000
  C   C174      1.0  0.21026  0.86732  0.37671  1.0000
  C   C175      1.0  0.02990  0.93598  0.36742  1.0000
  P   P6        1.0  0.03546  0.89968  0.43554  1.0000
  C   C176      1.0  0.27234  0.95642  0.28569  1.0000
  C   C177      1.0  0.22128  0.68959  0.26756  1.0000
  C   C178      1.0  0.11292  0.97279  0.35379  1.0000
  C   C179      1.0  0.99931  0.88012  0.44034  1.0000
  H   H123      1.0  0.03121  0.90668  0.27760  1.0000
  H   H124      1.0  0.17707  0.79843  0.23298  1.0000
  H   H125      1.0  0.14551  0.84395  0.26500  1.0000
  H   H126      1.0  0.16804  0.89419  0.29991  1.0000
  H   H127      1.0  0.27102  0.60620  0.35377  1.0000
  C   C180      1.0  0.27533  0.53484  0.26030  1.0000
  C   C181      1.0  0.09935  0.97959  0.31942  1.0000
  C   C182      1.0  0.09492  0.95023  0.29492  1.0000
  C   C183      1.0  0.29438  0.59150  0.13086  1.0000
  H   H128      1.0  0.31585  0.55695  0.17112  1.0000
  H   H129      1.0  0.26706  0.92790  0.38233  1.0000
  H   H130      1.0  0.26790  0.55692  0.27771  1.0000
  C   C184      1.0  0.31877  0.77696  0.20820  1.0000
  H   H131      1.0  0.19708  0.83080  0.42064  1.0000
  H   H132      1.0  0.19332  0.85735  0.35813  1.0000
  C   C185      1.0  0.99581  0.72621  0.44442  1.0000
  C   C186      1.0  0.17123  0.68006  0.24620  1.0000
  C   C187      1.0  0.28090  0.63718  0.19119  1.0000
  H   H133      1.0  0.00215  0.71375  0.41835  1.0000
  C   C188      1.0  0.28832  0.64913  0.27216  1.0000
  H   H134      1.0  0.18723  0.61872  0.36246  1.0000
  H   H135      1.0  0.21986  0.64232  0.18603  1.0000
  C   C189      1.0  0.19192  0.96396  0.28443  1.0000
  S   S26       1.0  0.05303  0.75451  0.44800  1.0000
  H   H136      1.0  0.14765  0.68339  0.25020  1.0000
  C   C190      1.0  0.28442  0.61847  0.33218  1.0000
  H   H137      1.0  0.15825  0.51643  0.20800  1.0000
  C   C191      1.0  0.99557  0.84211  0.44029  1.0000
  H   H138      1.0  0.16276  0.62462  0.30118  1.0000
  H   H139      1.0  0.25054  0.50883  0.13959  1.0000
  C   C192      1.0  0.03812  0.90353  0.38561  1.0000
  C   C193      1.0  0.04086  0.87327  0.32563  1.0000
  S   S27       1.0  0.30110  0.79484  0.33110  1.0000
  H   H140      1.0  0.02215  0.96256  0.31459  1.0000
  H   H141      1.0  0.09663  0.88954  0.41534  1.0000
  H   H142      1.0  0.08477  0.95521  0.26808  1.0000
  C   C194      1.0  0.09232  0.87231  0.43915  1.0000
  H   H143      1.0  0.23598  0.69968  0.28894  1.0000
  H   H144      1.0  0.16651  0.64997  0.19527  1.0000
  C   C195      1.0  0.18193  0.66138  0.21519  1.0000
  H   H145      1.0  0.11697  0.99514  0.37267  1.0000
  C   C196      1.0  0.19093  0.69375  0.27255  1.0000
  C   C197      1.0  0.21236  0.65721  0.21005  1.0000
  C   C198      1.0  0.31492  0.62129  0.33707  1.0000
  H   H146      1.0  0.01444  0.82394  0.44008  1.0000
  C   C199      1.0  0.30362  0.58208  0.16675  1.0000
  H   H147      1.0  0.18271  0.70719  0.29726  1.0000
  P   P7        1.0  0.27198  0.66691  0.22982  1.0000
  H   H148      1.0  0.26127  0.67267  0.14963  1.0000
  H   H149      1.0  0.27279  0.63195  0.09673  1.0000
  H   H150      1.0  0.13669  0.85173  0.44112  1.0000
  H   H151      1.0  0.29895  0.57322  0.10788  1.0000
  H   H152      1.0  0.04262  0.50544  0.25292  1.0000
  H   H153      1.0  0.23478  0.52480  0.32346  1.0000
  H   H154      1.0  0.25522  0.97638  0.28031  1.0000
  C   C200      1.0  0.29447  0.77552  0.23198  1.0000
  C   C201      1.0  0.25511  0.51249  0.24137  1.0000
  C   C202      1.0  0.31889  0.65165  0.27731  1.0000
  C   C203      1.0  0.31474  0.71198  0.19778  1.0000
  H   H155      1.0  0.28758  0.79981  0.24671  1.0000
  C   C204      1.0  0.05958  0.96881  0.44567  1.0000
  H   H156      1.0  0.27038  0.90096  0.44538  1.0000
  H   H157      1.0  0.32126  0.54688  0.27060  1.0000
  H   H158      1.0  0.30594  0.98970  0.26013  1.0000
  C   C205      1.0  0.17392  0.99498  0.28391  1.0000
  H   H159      1.0  0.32438  0.91291  0.39481  1.0000
  C   C206      1.0  0.32190  0.99582  0.44796  1.0000
  H   H160      1.0  0.32522  0.61111  0.36233  1.0000
  C   C207      1.0  0.10132  0.68612  0.58469  1.0000
  P   P8        1.0  0.04592  0.71752  0.59882  1.0000
  C   C208      1.0  0.01590  0.68004  0.54232  1.0000
  H   H161      1.0  0.06063  0.75527  0.66906  1.0000
  H   H162      1.0  0.02257  0.78064  0.51282  1.0000
  H   H163      1.0  0.06646  0.73316  0.73352  1.0000
  C   C209      1.0  0.06141  0.71402  0.71149  1.0000
  H   H164      1.0  0.03757  0.84891  0.49949  1.0000
  C   C210      1.0  0.05122  0.65235  0.69153  1.0000
  H   H165      1.0  0.07235  0.84855  0.59854  1.0000
  C   C211      1.0  0.00864  0.77831  0.60236  1.0000
  C   C212      1.0  0.12648  0.67998  0.56297  1.0000
  H   H166      1.0  0.00966  0.92884  0.50367  1.0000
  H   H167      1.0  0.09936  0.67220  0.61120  1.0000
  C   C213      1.0  0.05794  0.67701  0.71987  1.0000
  C   C214      1.0  0.07909  0.70987  0.57196  1.0000
  C   C215      1.0  0.12950  0.69725  0.52835  1.0000
  H   H168      1.0  0.04255  0.64523  0.63318  1.0000
  H   H169      1.0  0.06029  0.66746  0.74835  1.0000
  H   H170      1.0  0.06531  0.74482  0.52653  1.0000
  C   C216      1.0  0.04789  0.66468  0.65482  1.0000
  C   C217      1.0  0.03782  0.76588  0.59941  1.0000
  H   H171      1.0  0.04833  0.62369  0.69806  1.0000
  H   H172      1.0  0.01650  0.98723  0.53712  1.0000
  C   C218      1.0  0.08185  0.82816  0.50122  1.0000
  C   C219      1.0  0.05806  0.72647  0.67480  1.0000
  C   C220      1.0  0.05456  0.82890  0.59953  1.0000
  C   C221      1.0  0.10744  0.72078  0.51550  1.0000
  H   H173      1.0  0.08356  0.78263  0.59682  1.0000
  C   C222      1.0  0.02537  0.84096  0.60214  1.0000
  C   C223      1.0  0.06081  0.79150  0.59838  1.0000
  C   C224      1.0  0.05114  0.70188  0.64620  1.0000
  C   C225      1.0  0.08242  0.72708  0.53723  1.0000
  H   H174      1.0  0.10937  0.73367  0.48830  1.0000
  H   H175      1.0  0.07762  0.81044  0.52469  1.0000
  C   C226      1.0  0.01522  0.69257  0.57926  1.0000
  C   C227      1.0  0.00733  0.76359  0.49771  1.0000
  H   H176      1.0  0.32551  0.99240  0.47756  1.0000
  H   H177      1.0  0.14876  0.69216  0.51122  1.0000
  H   H178      1.0  0.12725  0.81148  0.49579  1.0000
  C   C228      1.0  0.05906  0.84956  0.48642  1.0000
  H   H179      1.0  0.03460  0.68515  0.52443  1.0000
  H   H180      1.0  0.14354  0.66156  0.57278  1.0000
  C   C229      1.0  0.02844  0.98206  0.51152  1.0000
  H   H181      1.0  0.02045  0.86987  0.60334  1.0000
  C   C230      1.0  0.10982  0.82875  0.48494  1.0000
  C   C231      1.0  0.02427  0.94933  0.49229  1.0000
  C   C232      1.0  0.00243  0.81565  0.60369  1.0000
  C   C233      1.0  0.01617  0.74757  0.46384  1.0000
  H   H182      1.0  0.23563  0.85212  0.46467  1.0000
  H   H183      1.0  0.99648  0.57006  0.93022  1.0000
  Fe  Fe13      1.0  0.38655  0.39531  0.14040  1.0000
  S   S28       1.0  0.37164  0.41283  0.08261  1.0000
  S   S29       1.0  0.37629  0.33507  0.15506  1.0000
  Fe  Fe14      1.0  0.35058  0.46114  0.11066  1.0000
  Fe  Fe15      1.0  0.41395  0.44574  0.07921  1.0000
  S   S30       1.0  0.43928  0.44629  0.02190  1.0000
  S   S31       1.0  0.36279  0.44173  0.16800  1.0000
  S   S32       1.0  0.42962  0.42647  0.13627  1.0000
  Fe  Fe16      1.0  0.38667  0.16005  0.30308  1.0000
  S   S33       1.0  0.35774  0.15125  0.35368  1.0000
  S   S34       1.0  0.39708  0.22026  0.28910  1.0000
  Fe  Fe17      1.0  0.39829  0.07638  0.29674  1.0000
  S   S35       1.0  0.36994  0.06395  0.34564  1.0000
  S   S36       1.0  0.42473  0.03035  0.27012  1.0000
  Fe  Fe18      1.0  0.33835  0.10481  0.32131  1.0000
  Fe  Fe19      1.0  0.39261  0.11120  0.37309  1.0000
  C   C234      1.0  0.60873  0.35358  0.96793  1.0000
  S   S37       1.0  0.36550  0.11498  0.26971  1.0000
  S   S38       1.0  0.42252  0.12237  0.32494  1.0000
  C   C235      1.0  0.58293  0.03841  0.43704  1.0000
  C   C236      1.0  0.59311  0.32398  0.98259  1.0000
  H   H184      1.0  0.44762  0.15803  0.40854  1.0000
  C   C237      1.0  0.47006  0.44726  0.98948  1.0000
  C   C238      1.0  0.61192  0.13573  0.39098  1.0000
  H   H185      1.0  0.52831  0.11310  0.40481  1.0000
  H   H186      1.0  0.50984  0.02040  0.30708  1.0000
  H   H187      1.0  0.50452  0.44462  0.03065  1.0000
  C   C239      1.0  0.38264  0.30363  0.19264  1.0000
  C   C240      1.0  0.37056  0.26827  0.19050  1.0000
  C   C241      1.0  0.37481  0.24237  0.21940  1.0000
  C   C242      1.0  0.39103  0.25152  0.25124  1.0000
  C   C243      1.0  0.40287  0.28699  0.25354  1.0000
  C   C244      1.0  0.39891  0.31275  0.22444  1.0000
  H   H188      1.0  0.35800  0.26071  0.16609  1.0000
  H   H189      1.0  0.36564  0.21530  0.21694  1.0000
  H   H190      1.0  0.41555  0.29449  0.27786  1.0000
  H   H191      1.0  0.40856  0.33961  0.22653  1.0000
  H   H192      1.0  0.33771  0.21654  0.41816  1.0000
  S   S39       1.0  0.41023  0.09712  0.43108  1.0000
  H   H193      1.0  0.41769  0.25093  0.36518  1.0000
  C   C245      1.0  0.45627  0.14670  0.43422  1.0000
  C   C246      1.0  0.61036  0.05293  0.36465  1.0000
  C   C247      1.0  0.37591  0.23547  0.38876  1.0000
  C   C248      1.0  0.33109  0.35585  0.25811  1.0000
  H   H194      1.0  0.59102  0.08076  0.31708  1.0000
  H   H195      1.0  0.36367  0.24342  0.36406  1.0000
  P   P9        1.0  0.58269  0.06868  0.39715  1.0000
  H   H196      1.0  0.47310  0.36721  0.02428  1.0000
  C   C249      1.0  0.56667  0.00588  0.43631  1.0000
  H   H197      1.0  0.60107  0.31024  0.00744  1.0000
  H   H198      1.0  0.54561  0.44523  0.98464  1.0000
  C   C250      1.0  0.63395  0.03097  0.37676  1.0000
  C   C251      1.0  0.44272  0.11629  0.45024  1.0000
  C   C252      1.0  0.52480  0.09259  0.38367  1.0000
  C   C253      1.0  0.49245  0.06610  0.33725  1.0000
  H   H199      1.0  0.43778  0.03662  0.37199  1.0000
  C   C254      1.0  0.52306  0.44629  0.97483  1.0000
  H   H200      1.0  0.35444  0.43907  0.28749  1.0000
  C   C255      1.0  0.63008  0.05133  0.30165  1.0000
  C   C256      1.0  0.60873  0.06328  0.32693  1.0000
  H   H201      1.0  0.61356  0.21169  0.44510  1.0000
  Fe  Fe20      1.0  0.40395  0.47480  0.15999  1.0000
  H   H202      1.0  0.63532  0.18673  0.38719  1.0000
  C   C257      1.0  0.49465  0.34484  0.97585  1.0000
  H   H203      1.0  0.62863  0.05932  0.27258  1.0000
  C   C258      1.0  0.65331  0.02919  0.31385  1.0000
  C   C259      1.0  0.49964  0.44602  0.00118  1.0000
  C   C260      1.0  0.47034  0.35748  0.99599  1.0000
  C   C261      1.0  0.59182  0.11456  0.41155  1.0000
  C   C262      1.0  0.60744  0.18476  0.43560  1.0000
  H   H204      1.0  0.63607  0.02303  0.40572  1.0000
  C   C263      1.0  0.54693  0.06724  0.37466  1.0000
  C   C264      1.0  0.42254  0.22908  0.42079  1.0000
  S   S40       1.0  0.39129  0.49574  0.10335  1.0000
  H   H205      1.0  0.34002  0.33075  0.24694  1.0000
  C   C265      1.0  0.49768  0.09191  0.36501  1.0000
  C   C266      1.0  0.54107  0.04062  0.34752  1.0000
  H   H206      1.0  0.49027  0.18744  0.44000  1.0000
  H   H207      1.0  0.48221  0.01377  0.43932  1.0000
  H   H208      1.0  0.37399  0.38009  0.26462  1.0000
  H   H209      1.0  0.35514  0.13290  0.43392  1.0000
  H   H210      1.0  0.55743  0.02024  0.34053  1.0000
  C   C267      1.0  0.48043  0.16330  0.45210  1.0000
  C   C268      1.0  0.44253  0.35909  0.97930  1.0000
  H   H211      1.0  0.39576  0.02050  0.41185  1.0000
  C   C269      1.0  0.35042  0.38388  0.26792  1.0000
  H   H212      1.0  0.47161  0.06598  0.32230  1.0000
  H   H213      1.0  0.48076  0.11170  0.37174  1.0000
  C   C270      1.0  0.40647  0.23978  0.38937  1.0000
  H   H214      1.0  0.44629  0.23224  0.42115  1.0000
  C   C271      1.0  0.51407  0.04037  0.32865  1.0000
  H   H215      1.0  0.62875  0.36286  0.98135  1.0000
  H   H216      1.0  0.42396  0.36987  0.99482  1.0000
  H   H217      1.0  0.36719  0.48543  0.98934  1.0000
  C   C272      1.0  0.65528  0.01909  0.35138  1.0000
  C   C273      1.0  0.43329  0.00816  0.37797  1.0000
  H   H218      1.0  0.32925  0.22844  0.31082  1.0000
  C   C274      1.0  0.56699  0.31247  0.96553  1.0000
  C   C275      1.0  0.61967  0.17066  0.40301  1.0000
  C   C276      1.0  0.36141  0.21990  0.41932  1.0000
  C   C277      1.0  0.33312  0.13660  0.44486  1.0000
  H   H219      1.0  0.51600  0.34484  0.98923  1.0000
  H   H220      1.0  0.62198  0.12545  0.36585  1.0000
  H   H221      1.0  0.48557  0.47882  0.11086  1.0000
  C   C278      1.0  0.58723  0.16412  0.45598  1.0000
  C   C279      1.0  0.33937  0.41714  0.28071  1.0000
  C   C280      1.0  0.57914  0.12934  0.44386  1.0000
  H   H222      1.0  0.55488  0.28985  0.97751  1.0000
  C   C281      1.0  0.40818  0.21330  0.45134  1.0000
  C   C282      1.0  0.37749  0.20820  0.45071  1.0000
  H   H223      1.0  0.55322  0.99899  0.41246  1.0000
  C   C283      1.0  0.40923  0.99889  0.40026  1.0000
  Fe  Fe21      1.0  0.55066  0.15102  0.55431  1.0000
  S   S41       1.0  0.53933  0.13517  0.61326  1.0000
  S   S42       1.0  0.52018  0.17322  0.50890  1.0000
  Fe  Fe22      1.0  0.61647  0.13618  0.56661  1.0000
  S   S43       1.0  0.60950  0.11825  0.62576  1.0000
  Fe  Fe23      1.0  0.57016  0.08733  0.60361  1.0000
  S   S44       1.0  0.55270  0.03010  0.61824  1.0000
  Fe  Fe24      1.0  0.57957  0.16766  0.63042  1.0000
  S   S45       1.0  0.58556  0.20294  0.68327  1.0000
  S   S46       1.0  0.57927  0.10219  0.54400  1.0000
  S   S47       1.0  0.58874  0.18663  0.57199  1.0000
  Fe  Fe25      1.0  0.57987  0.41379  0.76770  1.0000
  S   S48       1.0  0.59843  0.40000  0.82421  1.0000
  S   S49       1.0  0.56794  0.37359  0.72044  1.0000
  Fe  Fe26      1.0  0.63514  0.43953  0.81018  1.0000
  Fe  Fe27      1.0  0.57248  0.44921  0.84546  1.0000
  C   C284      1.0  0.39829  0.10278  0.54354  1.0000
  S   S50       1.0  0.61700  0.45135  0.75336  1.0000
  H   H224      1.0  0.50554  0.38764  0.88370  1.0000
  H   H225      1.0  0.36410  0.10939  0.50307  1.0000
  H   H226      1.0  0.63874  0.39393  0.70312  1.0000
  P   P10       1.0  0.35820  0.18930  0.49047  1.0000
  C   C285      1.0  0.46313  0.33501  0.92224  1.0000
  H   H227      1.0  0.51405  0.37527  0.76545  1.0000
  C   C286      1.0  0.58217  0.25095  0.69218  1.0000
  C   C287      1.0  0.57109  0.27558  0.66569  1.0000
  C   C288      1.0  0.56737  0.31287  0.67476  1.0000
  C   C289      1.0  0.57490  0.32641  0.71024  1.0000
  C   C290      1.0  0.58668  0.30193  0.73648  1.0000
  C   C291      1.0  0.59021  0.26457  0.72750  1.0000
  H   H228      1.0  0.56474  0.26578  0.63845  1.0000
  H   H229      1.0  0.55818  0.33132  0.65418  1.0000
  H   H230      1.0  0.59251  0.31167  0.76392  1.0000
  H   H231      1.0  0.59884  0.24595  0.74828  1.0000
  C   C292      1.0  0.45450  0.10151  0.48328  1.0000
  C   C293      1.0  0.47882  0.11794  0.50108  1.0000
  C   C294      1.0  0.49157  0.14931  0.48585  1.0000
  C   C295      1.0  0.60128  0.02202  0.49863  1.0000
  H   H232      1.0  0.44439  0.07767  0.49558  1.0000
  H   H233      1.0  0.48709  0.10706  0.52715  1.0000
  C   C296      1.0  0.60063  0.04605  0.46824  1.0000
  C   C297      1.0  0.64909  0.07309  0.73144  1.0000
  C   C298      1.0  0.62595  0.26586  0.56358  1.0000
  H   H234      1.0  0.45997  0.32655  0.89363  1.0000
  C   C299      1.0  0.64328  0.04798  0.70291  1.0000
  H   H235      1.0  0.61007  0.39482  0.92483  1.0000
  H   H236      1.0  0.56472  0.37435  0.89438  1.0000
  H   H237      1.0  0.64507  0.33810  0.74049  1.0000
  C   C300      1.0  0.51770  0.44801  0.93606  1.0000
  H   H238      1.0  0.33819  0.19095  0.56768  1.0000
  C   C301      1.0  0.65401  0.33914  0.71256  1.0000
  S   S51       1.0  0.61137  0.48748  0.83553  1.0000
  C   C302      1.0  0.48811  0.44930  0.92438  1.0000
  C   C303      1.0  0.52622  0.31271  0.83427  1.0000
  H   H239      1.0  0.43450  0.10380  0.58255  1.0000
  C   C304      1.0  0.42259  0.15781  0.56413  1.0000
  C   C305      1.0  0.43893  0.34795  0.94241  1.0000
  C   C306      1.0  0.55240  0.49682  0.49587  1.0000
  H   H240      1.0  0.51051  0.00834  0.55357  1.0000
  C   C307      1.0  0.49596  0.24744  0.92027  1.0000
  C   C308      1.0  0.52417  0.32754  0.79834  1.0000
  H   H241      1.0  0.64275  0.16381  0.69483  1.0000
  C   C309      1.0  0.51933  0.33416  0.86544  1.0000
  C   C310      1.0  0.50839  0.38518  0.82416  1.0000
  H   H242      1.0  0.44214  0.44980  0.94092  1.0000
  H   H243      1.0  0.60316  0.27483  0.56240  1.0000
  H   H244      1.0  0.65699  0.39649  0.63813  1.0000
  H   H245      1.0  0.63252  0.28657  0.61856  1.0000
  C   C311      1.0  0.63795  0.24610  0.53405  1.0000
  C   C312      1.0  0.49120  0.33323  0.93883  1.0000
  H   H246      1.0  0.48319  0.45090  0.89493  1.0000
  C   C313      1.0  0.51527  0.36374  0.79330  1.0000
  C   C314      1.0  0.51043  0.37048  0.86004  1.0000
  C   C315      1.0  0.34204  0.26153  0.50560  1.0000
  H   H247      1.0  0.52974  0.31117  0.77425  1.0000
  H   H248      1.0  0.64634  0.21706  0.65339  1.0000
  H   H249      1.0  0.43959  0.17102  0.58047  1.0000
  H   H250      1.0  0.61436  0.02851  0.52301  1.0000
  C   C316      1.0  0.41971  0.11990  0.56532  1.0000
  H   H251      1.0  0.58192  0.11473  0.73600  1.0000
  H   H252      1.0  0.43343  0.00303  0.53768  1.0000
  C   C317      1.0  0.59256  0.06940  0.70049  1.0000
  H   H253      1.0  0.57063  0.06786  0.68848  1.0000
  H   H254      1.0  0.55534  0.46746  0.49594  1.0000
  S   S52       1.0  0.55202  0.46134  0.78876  1.0000
  C   C318      1.0  0.59889  0.09565  0.72742  1.0000
  C   C319      1.0  0.52177  0.26692  0.91189  1.0000
  H   H255      1.0  0.47582  0.26144  0.92773  1.0000
  S   S53       1.0  0.54855  0.44881  0.90372  1.0000
  C   C320      1.0  0.57233  0.35991  0.91888  1.0000
  H   H256      1.0  0.41742  0.34978  0.92940  1.0000
  H   H257      1.0  0.53327  0.28470  0.83739  1.0000
  H   H258      1.0  0.50184  0.41340  0.82040  1.0000
  C   C321      1.0  0.65033  0.37081  0.69136  1.0000
  C   C322      1.0  0.49661  0.01519  0.49648  1.0000
  C   C323      1.0  0.33157  0.28945  0.52854  1.0000
  C   C324      1.0  0.61467  0.04570  0.68819  1.0000
  H   H259      1.0  0.49713  0.04467  0.49762  1.0000
  H   H260      1.0  0.39642  0.07335  0.54384  1.0000
  H   H261      1.0  0.63170  0.11720  0.76455  1.0000
  C   C325      1.0  0.38261  0.16165  0.51894  1.0000
  H   H262      1.0  0.60936  0.02577  0.66701  1.0000
  C   C326      1.0  0.34460  0.22577  0.51946  1.0000
  C   C327      1.0  0.40390  0.17864  0.54142  1.0000
  P   P11       1.0  0.52217  0.31618  0.91229  1.0000
  C   C328      1.0  0.49598  0.20929  0.91932  1.0000
  C   C329      1.0  0.37995  0.12348  0.52023  1.0000
  H   H263      1.0  0.40634  0.20803  0.54104  1.0000
  C   C330      1.0  0.62706  0.09724  0.74319  1.0000
  H   H264      1.0  0.56325  0.11392  0.46004  1.0000
  H   H265      1.0  0.47602  0.19441  0.92599  1.0000
  C   C331      1.0  0.32794  0.16206  0.47318  1.0000
  C   C332      1.0  0.54736  0.20956  0.90121  1.0000
  C   C333      1.0  0.52164  0.19036  0.90979  1.0000
  C   C334      1.0  0.54745  0.24769  0.90222  1.0000
  H   H266      1.0  0.64616  0.27897  0.80660  1.0000
  H   H267      1.0  0.56724  0.19490  0.89368  1.0000
  C   C335      1.0  0.46468  0.44887  0.95073  1.0000
  H   H268      1.0  0.60985  0.00346  0.59097  1.0000
  H   H269      1.0  0.52157  0.16081  0.90902  1.0000
  H   H270      1.0  0.32976  0.31702  0.51775  1.0000
  C   C336      1.0  0.55630  0.33056  0.93364  1.0000
  C   C337      1.0  0.32598  0.24636  0.57932  1.0000
  C   C338      1.0  0.33645  0.21838  0.55649  1.0000
  H   H271      1.0  0.56750  0.26225  0.89529  1.0000
  H   H272      1.0  0.61393  0.07055  0.46933  1.0000
  H   H273      1.0  0.62450  0.23977  0.50998  1.0000
  H   H274      1.0  0.34819  0.26807  0.47724  1.0000
  H   H275      1.0  0.57788  0.17510  0.48132  1.0000
  H   H276      1.0  0.42134  0.20450  0.47483  1.0000
  C   C339      1.0  0.64282  0.27260  0.59541  1.0000
  C   C340      1.0  0.59832  0.37150  0.93607  1.0000
  C   C341      1.0  0.48856  0.99769  0.46351  1.0000
  Fe  Fe28      1.0  0.34812  0.77348  0.32849  1.0000
  S   S54       1.0  0.37150  0.77732  0.27359  1.0000
  Fe  Fe29      1.0  0.40465  0.75040  0.36884  1.0000
  S   S55       1.0  0.43165  0.75209  0.31614  1.0000
  C   C342      1.0  0.44415  0.94419  0.36925  1.0000
  Fe  Fe30      1.0  0.40764  0.80542  0.30493  1.0000
  S   S56       1.0  0.43246  0.85615  0.28476  1.0000
  Fe  Fe31      1.0  0.39279  0.72346  0.28914  1.0000
  S   S57       1.0  0.39112  0.68145  0.24114  1.0000
  S   S58       1.0  0.38317  0.80487  0.35878  1.0000
  S   S59       1.0  0.36711  0.71856  0.34287  1.0000
  H   H277      1.0  0.48428  0.62642  0.06056  1.0000
  C   C343      1.0  0.40258  0.96216  0.40753  1.0000
  H   H278      1.0  0.40766  0.69599  0.99130  1.0000
  H   H279      1.0  0.34888  0.74585  0.17454  1.0000
  H   H280      1.0  0.46838  0.98786  0.34346  1.0000
  H   H281      1.0  0.54958  0.63159  0.41613  1.0000
  C   C344      1.0  0.47948  0.75498  0.42249  1.0000
  H   H282      1.0  0.47572  0.75803  0.39287  1.0000
  C   C345      1.0  0.42722  0.90440  0.28173  1.0000
  C   C346      1.0  0.40385  0.92372  0.29844  1.0000
  C   C347      1.0  0.44866  0.92417  0.26223  1.0000
  H   H283      1.0  0.38742  0.90895  0.31419  1.0000
  H   H284      1.0  0.46677  0.90982  0.24920  1.0000
  C   C348      1.0  0.39646  0.63345  0.23436  1.0000
  C   C349      1.0  0.38723  0.61758  0.20055  1.0000
  C   C350      1.0  0.39231  0.58023  0.19293  1.0000
  C   C351      1.0  0.40708  0.55813  0.21891  1.0000
  C   C352      1.0  0.41580  0.57383  0.25299  1.0000
  C   C353      1.0  0.41040  0.61108  0.26080  1.0000
  H   H285      1.0  0.37638  0.63444  0.17984  1.0000
  H   H286      1.0  0.38545  0.56877  0.16657  1.0000
  H   H287      1.0  0.42727  0.55717  0.27332  1.0000
  H   H288      1.0  0.41776  0.62269  0.28684  1.0000
  C   C354      1.0  0.44700  0.96224  0.25900  1.0000
  C   C355      1.0  0.37685  0.87690  0.45263  1.0000
  H   H289      1.0  0.50638  0.55350  0.02347  1.0000
  H   H290      1.0  0.53732  0.49896  0.43893  1.0000
  H   H291      1.0  0.33982  0.49981  0.22710  1.0000
  H   H292      1.0  0.53007  0.56539  0.43852  1.0000
  H   H293      1.0  0.44730  0.72871  0.02512  1.0000
  C   C356      1.0  0.34904  0.52768  0.02405  1.0000
  C   C357      1.0  0.47625  0.50602  0.10934  1.0000
  H   H294      1.0  0.48315  0.94681  0.43556  1.0000
  H   H295      1.0  0.40590  0.62869  0.99227  1.0000
  C   C358      1.0  0.40238  0.96249  0.29556  1.0000
  C   C359      1.0  0.34104  0.97981  0.42195  1.0000
  C   C360      1.0  0.45925  0.84182  0.38360  1.0000
  H   H296      1.0  0.44496  0.66392  0.43978  1.0000
  H   H297      1.0  0.49470  0.86739  0.35383  1.0000
  H   H298      1.0  0.58903  0.82017  0.44635  1.0000
  C   C361      1.0  0.42416  0.68073  0.00674  1.0000
  C   C362      1.0  0.36792  0.84040  0.45154  1.0000
  C   C363      1.0  0.37150  0.51073  0.00384  1.0000
  C   C364      1.0  0.33557  0.98485  0.38370  1.0000
  H   H299      1.0  0.45663  0.92318  0.35524  1.0000
  P   P12       1.0  0.37147  0.95119  0.43674  1.0000
  C   C365      1.0  0.46811  0.67947  0.04509  1.0000
  H   H300      1.0  0.44986  0.82963  0.35881  1.0000
  C   C366      1.0  0.44621  0.83582  0.41829  1.0000
  C   C367      1.0  0.35503  0.55941  0.04410  1.0000
  H   H301      1.0  0.48564  0.69374  0.05946  1.0000
  C   C368      1.0  0.42024  0.93475  0.39189  1.0000
  C   C369      1.0  0.45603  0.74578  0.44595  1.0000
  C   C370      1.0  0.46773  0.65632  0.43469  1.0000
  H   H302      1.0  0.41518  0.90619  0.39603  1.0000
  C   C371      1.0  0.45000  0.57502  0.10545  1.0000
  C   C372      1.0  0.32908  0.74512  0.19141  1.0000
  C   C373      1.0  0.47098  0.52563  0.14195  1.0000
  H   H303      1.0  0.38808  0.59758  0.06139  1.0000
  C   C374      1.0  0.46686  0.55944  0.98989  1.0000
  C   C375      1.0  0.48421  0.87220  0.44804  1.0000
  C   C376      1.0  0.46716  0.64134  0.04588  1.0000
  H   H304      1.0  0.46381  0.97663  0.24346  1.0000
  C   C377      1.0  0.33216  0.63754  0.30942  1.0000
  C   C378      1.0  0.40618  0.55718  0.02389  1.0000
  C   C379      1.0  0.38352  0.57398  0.04429  1.0000
  H   H305      1.0  0.41724  0.51097  0.98917  1.0000
  C   C380      1.0  0.44420  0.62270  0.02794  1.0000
  C   C381      1.0  0.49684  0.55163  0.99590  1.0000
  C   C382      1.0  0.42406  0.98189  0.27559  1.0000
  H   H306      1.0  0.52592  0.76695  0.41886  1.0000
  C   C383      1.0  0.39995  0.52538  0.00376  1.0000
  H   H307      1.0  0.45327  0.57487  0.16543  1.0000
  C   C384      1.0  0.52673  0.63832  0.42162  1.0000
  H   H308      1.0  0.46549  0.66935  0.37623  1.0000
  P   P13       1.0  0.44355  0.57356  0.02804  1.0000
  C   C385      1.0  0.50795  0.75996  0.43734  1.0000
  C   C386      1.0  0.45869  0.85064  0.45045  1.0000
  H   H309      1.0  0.33784  0.57179  0.06067  1.0000
  C   C387      1.0  0.36105  0.90372  0.43281  1.0000
  S   S60       1.0  0.41642  0.51147  0.20970  1.0000
  C   C388      1.0  0.48467  0.86304  0.38090  1.0000
  C   C389      1.0  0.45798  0.56016  0.13998  1.0000
  C   C390      1.0  0.46858  0.52098  0.07476  1.0000
  H   H310      1.0  0.35587  0.63971  0.31287  1.0000
  C   C391      1.0  0.47932  0.65939  0.39879  1.0000
  H   H311      1.0  0.51775  0.65285  0.36435  1.0000
  H   H312      1.0  0.38477  0.97737  0.30893  1.0000
  S   S61       1.0  0.41990  0.73826  0.42839  1.0000
  H   H313      1.0  0.51674  0.89484  0.41033  1.0000
  C   C392      1.0  0.49692  0.87860  0.41288  1.0000
  H   H314      1.0  0.34574  0.94438  0.27032  1.0000
  H   H315      1.0  0.33042  0.80244  0.20411  1.0000
  H   H316      1.0  0.43882  0.60112  0.10474  1.0000
  C   C393      1.0  0.50878  0.65025  0.39221  1.0000
  C   C394      1.0  0.45574  0.55576  0.07247  1.0000
  C   C395      1.0  0.44654  0.69917  0.02569  1.0000
  C   C396      1.0  0.42312  0.64260  0.00756  1.0000
  H   H317      1.0  0.32725  0.51558  0.02525  1.0000
  H   H318      1.0  0.33512  0.88621  0.30356  1.0000
  H   H319      1.0  0.42696  0.81849  0.42037  1.0000
  C   C397      1.0  0.34324  0.83041  0.43060  1.0000
  H   H320      1.0  0.33258  0.66439  0.25637  1.0000
  C   C398      1.0  0.51481  0.54095  0.96622  1.0000
  H   H321      1.0  0.47209  0.50501  0.04991  1.0000
  H   H322      1.0  0.47613  0.51368  0.16889  1.0000
  H   H323      1.0  0.53654  0.83536  0.44739  1.0000
  C   C399      1.0  0.45071  0.98080  0.36236  1.0000
  H   H324      1.0  0.34993  0.97266  0.36306  1.0000
  H   H325      1.0  0.53768  0.53370  0.97110  1.0000
  H   H326      1.0  0.33663  0.80201  0.42911  1.0000
  C   C400      1.0  0.33667  0.89325  0.41111  1.0000
  C   C401      1.0  0.51535  0.63578  0.45796  1.0000
  C   C402      1.0  0.32782  0.85674  0.41012  1.0000
  Fe  Fe32      1.0  0.57600  0.73542  0.63161  1.0000
  S   S62       1.0  0.59021  0.71033  0.57763  1.0000
  S   S63       1.0  0.55116  0.69767  0.67213  1.0000
  Fe  Fe33      1.0  0.59852  0.81172  0.60759  1.0000
  S   S64       1.0  0.61464  0.78966  0.55288  1.0000
  S   S65       1.0  0.61185  0.87178  0.61511  1.0000
  Fe  Fe34      1.0  0.57121  0.76026  0.55004  1.0000
  S   S66       1.0  0.54985  0.76232  0.49236  1.0000
  C   C403      1.0  0.39784  0.97050  0.55961  1.0000
  S   S67       1.0  0.55411  0.78432  0.60334  1.0000
  S   S68       1.0  0.61896  0.76512  0.64089  1.0000
  C   C404      1.0  0.57928  0.55584  0.64604  1.0000
  H   H327      1.0  0.62832  0.62883  0.59815  1.0000
  S   S69       1.0  0.60293  0.55222  0.74915  1.0000
  C   C405      1.0  0.56561  0.65766  0.69435  1.0000
  C   C406      1.0  0.54625  0.63188  0.71024  1.0000
  C   C407      1.0  0.55704  0.59963  0.72746  1.0000
  C   C408      1.0  0.58745  0.59291  0.72930  1.0000
  C   C409      1.0  0.60670  0.61906  0.71398  1.0000
  C   C410      1.0  0.59593  0.65113  0.69668  1.0000
  H   H328      1.0  0.52274  0.63673  0.70898  1.0000
  H   H329      1.0  0.54186  0.57998  0.73915  1.0000
  H   H330      1.0  0.63015  0.61434  0.71525  1.0000
  H   H331      1.0  0.61100  0.67103  0.68529  1.0000
  C   C411      1.0  0.60889  0.94476  0.59827  1.0000
  C   C412      1.0  0.59288  0.91424  0.61059  1.0000
  C   C413      1.0  0.56379  0.91937  0.62241  1.0000
  C   C414      1.0  0.50483  0.61151  0.56061  1.0000
  H   H332      1.0  0.55114  0.89626  0.63220  1.0000
  C   C415      1.0  0.60334  0.69718  0.47444  1.0000
  H   H333      1.0  0.44346  0.73431  0.50273  1.0000
  C   C416      1.0  0.62804  0.57767  0.62877  1.0000
  C   C417      1.0  0.48994  0.74670  0.49927  1.0000
  C   C418      1.0  0.48916  0.95957  0.46154  1.0000
  H   H334      1.0  0.53708  0.69167  0.53499  1.0000
  C   C419      1.0  0.51344  0.68268  0.58590  1.0000
  H   H335      1.0  0.49376  0.74341  0.52883  1.0000
  C   C420      1.0  0.59905  0.63047  0.51195  1.0000
  C   C421      1.0  0.64629  0.90782  0.74575  1.0000
  H   H336      1.0  0.43278  0.56527  0.94795  1.0000
  H   H337      1.0  0.58520  0.97147  0.52149  1.0000
  C   C422      1.0  0.48473  0.86880  0.52982  1.0000
  C   C423      1.0  0.37319  0.94932  0.55095  1.0000
  P   P14       1.0  0.53886  0.62182  0.49627  1.0000
  H   H338      1.0  0.64026  0.88240  0.75927  1.0000
  C   C424      1.0  0.49767  0.93866  0.49274  1.0000
  C   C425      1.0  0.49765  0.65787  0.60767  1.0000
  C   C426      1.0  0.48563  0.64474  0.46422  1.0000
  C   C427      1.0  0.45972  0.88481  0.54610  1.0000
  C   C428      1.0  0.56823  0.98567  0.61293  1.0000
  H   H339      1.0  0.48017  0.60346  0.61139  1.0000
  C   C429      1.0  0.38149  0.95998  0.48479  1.0000
  H   H340      1.0  0.64427  0.63996  0.52809  1.0000
  Fe  Fe35      1.0  0.63199  0.74200  0.58540  1.0000
  H   H341      1.0  0.61895  0.52670  0.65784  1.0000
  H   H342      1.0  0.36039  0.93691  0.57310  1.0000
  H   H343      1.0  0.51708  0.52972  0.90745  1.0000
  C   C430      1.0  0.54424  0.57286  0.49579  1.0000
  H   H344      1.0  0.55910  0.56976  0.55310  1.0000
  C   C431      1.0  0.58430  0.61298  0.61284  1.0000
  H   H345      1.0  0.44559  0.82127  0.61325  1.0000
  H   H346      1.0  0.48911  0.79228  0.58387  1.0000
  H   H347      1.0  0.46470  0.54588  0.89587  1.0000
  H   H348      1.0  0.55298  0.91320  0.53499  1.0000
  C   C432      1.0  0.60985  0.55101  0.64508  1.0000
  H   H349      1.0  0.59788  0.60530  0.52753  1.0000
  C   C433      1.0  0.49519  0.83529  0.54357  1.0000
  H   H350      1.0  0.61846  0.89864  0.69784  1.0000
  H   H351      1.0  0.51023  0.94127  0.55109  1.0000
  H   H352      1.0  0.63109  0.94073  0.58848  1.0000
  C   C434      1.0  0.55160  0.95491  0.62360  1.0000
  C   C435      1.0  0.44574  0.86781  0.57624  1.0000
  H   H353      1.0  0.44868  0.84426  0.47701  1.0000
  C   C436      1.0  0.45643  0.83457  0.58998  1.0000
  C   C437      1.0  0.51337  0.75584  0.47573  1.0000
  H   H354      1.0  0.51404  0.82198  0.53090  1.0000
  C   C438      1.0  0.59683  0.98025  0.59953  1.0000
  H   H355      1.0  0.45082  0.91018  0.53530  1.0000
  H   H356      1.0  0.34595  0.92741  0.50749  1.0000
  H   H357      1.0  0.57429  0.63741  0.60137  1.0000
  C   C439      1.0  0.48104  0.81828  0.57354  1.0000
  H   H358      1.0  0.42652  0.88026  0.58881  1.0000
  C   C440      1.0  0.64157  0.94974  0.69381  1.0000
  C   C441      1.0  0.41429  0.98656  0.53106  1.0000
  H   H359      1.0  0.52942  0.95868  0.63399  1.0000
  C   C442      1.0  0.55448  0.55472  0.52791  1.0000
  C   C443      1.0  0.46143  0.74163  0.48439  1.0000
  C   C444      1.0  0.56045  0.89400  0.51436  1.0000
  C   C445      1.0  0.61490  0.60821  0.61164  1.0000
  H   H360      1.0  0.64801  0.69881  0.49490  1.0000
  C   C446      1.0  0.40618  0.98143  0.49384  1.0000
  C   C447      1.0  0.47364  0.54766  0.92381  1.0000
  C   C448      1.0  0.53815  0.55241  0.46366  1.0000
  C   C449      1.0  0.56656  0.58702  0.63037  1.0000
  C   C450      1.0  0.55853  0.51691  0.52793  1.0000
  H   H361      1.0  0.40418  0.97454  0.58844  1.0000
  H   H362      1.0  0.48922  0.66619  0.63462  1.0000
  C   C451      1.0  0.60086  0.85897  0.48862  1.0000
  H   H363      1.0  0.54306  0.59162  0.63282  1.0000
  H   H364      1.0  0.51697  0.71018  0.59592  1.0000
  C   C452      1.0  0.50443  0.95660  0.52625  1.0000
  C   C453      1.0  0.62558  0.64991  0.51225  1.0000
  C   C454      1.0  0.54066  0.87768  0.48928  1.0000
  C   C455      1.0  0.57432  0.64430  0.49281  1.0000
  H   H365      1.0  0.55541  0.95653  0.46561  1.0000
  C   C456      1.0  0.49288  0.62247  0.59473  1.0000
  C   C457      1.0  0.59041  0.88485  0.51376  1.0000
  H   H366      1.0  0.50070  0.58409  0.55092  1.0000
  C   C458      1.0  0.52523  0.67189  0.55171  1.0000
  H   H367      1.0  0.60546  0.89698  0.53357  1.0000
  C   C459      1.0  0.63403  0.91690  0.71120  1.0000
  C   C460      1.0  0.52194  0.63588  0.53944  1.0000
  C   C461      1.0  0.54223  0.51456  0.46376  1.0000
  C   C462      1.0  0.36503  0.94407  0.51373  1.0000
  H   H368      1.0  0.47619  0.64342  0.49186  1.0000
  C   C463      1.0  0.62773  0.68324  0.49353  1.0000
  H   H369      1.0  0.41945  0.99423  0.47252  1.0000
  H   H370      1.0  0.63115  0.95674  0.66763  1.0000
  C   C464      1.0  0.50320  0.53881  0.93023  1.0000
  H   H371      1.0  0.62391  0.85114  0.48896  1.0000
  H   H372      1.0  0.56561  0.53612  0.66049  1.0000
  H   H373      1.0  0.56622  0.50319  0.55296  1.0000
  H   H374      1.0  0.60459  0.72368  0.46102  1.0000
  H   H375      1.0  0.65096  0.51144  0.57763  1.0000
  C   C465      1.0  0.57672  0.67799  0.47429  1.0000
  C   C466      1.0  0.58129  0.84177  0.46442  1.0000
  P   P15       1.0  0.50181  0.88958  0.48969  1.0000
  H   H376      1.0  0.55778  0.69036  0.46083  1.0000
  H   H377      1.0  0.39607  0.88417  0.46890  1.0000
  C   C467      1.0  0.55132  0.85074  0.46498  1.0000
  H   H378      1.0  0.65182  0.64341  0.65771  1.0000
  H   H379      1.0  0.65728  0.55280  0.70435  1.0000
  C   C468      1.0  0.56782  0.98166  0.46649  1.0000
  H   H380      1.0  0.38035  0.81959  0.46640  1.0000
  C   C469      1.0  0.50425  0.99468  0.52794  1.0000
  C   C470      1.0  0.58481  0.98990  0.49782  1.0000
  H   H381      1.0  0.65709  0.50119  0.50998  1.0000
  C   C471      1.0  0.45558  0.55828  0.95345  1.0000
  Fe  Fe36      1.0  0.59173  0.49770  0.77851  1.0000
  C   C472      1.0  0.96239  0.00187  0.39092  1.0000
  H   H382      1.0  0.88539  0.11621  0.44209  1.0000
  C   C473      1.0  0.94267  0.37425  0.25982  1.0000
  H   H383      1.0  0.93890  0.42440  0.97227  1.0000
  C   C474      1.0  0.96589  0.41873  0.30004  1.0000
  C   C475      1.0  0.93831  0.42775  0.31487  1.0000
  C   C476      1.0  0.97602  0.42955  0.01012  1.0000
  H   H384      1.0  0.98533  0.43215  0.31083  1.0000
  H   H385      1.0  0.96407  0.40690  0.12693  1.0000
  H   H386      1.0  0.96279  0.42463  0.03467  1.0000
  C   C477      1.0  0.96816  0.39238  0.27190  1.0000
  C   C478      1.0  0.98042  0.39445  0.18214  1.0000
  C   C479      1.0  0.91294  0.41015  0.30212  1.0000
  C   C480      1.0  0.97902  0.14649  0.44123  1.0000
  C   C481      1.0  0.96226  0.42964  0.97449  1.0000
  H   H387      1.0  0.93666  0.44829  0.33639  1.0000
  H   H388      1.0  0.89160  0.41712  0.31369  1.0000
  H   H389      1.0  0.94414  0.35307  0.23893  1.0000
  H   H390      1.0  0.89552  0.36935  0.26512  1.0000
  C   C482      1.0  0.91513  0.38330  0.27472  1.0000
  H   H391      1.0  0.98268  0.14520  0.41148  1.0000
  C   C483      1.0  0.95050  0.15405  0.45534  1.0000
  H   H392      1.0  0.93248  0.15869  0.43613  1.0000
  H   H393      1.0  0.96399  0.41119  0.19567  1.0000
  H   H394      1.0  0.66985  0.01995  0.29422  1.0000
  C   C484      1.0  0.98040  0.39221  0.14319  1.0000
  C   C485      1.0  0.98853  0.02195  0.39207  1.0000
  H   H395      1.0  0.67340  0.00209  0.36086  1.0000
  H   H396      1.0  0.92713  0.07578  0.45621  1.0000
  C   C486      1.0  0.88173  0.09142  0.45798  1.0000
  C   C487      1.0  0.95574  0.01063  0.45765  1.0000
  C   C488      1.0  0.98231  0.03033  0.45851  1.0000
  Fe  Fe37      1.0  0.88887  0.14805  0.56715  1.0000
  S   S70       1.0  0.91392  0.11910  0.61256  1.0000
  S   S71       1.0  0.90883  0.16508  0.51075  1.0000
  Fe  Fe38      1.0  0.82917  0.14141  0.61014  1.0000
  S   S72       1.0  0.85127  0.11122  0.65709  1.0000
  S   S73       1.0  0.78102  0.15247  0.62548  1.0000
  Fe  Fe39      1.0  0.88655  0.15418  0.65182  1.0000
  S   S74       1.0  0.90331  0.18378  0.70395  1.0000
  Fe  Fe40      1.0  0.87589  0.07916  0.61355  1.0000
  S   S75       1.0  0.87340  0.01736  0.60230  1.0000
  S   S76       1.0  0.86376  0.18540  0.60626  1.0000
  S   S77       1.0  0.85160  0.10750  0.56675  1.0000
  H   H397      1.0  0.72079  0.45548  0.65213  1.0000
  H   H398      1.0  0.77411  0.07644  0.59023  1.0000
  Fe  Fe41      1.0  0.88798  0.39451  0.79363  1.0000
  S   S78       1.0  0.88176  0.39932  0.85606  1.0000
  S   S79       1.0  0.87558  0.34849  0.75291  1.0000
  Fe  Fe42      1.0  0.92103  0.43772  0.85624  1.0000
  C   C489      1.0  0.71471  0.22082  0.69301  1.0000
  Fe  Fe43      1.0  0.85435  0.44907  0.84204  1.0000
  S   S80       1.0  0.80976  0.46154  0.86908  1.0000
  S   S81       1.0  0.92881  0.42966  0.79405  1.0000
  S   S82       1.0  0.85851  0.44251  0.78048  1.0000
  C   C490      1.0  0.71809  0.43721  0.81882  1.0000
  C   C491      1.0  0.77478  0.45297  0.84840  1.0000
  C   C492      1.0  0.77207  0.43492  0.81432  1.0000
  C   C493      1.0  0.74392  0.42711  0.79972  1.0000
  C   C494      1.0  0.81099  0.49344  0.66878  1.0000
  H   H399      1.0  0.96530  0.15264  0.54800  1.0000
  H   H400      1.0  0.79166  0.42628  0.79962  1.0000
  C   C495      1.0  0.96888  0.15032  0.51833  1.0000
  H   H401      1.0  0.86975  0.00760  0.52234  1.0000
  H   H402      1.0  0.74216  0.41275  0.77362  1.0000
  H   H403      1.0  0.99058  0.25720  0.70469  1.0000
  C   C496      1.0  0.89408  0.22902  0.71825  1.0000
  C   C497      1.0  0.90650  0.24307  0.75120  1.0000
  C   C498      1.0  0.90098  0.27936  0.76250  1.0000
  C   C499      1.0  0.88299  0.30218  0.74090  1.0000
  C   C500      1.0  0.87015  0.28795  0.70830  1.0000
  C   C501      1.0  0.87573  0.25174  0.69694  1.0000
  H   H404      1.0  0.92076  0.22587  0.76794  1.0000
  H   H405      1.0  0.91066  0.28964  0.78788  1.0000
  H   H406      1.0  0.85600  0.30518  0.69147  1.0000
  H   H407      1.0  0.86613  0.24157  0.67146  1.0000
  C   C502      1.0  0.74807  0.14593  0.59974  1.0000
  C   C503      1.0  0.74792  0.14117  0.56108  1.0000
  C   C504      1.0  0.72089  0.13813  0.54183  1.0000
  C   C505      1.0  0.69390  0.13975  0.56102  1.0000
  C   C506      1.0  0.69412  0.14415  0.59967  1.0000
  C   C507      1.0  0.72105  0.14726  0.61883  1.0000
  H   H408      1.0  0.76855  0.14042  0.54599  1.0000
  H   H409      1.0  0.72090  0.13481  0.51189  1.0000
  H   H410      1.0  0.67353  0.14577  0.61473  1.0000
  H   H411      1.0  0.72093  0.15131  0.64858  1.0000
  C   C508      1.0  0.96462  0.29734  0.64316  1.0000
  S   S83       1.0  0.68344  0.42320  0.80048  1.0000
  H   H412      1.0  0.81441  0.41422  0.71340  1.0000
  H   H413      1.0  0.95769  0.07721  0.51849  1.0000
  S   S84       1.0  0.96224  0.43825  0.89584  1.0000
  C   C509      1.0  0.67991  0.31992  0.80183  1.0000
  P   P16       1.0  0.67109  0.01608  0.68781  1.0000
  C   C510      1.0  0.68818  0.25558  0.79157  1.0000
  C   C511      1.0  0.71790  0.26253  0.78380  1.0000
  C   C512      1.0  0.72877  0.29840  0.78439  1.0000
  C   C513      1.0  0.70939  0.32700  0.79323  1.0000
  P   P17       1.0  0.76696  0.30807  0.77319  1.0000
  C   C514      1.0  0.78733  0.32171  0.81424  1.0000
  C   C515      1.0  0.78432  0.26805  0.75356  1.0000
  C   C516      1.0  0.79308  0.23922  0.77708  1.0000
  C   C517      1.0  0.80699  0.20839  0.76237  1.0000
  C   C518      1.0  0.81191  0.20587  0.72407  1.0000
  C   C519      1.0  0.80293  0.23416  0.70047  1.0000
  C   C520      1.0  0.78937  0.26531  0.71506  1.0000
  C   C521      1.0  0.77390  0.34267  0.84222  1.0000
  C   C522      1.0  0.79034  0.35494  0.87266  1.0000
  C   C523      1.0  0.82021  0.34616  0.87565  1.0000
  C   C524      1.0  0.83383  0.32558  0.84785  1.0000
  C   C525      1.0  0.81761  0.31379  0.81708  1.0000
  C   C526      1.0  0.76861  0.34540  0.74028  1.0000
  C   C527      1.0  0.79399  0.36715  0.73813  1.0000
  C   C528      1.0  0.79483  0.39731  0.71421  1.0000
  C   C529      1.0  0.77031  0.40600  0.69227  1.0000
  C   C530      1.0  0.74507  0.38422  0.69388  1.0000
  C   C531      1.0  0.74435  0.35374  0.71740  1.0000
  H   H414      1.0  0.93450  0.26980  0.68026  1.0000
  C   C532      1.0  0.69108  0.23056  0.66963  1.0000
  C   C533      1.0  0.71517  0.06893  0.69099  1.0000
  H   H415      1.0  0.73214  0.23987  0.77706  1.0000
  H   H416      1.0  0.71691  0.35498  0.79314  1.0000
  H   H417      1.0  0.78959  0.24088  0.80689  1.0000
  H   H418      1.0  0.81449  0.18669  0.78069  1.0000
  H   H419      1.0  0.82321  0.18231  0.71263  1.0000
  H   H420      1.0  0.80724  0.23204  0.67091  1.0000
  H   H421      1.0  0.78308  0.28714  0.69630  1.0000
  H   H422      1.0  0.75105  0.35064  0.84044  1.0000
  H   H423      1.0  0.78007  0.37216  0.89345  1.0000
  H   H424      1.0  0.83298  0.35620  0.89898  1.0000
  H   H425      1.0  0.85724  0.31972  0.84944  1.0000
  H   H426      1.0  0.82908  0.29945  0.79507  1.0000
  H   H427      1.0  0.81304  0.36132  0.75537  1.0000
  H   H428      1.0  0.72585  0.39108  0.67734  1.0000
  H   H429      1.0  0.72463  0.33724  0.71824  1.0000
  C   C534      1.0  0.74516  0.31152  0.62753  1.0000
  C   C535      1.0  0.68676  0.16968  0.71707  1.0000
  C   C536      1.0  0.91976  0.36216  0.67021  1.0000
  H   H430      1.0  0.97710  0.27150  0.55311  1.0000
  C   C537      1.0  0.94513  0.15546  0.49401  1.0000
  C   C538      1.0  0.74897  0.46389  0.86712  1.0000
  H   H431      1.0  0.81749  0.04165  0.56841  1.0000
  C   C539      1.0  0.74438  0.08078  0.69419  1.0000
  C   C540      1.0  0.93551  0.24411  0.62672  1.0000
  C   C541      1.0  0.72076  0.45614  0.85241  1.0000
  H   H432      1.0  0.97888  0.26714  0.82283  1.0000
  H   H433      1.0  0.85305  0.49323  0.69696  1.0000
  H   H434      1.0  0.88781  0.44389  0.94498  1.0000
  H   H435      1.0  0.73130  0.18244  0.73354  1.0000
  H   H436      1.0  0.79258  0.22843  0.59780  1.0000
  C   C542      1.0  0.77471  0.04709  0.59341  1.0000
  H   H437      1.0  0.91985  0.22319  0.63461  1.0000
  C   C543      1.0  0.66058  0.37214  0.65473  1.0000
  H   H438      1.0  0.75079  0.47793  0.89347  1.0000
  C   C544      1.0  0.95886  0.40306  0.68910  1.0000
  C   C545      1.0  0.77937  0.25178  0.60598  1.0000
  C   C546      1.0  0.74987  0.24687  0.61601  1.0000
  C   C547      1.0  0.96015  0.05908  0.54216  1.0000
  C   C548      1.0  0.94974  0.36823  0.67764  1.0000
  C   C549      1.0  0.93844  0.43148  0.69216  1.0000
  C   C550      1.0  0.69809  0.47515  0.70070  1.0000
  H   H439      1.0  0.94544  0.45814  0.70165  1.0000
  H   H440      1.0  0.74084  0.21963  0.61584  1.0000
  C   C551      1.0  0.94900  0.02344  0.54070  1.0000
  C   C552      1.0  0.97866  0.43647  0.94202  1.0000
  S   S85       1.0  0.89295  0.48809  0.84604  1.0000
  C   C553      1.0  0.85356  0.08317  0.47112  1.0000
  C   C554      1.0  0.89937  0.39065  0.67344  1.0000
  C   C555      1.0  0.94395  0.27048  0.65264  1.0000
  H   H441      1.0  0.73255  0.33503  0.63573  1.0000
  C   C556      1.0  0.71265  0.19029  0.71636  1.0000
  H   H442      1.0  0.66530  0.34239  0.80877  1.0000
  C   C557      1.0  0.79908  0.02750  0.58082  1.0000
  H   H443      1.0  0.81742  0.47274  0.64891  1.0000
  C   C558      1.0  0.79197  0.28645  0.60736  1.0000
  C   C559      1.0  0.75144  0.02880  0.61063  1.0000
  H   H444      1.0  0.67983  0.22795  0.79045  1.0000
  H   H445      1.0  0.89286  0.44709  0.68814  1.0000
  C   C560      1.0  0.75985  0.01927  0.70929  1.0000
  C   C561      1.0  0.67594  0.00894  0.55980  1.0000
  Fe  Fe44      1.0  0.89863  0.47797  0.78453  1.0000
  H   H446      1.0  0.91185  0.33523  0.66319  1.0000
  H   H447      1.0  0.68126  0.34256  0.61032  1.0000
  H   H448      1.0  0.98158  0.40811  0.69679  1.0000
  H   H449      1.0  0.94081  0.22398  0.57075  1.0000
  H   H450      1.0  0.67565  0.21615  0.51425  1.0000
  C   C562      1.0  0.90122  0.03695  0.48824  1.0000
  C   C563      1.0  0.90870  0.42526  0.68447  1.0000
  C   C564      1.0  0.70800  0.03211  0.69736  1.0000
  C   C565      1.0  0.97646  0.29766  0.60695  1.0000
  H   H451      1.0  0.70487  0.45264  0.71857  1.0000
  C   C566      1.0  0.68392  0.24009  0.56796  1.0000
  C   C567      1.0  0.87318  0.03013  0.50324  1.0000
  H   H452      1.0  0.81501  0.29003  0.60019  1.0000
  H   H453      1.0  0.70588  0.22876  0.56922  1.0000
  H   H454      1.0  0.69844  0.08826  0.68212  1.0000
  C   C568      1.0  0.73230  0.27670  0.62637  1.0000
  C   C569      1.0  0.84926  0.05239  0.49352  1.0000
  H   H455      1.0  0.96205  0.35942  0.75238  1.0000
  H   H456      1.0  0.78478  0.34314  0.61974  1.0000
  C   C570      1.0  0.97466  0.07154  0.57410  1.0000
  P   P18       1.0  0.97563  0.33072  0.67755  1.0000
  H   H457      1.0  0.73246  0.04411  0.62000  1.0000
  H   H458      1.0  0.73486  0.23649  0.69291  1.0000
  C   C571      1.0  0.96461  0.01442  0.60511  1.0000
  H   H459      1.0  0.87614  0.38539  0.66907  1.0000
  H   H460      1.0  0.77083  0.42975  0.67435  1.0000
  C   C572      1.0  0.94741  0.24451  0.59084  1.0000
  C   C573      1.0  0.97018  0.31576  0.79072  1.0000
  C   C574      1.0  0.77490  0.31629  0.61832  1.0000
  C   C575      1.0  0.67231  0.26069  0.59745  1.0000
  H   H461      1.0  0.83530  0.10132  0.46496  1.0000
  C   C576      1.0  0.96785  0.27132  0.58096  1.0000
  C   C577      1.0  0.66798  0.30860  0.69731  1.0000
  P   P19       1.0  0.69396  0.26952  0.63886  1.0000
  H   H462      1.0  0.70114  0.46399  0.86753  1.0000
  C   C578      1.0  0.96893  0.33127  0.75508  1.0000
  H   H463      1.0  0.68517  0.14600  0.73506  1.0000
  C   C579      1.0  0.85448  0.48588  0.94478  1.0000
  H   H464      1.0  0.96430  0.33199  0.81481  1.0000
  C   C580      1.0  0.66920  0.28427  0.80068  1.0000
  C   C581      1.0  0.97621  0.31042  0.72360  1.0000
  H   H465      1.0  0.75001  0.10898  0.68833  1.0000
  C   C582      1.0  0.67843  0.30969  0.66049  1.0000
  H   H466      1.0  0.82754  0.04656  0.50440  1.0000
  C   C583      1.0  0.70695  0.47677  0.66340  1.0000
  C   C584      1.0  0.95034  0.00179  0.57311  1.0000
  C   C585      1.0  0.90546  0.06843  0.46638  1.0000
  C   C586      1.0  0.66680  0.23294  0.53641  1.0000
  C   C587      1.0  0.66297  0.17957  0.69435  1.0000
  H   H467      1.0  0.67052  0.07406  0.74467  1.0000
  C   C588      1.0  0.66576  0.04362  0.61567  1.0000
  H   H468      1.0  0.66984  0.28408  0.71404  1.0000
  H   H469      1.0  0.99070  0.04194  0.48390  1.0000
  H   H470      1.0  0.67802  0.00774  0.52975  1.0000
  H   H471      1.0  0.78943  0.06510  0.70469  1.0000
  C   C589      1.0  0.67053  0.01245  0.63768  1.0000
  C   C590      1.0  0.97697  0.04918  0.60551  1.0000
  H   H472      1.0  0.83627  0.46678  0.94368  1.0000
  C   C591      1.0  0.76670  0.05598  0.70329  1.0000
  C   C592      1.0  0.67438  0.34164  0.63922  1.0000
  C   C593      1.0  0.66508  0.20990  0.67073  1.0000
  C   C594      1.0  0.98561  0.25829  0.76410  1.0000
  C   C595      1.0  0.97839  0.27925  0.79523  1.0000
  C   C596      1.0  0.73067  0.00729  0.70607  1.0000
  C   C597      1.0  0.98475  0.27384  0.72844  1.0000
  C   C598      1.0  0.66813  0.04168  0.57689  1.0000
  P   P20       1.0  0.93199  0.00693  0.49813  1.0000
  H   H473      1.0  0.66425  0.06572  0.56004  1.0000
  H   H474      1.0  0.92927  0.48721  0.94521  1.0000
  H   H475      1.0  0.98370  0.09878  0.57484  1.0000
  H   H476      1.0  0.98763  0.05920  0.63049  1.0000
  C   C599      1.0  0.88346  0.47297  0.94567  1.0000
  H   H477      1.0  0.66077  0.06960  0.62840  1.0000
  S   S86       1.0  0.66034  0.13668  0.53592  1.0000
  H   H478      1.0  0.77736  0.99995  0.71536  1.0000
  H   H479      1.0  0.99161  0.22985  0.76754  1.0000
  H   H480      1.0  0.96544  0.99748  0.62990  1.0000
  H   H481      1.0  0.99237  0.31797  0.59859  1.0000
  H   H482      1.0  0.92728  0.90522  0.43121  1.0000
  C   C600      1.0  0.97449  0.90276  0.43707  1.0000
  C   C601      1.0  0.95882  0.53250  0.00309  1.0000
  C   C602      1.0  0.94630  0.88764  0.43449  1.0000
  C   C603      1.0  0.96728  0.82711  0.43882  1.0000
  H   H483      1.0  0.95184  0.70349  0.44406  1.0000
  H   H484      1.0  0.92080  0.83799  0.43438  1.0000
  H   H485      1.0  0.97712  0.93201  0.43517  1.0000
  H   H486      1.0  0.96453  0.79776  0.43889  1.0000
  C   C604      1.0  0.94264  0.84982  0.43599  1.0000
  H   H487      1.0  0.93673  0.52750  0.01326  1.0000
  C   C605      1.0  0.91476  0.67901  0.99345  1.0000
  H   H488      1.0  0.92518  0.98205  0.42180  1.0000
  H   H489      1.0  0.95462  0.99107  0.36462  1.0000
  C   C606      1.0  0.98287  0.52132  0.02477  1.0000
  H   H490      1.0  0.97938  0.50711  0.05097  1.0000
  H   H491      1.0  0.88630  0.65055  0.03176  1.0000
  H   H492      1.0  0.89563  0.59006  0.00431  1.0000
  C   C607      1.0  0.96341  0.54975  0.96857  1.0000
  C   C608      1.0  0.90593  0.61388  0.99204  1.0000
  C   C609      1.0  0.90080  0.64809  0.00791  1.0000
  H   H493      1.0  0.91094  0.70547  0.00595  1.0000
  C   C610      1.0  0.92462  0.61049  0.96106  1.0000
  C   C611      1.0  0.93413  0.67568  0.96338  1.0000
  C   C612      1.0  0.94590  0.99656  0.42346  1.0000
  S   S87       1.0  0.67438  0.71084  0.57372  1.0000
  Fe  Fe45      1.0  0.90332  0.74545  0.56694  1.0000
  S   S88       1.0  0.92867  0.75263  0.62049  1.0000
  S   S89       1.0  0.92276  0.72693  0.51118  1.0000
  Fe  Fe46      1.0  0.84474  0.76827  0.60293  1.0000
  S   S90       1.0  0.86675  0.77705  0.65808  1.0000
  S   S91       1.0  0.79741  0.78887  0.60286  1.0000
  Fe  Fe47      1.0  0.90254  0.80503  0.62590  1.0000
  S   S92       1.0  0.92265  0.85884  0.64568  1.0000
  Fe  Fe48      1.0  0.89024  0.72378  0.64790  1.0000
  S   S93       1.0  0.89024  0.68635  0.69959  1.0000
  S   S94       1.0  0.87949  0.79927  0.57106  1.0000
  S   S95       1.0  0.86605  0.71349  0.59406  1.0000
  C   C613      1.0  0.68767  0.57095  0.78165  1.0000
  H   H494      1.0  0.68143  0.69761  0.67155  1.0000
  S   S96       1.0  0.90827  0.51612  0.73487  1.0000
  H   H495      1.0  0.73030  0.88722  0.56812  1.0000
  H   H496      1.0  0.75053  0.91723  0.68156  1.0000
  H   H497      1.0  0.86787  0.57696  0.94270  1.0000
  C   C614      1.0  0.90699  0.96875  0.64523  1.0000
  C   C615      1.0  0.89339  0.63840  0.70759  1.0000
  C   C616      1.0  0.90380  0.61427  0.68049  1.0000
  C   C617      1.0  0.90782  0.57694  0.68923  1.0000
  C   C618      1.0  0.90108  0.56308  0.72491  1.0000
  C   C619      1.0  0.88964  0.58695  0.75154  1.0000
  C   C620      1.0  0.88616  0.62438  0.74303  1.0000
  H   H498      1.0  0.90949  0.62452  0.65312  1.0000
  H   H499      1.0  0.91658  0.55877  0.66830  1.0000
  H   H500      1.0  0.88400  0.57667  0.77890  1.0000
  H   H501      1.0  0.87809  0.64278  0.76416  1.0000
  C   C621      1.0  0.70861  0.73215  0.58274  1.0000
  C   C622      1.0  0.73504  0.71302  0.57636  1.0000
  C   C623      1.0  0.76259  0.72957  0.58309  1.0000
  C   C624      1.0  0.76378  0.76554  0.59583  1.0000
  C   C625      1.0  0.73735  0.78443  0.60253  1.0000
  C   C626      1.0  0.70988  0.76784  0.59615  1.0000
  H   H502      1.0  0.73420  0.68536  0.56611  1.0000
  H   H503      1.0  0.78282  0.71480  0.57781  1.0000
  H   H504      1.0  0.73816  0.81213  0.61264  1.0000
  H   H505      1.0  0.68970  0.78278  0.60131  1.0000
  C   C627      1.0  0.88847  0.90765  0.60453  1.0000
  C   C628      1.0  0.90834  0.90270  0.63395  1.0000
  C   C629      1.0  0.91775  0.93352  0.65401  1.0000
  H   H506      1.0  0.88108  0.88433  0.58879  1.0000
  H   H507      1.0  0.93314  0.93003  0.67680  1.0000
  H   H508      1.0  0.70160  0.60411  0.49944  1.0000
  H   H509      1.0  0.73037  0.61871  0.72145  1.0000
  H   H510      1.0  0.73558  0.69644  0.66277  1.0000
  C   C630      1.0  0.78438  0.69269  0.71481  1.0000
  C   C631      1.0  0.80439  0.69284  0.68523  1.0000
  C   C632      1.0  0.81866  0.66059  0.67511  1.0000
  C   C633      1.0  0.81273  0.62809  0.69419  1.0000
  C   C634      1.0  0.79194  0.62740  0.72321  1.0000
  C   C635      1.0  0.77832  0.66020  0.73394  1.0000
  P   P21       1.0  0.78577  0.58579  0.74950  1.0000
  C   C636      1.0  0.74735  0.58037  0.76246  1.0000
  C   C637      1.0  0.79502  0.54795  0.71967  1.0000
  H   H511      1.0  0.80521  0.52797  0.80180  1.0000
  C   C638      1.0  0.66260  0.53143  0.56090  1.0000
  H   H512      1.0  0.76027  0.63994  0.64137  1.0000
  C   C639      1.0  0.92845  0.59460  0.86945  1.0000
  C   C640      1.0  0.82325  0.53218  0.72097  1.0000
  C   C641      1.0  0.73915  0.55490  0.78998  1.0000
  C   C642      1.0  0.70945  0.55020  0.79941  1.0000
  H   H513      1.0  0.68813  0.98338  0.75982  1.0000
  H   H514      1.0  0.68219  0.86324  0.58889  1.0000
  C   C643      1.0  0.72512  0.60013  0.74387  1.0000
  C   C644      1.0  0.80928  0.58602  0.79036  1.0000
  C   C645      1.0  0.81483  0.55365  0.81034  1.0000
  C   C646      1.0  0.83365  0.55386  0.84121  1.0000
  C   C647      1.0  0.84752  0.58603  0.85204  1.0000
  C   C648      1.0  0.84222  0.61833  0.83243  1.0000
  C   C649      1.0  0.82312  0.61841  0.80182  1.0000
  H   H515      1.0  0.77387  0.71793  0.72313  1.0000
  H   H516      1.0  0.80941  0.71809  0.67064  1.0000
  H   H517      1.0  0.83516  0.66108  0.65327  1.0000
  H   H518      1.0  0.82503  0.60387  0.68670  1.0000
  H   H519      1.0  0.76339  0.66079  0.75746  1.0000
  H   H520      1.0  0.91400  0.99208  0.66129  1.0000
  C   C650      1.0  0.90170  0.53524  0.94606  1.0000
  H   H521      1.0  0.68256  0.54733  0.47080  1.0000
  C   C651      1.0  0.88496  0.91110  0.49216  1.0000
  H   H522      1.0  0.83959  0.54134  0.74081  1.0000
  H   H523      1.0  0.95507  0.63922  0.92495  1.0000
  H   H524      1.0  0.66831  0.86541  0.65534  1.0000
  C   C652      1.0  0.77807  0.91802  0.53157  1.0000
  H   H525      1.0  0.93964  0.97564  0.57463  1.0000
  H   H526      1.0  0.68729  0.95248  0.56838  1.0000
  C   C653      1.0  0.69555  0.59591  0.75391  1.0000
  C   C654      1.0  0.96582  0.66761  0.58602  1.0000
  C   C655      1.0  0.87252  0.54806  0.94439  1.0000
  H   H527      1.0  0.85321  0.64326  0.84055  1.0000
  H   H528      1.0  0.81990  0.64373  0.78683  1.0000
  C   C656      1.0  0.67355  0.96467  0.74559  1.0000
  H   H529      1.0  0.70250  0.89229  0.70168  1.0000
  C   C657      1.0  0.84585  0.92626  0.68680  1.0000
  C   C658      1.0  0.84746  0.89013  0.69916  1.0000
  C   C659      1.0  0.82773  0.86432  0.68530  1.0000
  C   C660      1.0  0.80676  0.87446  0.65862  1.0000
  C   C661      1.0  0.80567  0.91043  0.64508  1.0000
  C   C662      1.0  0.82518  0.93643  0.65970  1.0000
  P   P22       1.0  0.77941  0.92229  0.60905  1.0000
  C   C663      1.0  0.77733  0.97118  0.60335  1.0000
  C   C664      1.0  0.79024  0.90359  0.56455  1.0000
  C   C665      1.0  0.67945  0.53323  0.65491  1.0000
  C   C666      1.0  0.68896  0.61018  0.64100  1.0000
  C   C667      1.0  0.95866  0.73597  0.49326  1.0000
  C   C668      1.0  0.81013  0.87430  0.56227  1.0000
  H   H530      1.0  0.94544  0.69953  0.95269  1.0000
  C   C669      1.0  0.97878  0.75798  0.51222  1.0000
  H   H531      1.0  0.89640  0.85836  0.51486  1.0000
  H   H532      1.0  0.80926  0.86050  0.46856  1.0000
  C   C670      1.0  0.93112  0.89745  0.52301  1.0000
  H   H533      1.0  0.70329  0.53022  0.82039  1.0000
  C   C671      1.0  0.74394  0.90456  0.62325  1.0000
  C   C672      1.0  0.73575  0.90579  0.66099  1.0000
  C   C673      1.0  0.70857  0.89174  0.67251  1.0000
  C   C674      1.0  0.68931  0.87657  0.64646  1.0000
  C   C675      1.0  0.69716  0.87546  0.60886  1.0000
  C   C676      1.0  0.72443  0.88925  0.59723  1.0000
  H   H534      1.0  0.86138  0.94617  0.69725  1.0000
  H   H535      1.0  0.86436  0.88197  0.71891  1.0000
  H   H536      1.0  0.82907  0.83621  0.69461  1.0000
  H   H537      1.0  0.79187  0.85396  0.64783  1.0000
  H   H538      1.0  0.82513  0.96436  0.64986  1.0000
  H   H539      1.0  0.82014  0.86266  0.58697  1.0000
  H   H540      1.0  0.95188  0.56368  0.78511  1.0000
  C   C677      1.0  0.88737  0.97370  0.61549  1.0000
  C   C678      1.0  0.66589  0.93181  0.76307  1.0000
  C   C679      1.0  0.81685  0.85885  0.52775  1.0000
  H   H541      1.0  0.73554  0.97755  0.63107  1.0000
  H   H542      1.0  0.98885  0.69536  0.62961  1.0000
  H   H543      1.0  0.86399  0.94621  0.57135  1.0000
  C   C680      1.0  0.93931  0.64149  0.94748  1.0000
  H   H544      1.0  0.96176  0.94158  0.52737  1.0000
  C   C681      1.0  0.87853  0.94293  0.59496  1.0000
  H   H545      1.0  0.86262  0.58576  0.87534  1.0000
  C   C682      1.0  0.94913  0.56504  0.81512  1.0000
  C   C683      1.0  0.93316  0.59370  0.83095  1.0000
  C   C684      1.0  0.89390  0.94730  0.48708  1.0000
  H   H546      1.0  0.76275  0.94070  0.53263  1.0000
  H   H547      1.0  0.99193  0.65310  0.49855  1.0000
  H   H548      1.0  0.97974  0.82492  0.60624  1.0000
  P   P23       1.0  0.93240  0.56617  0.94176  1.0000
  C   C685      1.0  0.69224  0.67267  0.66281  1.0000
  C   C686      1.0  0.67539  0.64187  0.65448  1.0000
  H   H549      1.0  0.96520  0.51672  0.89355  1.0000
  C   C687      1.0  0.99008  0.68581  0.60111  1.0000
  C   C688      1.0  0.66207  0.97337  0.71029  1.0000
  C   C689      1.0  0.68017  0.55166  0.50051  1.0000
  P   P24       1.0  0.66756  0.57128  0.62632  1.0000
  H   H550      1.0  0.67863  0.61170  0.73987  1.0000
  C   C690      1.0  0.90339  0.88632  0.51057  1.0000
  C   C691      1.0  0.78512  0.90277  0.49703  1.0000
  C   C692      1.0  0.73661  0.64019  0.64553  1.0000
  C   C693      1.0  0.67391  0.56311  0.57743  1.0000
  H   H551      1.0  0.75306  0.54828  0.69075  1.0000
  H   H552      1.0  0.68268  0.95533  0.63661  1.0000
  C   C694      1.0  0.77482  0.53613  0.69262  1.0000
  H   H553      1.0  0.94734  0.64280  0.53699  1.0000
  H   H554      1.0  0.73077  0.58506  0.62711  1.0000
  C   C695      1.0  0.71982  0.60926  0.63742  1.0000
  C   C696      1.0  0.68772  0.58947  0.55489  1.0000
  H   H555      1.0  0.83776  0.52888  0.85654  1.0000
  C   C697      1.0  0.80429  0.87294  0.49517  1.0000
  H   H556      1.0  0.83134  0.83535  0.52651  1.0000
  H   H557      1.0  0.97227  0.77056  0.53809  1.0000
  H   H558      1.0  0.97259  0.51481  0.82564  1.0000
  C   C698      1.0  0.95659  0.53875  0.87645  1.0000
  H   H559      1.0  0.75539  0.53822  0.80406  1.0000
  H   H560      1.0  0.69532  0.61509  0.56637  1.0000
  C   C699      1.0  0.67124  0.53179  0.69259  1.0000
  H   H561      1.0  0.72612  0.97847  0.70898  1.0000
  H   H562      1.0  0.76746  0.50066  0.64587  1.0000
  C   C700      1.0  0.67823  0.97957  0.62029  1.0000
  H   H563      1.0  0.94613  0.66355  0.60263  1.0000
  H   H564      1.0  0.81931  0.97506  0.57520  1.0000
  C   C701      1.0  0.69102  0.58356  0.51665  1.0000
  C   C702      1.0  0.94016  0.93355  0.51771  1.0000
  C   C703      1.0  0.96084  0.53758  0.83789  1.0000
  H   H565      1.0  0.92390  0.61478  0.81316  1.0000
  C   C704      1.0  0.92107  0.95932  0.50139  1.0000
  H   H566      1.0  0.94549  0.87805  0.53700  1.0000
  C   C705      1.0  0.72278  0.67198  0.65794  1.0000
  H   H567      1.0  0.86369  0.90228  0.48196  1.0000
  C   C706      1.0  0.96727  0.72043  0.45910  1.0000
  C   C707      1.0  0.75304  0.99105  0.61632  1.0000
  H   H568      1.0  0.91494  0.61614  0.88091  1.0000
  H   H569      1.0  0.82647  0.53318  0.94208  1.0000
  C   C708      1.0  0.68120  0.97793  0.58153  1.0000
  C   C709      1.0  0.66588  0.52566  0.52261  1.0000
  H   H570      1.0  0.77537  0.91369  0.47177  1.0000
  C   C710      1.0  0.80020  0.98969  0.58517  1.0000
  C   C711      1.0  0.96656  0.65566  0.54913  1.0000
  H   H571      1.0  0.87948  0.96563  0.47199  1.0000
  H   H572      1.0  0.66461  0.56723  0.78888  1.0000
  C   C712      1.0  0.99168  0.66155  0.52745  1.0000
  C   C713      1.0  0.90695  0.49756  0.94601  1.0000
  C   C714      1.0  0.94052  0.56737  0.89256  1.0000
  C   C715      1.0  0.69797  0.50591  0.64064  1.0000
  H   H573      1.0  0.70548  0.50697  0.61206  1.0000
  C   C716      1.0  0.84899  0.52340  0.94397  1.0000
  H   H574      1.0  0.67489  0.92508  0.79025  1.0000
  H   H575      1.0  0.99055  0.75932  0.60359  1.0000
  C   C717      1.0  0.78287  0.50908  0.66717  1.0000
  C   C718      1.0  0.83108  0.50489  0.69580  1.0000
  C   C719      1.0  0.68030  0.50271  0.71524  1.0000
  H   H576      1.0  0.67325  0.50134  0.74412  1.0000
  C   C720      1.0  0.99236  0.55623  0.95640  1.0000
