data_image0
_chemical_formula_structural       FeCSCFeSHFeSHS2CHFeSCSFeSH2C6H4C2HC2H2C3H2CHC2H2C2S2CHC2HPC11HSHCH8C6PC9SC4FeHC2H17C2H3C13H9SC4SCH2PC4HC2HC2HC2H2C6HSHSH2C2HCHC2HSH8C2HCH2C2FeS2FeS2FeSFeS3CHC2H2FeS2HCHC2HFeS2HC6H4C6H7C2HC2H2CSCHC3H3C2HC7HC2H2CH2C2HC2HCH3C2HCH2CHSH2CH2CHC2HC2HC2PHPC8HC10HCHCH6CSH2CH2FeH2C2H2CHC2PCHC2HCH3C5PH3CHCHC2HSHC4SH2CPCHCFeC6H2C2H2C4H2CHC3H2C2FeC2H7C2HCH2C2HC3H2CFeS2FeS2FeSFeS3FeS2FeCFeCHCS2CH11C2H3C6H4C3H2PC11PC12H14CH2SC3HCH3C4FeC6PC8HC3HC4H11SHCH3CH2C2HCHC4H5C6HCH3C2HC5HC2HC2HC6HCH2CH3CHCH3CH2CH3CHC3HC2HFeS2FeCH4SHC2FeS3C2H2CHC2HC2HCHC3FeH2CH2C4H3CH2CHC2H2SH2C3HCHC6PC4HCHFeSHFeHCH2SCSHCHSHC4FeS2H3FeS2CS2C3HCH2CHC6H5C6H2C2FeH5CHCHC2HC3HC2HCHCHCHCH2CH4C2HC2HPC8HC2HC2H3C2SCH9C3HC2H2FeHC2H2CH2CHPCHSC6PC7HCH3CHCHC3HC2H2SCHFeSCFeSH2C3H3C2SH2C2H2CH3CHC2HPSCHC3HC2HCH2C5HCHC2PH2C2HC2H2CSCHCHCFeHC2HC3HCHPC2H2C3HC3HCHCHFeH2C2HCH2CH2C2SCHCH3CHC2HCHC2HC2HCHSCHCPFeSC3H4C3HCHCH4SH2C3HC3FeHS2HC3HC6PC3H2C3H2C3H2C3H6CH2C2H6SFeC4HCHC3SCH2CH2CSC3HCHC2H2C2FeCH2SCHC2HCHFeS2C6H6C2SC3PHCHCHCHCHCHC2SC2HC2H2CHC2H2C3H8C8H2CH3C2FeCHC2SPFeCFeH2CH2CHCSC4HC2HC4HC2HC3H6CHCHCHCH5CH2CPCHCHC2HC2HCHCS2CHFeSHCSC2H2C4H3CHC4FeH3CH3CH2CHSH2C2HCHC2HCHPC8HC9SCHCH2C3H4C2H3CH4FeH2C2H3CSCHCHCHCHCH2FeS2FeCSFeCFeCS2FeS2FeS2FeSFeS3C2HCHC6HCH3C2HC2HCH2C6H4C2H3CH4C5HC2PH2C7HCSCHC2HCH4CHPC13H6CH4C4PC2HC2HC10HCH2CHCH6C2H2CHCH2C2HCH4SH4C3H3C2HC3HC2H5C2SH3CSH2CHC3HC3HCPCFeS2FeS2FeSFeS3HSHFeS2CHC2HC6H4C6H4C4H3CHC14HC2H6C3H3CH4C3HCHC5SH3C2H3CH3C4FeHC3PC8HC5H8CH5CHCHC2SHC2HCH3C2H2C3H2C5H2CHCHCH2CSHCHCH4C3HC5HC3PHC2H4PC4SHC3HCHCH2SH2C2HC2HPH2C5FeCH3CPCH2C2HC4HC5HCS2HCS2C2SFe2SC2FeHC5H2FeCHPSC2SCHCHC2SC4H2CHC2HC2H2C6H3C3PHC8H2CH2CH6FeCH2CH3C3HCH4C3HSH2C2HC3HCH3SH3C2HCH2CHCH5CH3C2HCHC2HCHC2FeSHCSC2FeH2C3PFeCFeC2SHCHCHSC
_chemical_formula_sum              "Fe72 C1080 S144 H864 P36"
_cell_length_a       39.2069
_cell_length_b       39.3154
_cell_length_c       59.7422
_cell_angle_alpha    89.0904
_cell_angle_beta     89.9422
_cell_angle_gamma    119.899

_space_group_name_H-M_alt    "P 1"
_space_group_IT_number       1

loop_
  _space_group_symop_operation_xyz
  'x, y, z'

loop_
  _atom_site_type_symbol
  _atom_site_label
  _atom_site_symmetry_multiplicity
  _atom_site_fract_x
  _atom_site_fract_y
  _atom_site_fract_z
  _atom_site_occupancy
  Fe  Fe1       1.0  0.04553  0.33048  0.01044  1.0000
  C   C1        1.0  0.12109  0.01377  0.17049  1.0000
  S   S1        1.0  0.03131  0.36084  0.03780  1.0000
  C   C2        1.0  0.99988  0.35644  0.18100  1.0000
  Fe  Fe2       1.0  0.29417  0.01113  0.00002  1.0000
  S   S2        1.0  0.34398  0.03152  0.02416  1.0000
  H   H1        1.0  0.03132  0.31843  0.20428  1.0000
  Fe  Fe3       1.0  0.03209  0.15232  0.23108  1.0000
  S   S3        1.0  0.05425  0.11276  0.21892  1.0000
  H   H2        1.0  0.42313  0.13608  0.04881  1.0000
  S   S4        1.0  0.42325  0.00889  0.00039  1.0000
  S   S5        1.0  0.06239  0.21773  0.23386  1.0000
  C   C3        1.0  0.12441  0.35227  0.08397  1.0000
  H   H3        1.0  0.08258  0.32235  0.22943  1.0000
  Fe  Fe4       1.0  0.19256  0.03509  0.24499  1.0000
  S   S6        1.0  0.19805  0.09459  0.25038  1.0000
  C   C4        1.0  0.23926  0.06099  0.03339  1.0000
  S   S7        1.0  0.24365  0.02748  0.23444  1.0000
  Fe  Fe5       1.0  0.02223  0.20685  0.26381  1.0000
  S   S8        1.0  0.99620  0.14124  0.26241  1.0000
  H   H4        1.0  0.44073  0.00076  0.04757  1.0000
  H   H5        1.0  0.15382  0.01787  0.00419  1.0000
  C   C5        1.0  0.15611  0.09851  0.24424  1.0000
  C   C6        1.0  0.12231  0.06671  0.23572  1.0000
  C   C7        1.0  0.09008  0.07086  0.22963  1.0000
  C   C8        1.0  0.09135  0.10685  0.23180  1.0000
  C   C9        1.0  0.12397  0.13803  0.24175  1.0000
  C   C10       1.0  0.15655  0.13398  0.24775  1.0000
  H   H6        1.0  0.12083  0.03884  0.23378  1.0000
  H   H7        1.0  0.06420  0.04610  0.22291  1.0000
  H   H8        1.0  0.12486  0.16573  0.24379  1.0000
  H   H9        1.0  0.18241  0.15856  0.25467  1.0000
  C   C11       1.0  0.17753  0.35654  0.98661  1.0000
  C   C12       1.0  0.11041  0.03334  0.29012  1.0000
  H   H10       1.0  0.23274  0.35966  0.97806  1.0000
  C   C13       1.0  0.02574  0.31547  0.22213  1.0000
  C   C14       1.0  0.29648  0.09952  0.98064  1.0000
  H   H11       1.0  0.14194  0.34463  0.11697  1.0000
  H   H12       1.0  0.00620  0.29874  0.28614  1.0000
  C   C15       1.0  0.08259  0.00344  0.17638  1.0000
  C   C16       1.0  0.01180  0.30423  0.26829  1.0000
  C   C17       1.0  0.13911  0.33337  0.99521  1.0000
  H   H13       1.0  0.13580  0.38350  0.08565  1.0000
  H   H14       1.0  0.41242  0.18898  0.03338  1.0000
  C   C18       1.0  0.29202  0.01081  0.12896  1.0000
  H   H15       1.0  0.28456  0.01839  0.16421  1.0000
  C   C19       1.0  0.02659  0.29306  0.11846  1.0000
  C   C20       1.0  0.03986  0.29061  0.14012  1.0000
  H   H16       1.0  0.04451  0.31794  0.10755  1.0000
  H   H17       1.0  0.06822  0.31367  0.14558  1.0000
  C   C21       1.0  0.36443  0.10241  0.06239  1.0000
  C   C22       1.0  0.26997  0.00396  0.14899  1.0000
  S   S9        1.0  0.30387  0.00112  0.08433  1.0000
  S   S10       1.0  0.27459  0.04771  0.97931  1.0000
  C   C23       1.0  0.12790  0.33036  0.10157  1.0000
  H   H18       1.0  0.99852  0.17866  0.00613  1.0000
  C   C24       1.0  0.03265  0.19519  0.03641  1.0000
  C   C25       1.0  0.03226  0.19971  0.05971  1.0000
  H   H19       1.0  0.44966  0.42213  0.00146  1.0000
  P   P1        1.0  0.07730  0.21976  0.07568  1.0000
  C   C26       1.0  0.06648  0.19311  0.10222  1.0000
  C   C27       1.0  0.11499  0.21554  0.06041  1.0000
  C   C28       1.0  0.10593  0.18040  0.04979  1.0000
  C   C29       1.0  0.13449  0.17788  0.03696  1.0000
  C   C30       1.0  0.17232  0.21035  0.03471  1.0000
  C   C31       1.0  0.18176  0.24514  0.04553  1.0000
  C   C32       1.0  0.15333  0.24781  0.05832  1.0000
  C   C33       1.0  0.04678  0.15032  0.14297  1.0000
  C   C34       1.0  0.06428  0.14075  0.12563  1.0000
  C   C35       1.0  0.07438  0.16219  0.10541  1.0000
  C   C36       1.0  0.20317  0.34128  0.98454  1.0000
  H   H20       1.0  0.09668  0.27603  0.00780  1.0000
  S   S11       1.0  0.10865  0.35477  0.99775  1.0000
  H   H21       1.0  0.05986  0.20369  0.02751  1.0000
  C   C37       1.0  0.05804  0.04872  0.28687  1.0000
  H   H22       1.0  0.07651  0.15526  0.05102  1.0000
  H   H23       1.0  0.12709  0.15112  0.02830  1.0000
  H   H24       1.0  0.19416  0.20913  0.02410  1.0000
  H   H25       1.0  0.21071  0.27072  0.04306  1.0000
  H   H26       1.0  0.16125  0.27556  0.06593  1.0000
  H   H27       1.0  0.40915  0.02275  0.07544  1.0000
  H   H28       1.0  0.07022  0.11679  0.12794  1.0000
  H   H29       1.0  0.08813  0.15428  0.09242  1.0000
  C   C38       1.0  0.26309  0.12819  0.20056  1.0000
  C   C39       1.0  0.29757  0.15606  0.18966  1.0000
  C   C40       1.0  0.29545  0.17679  0.17098  1.0000
  C   C41       1.0  0.25881  0.16932  0.16303  1.0000
  C   C42       1.0  0.22404  0.14094  0.17375  1.0000
  C   C43       1.0  0.22652  0.12089  0.19276  1.0000
  P   P2        1.0  0.17685  0.13391  0.16517  1.0000
  C   C44       1.0  0.16622  0.16675  0.18075  1.0000
  C   C45       1.0  0.17897  0.14550  0.13558  1.0000
  C   C46       1.0  0.18879  0.18351  0.12825  1.0000
  C   C47       1.0  0.19042  0.19239  0.10536  1.0000
  C   C48       1.0  0.18285  0.16363  0.08962  1.0000
  C   C49       1.0  0.17358  0.12594  0.09673  1.0000
  C   C50       1.0  0.17166  0.11688  0.11960  1.0000
  C   C51       1.0  0.18940  0.18743  0.19905  1.0000
  C   C52       1.0  0.18234  0.21447  0.21010  1.0000
  S   S12       1.0  0.00613  0.27060  0.02493  1.0000
  C   C53       1.0  0.12839  0.20001  0.18519  1.0000
  C   C54       1.0  0.13582  0.17345  0.17389  1.0000
  C   C55       1.0  0.13963  0.08286  0.16951  1.0000
  C   C56       1.0  0.01257  0.37135  0.15928  1.0000
  Fe  Fe6       1.0  0.01360  0.21398  0.21202  1.0000
  H   H30       1.0  0.11937  0.09190  0.29025  1.0000
  C   C57       1.0  0.38880  0.16411  0.04225  1.0000
  C   C58       1.0  0.10072  0.07213  0.17516  1.0000
  H   H31       1.0  0.26455  0.11273  0.21542  1.0000
  H   H32       1.0  0.32588  0.16191  0.19595  1.0000
  H   H33       1.0  0.32225  0.19884  0.16276  1.0000
  H   H34       1.0  0.25778  0.18603  0.14876  1.0000
  H   H35       1.0  0.20019  0.10006  0.20189  1.0000
  H   H36       1.0  0.19543  0.20642  0.14018  1.0000
  H   H37       1.0  0.19779  0.22169  0.09981  1.0000
  H   H38       1.0  0.18471  0.17074  0.07191  1.0000
  H   H39       1.0  0.16803  0.10369  0.08455  1.0000
  H   H40       1.0  0.16467  0.08759  0.12473  1.0000
  H   H41       1.0  0.21261  0.18251  0.20512  1.0000
  H   H42       1.0  0.34868  0.10893  0.99774  1.0000
  H   H43       1.0  0.02610  0.18898  0.15362  1.0000
  H   H44       1.0  0.10422  0.20434  0.18018  1.0000
  H   H45       1.0  0.11784  0.15800  0.15984  1.0000
  H   H46       1.0  0.17911  0.06045  0.16270  1.0000
  H   H47       1.0  0.19990  0.22979  0.22443  1.0000
  C   C59       1.0  0.99691  0.19189  0.07021  1.0000
  C   C60       1.0  0.15215  0.27925  0.99973  1.0000
  H   H48       1.0  0.09226  0.09404  0.17788  1.0000
  H   H49       1.0  0.38116  0.18160  0.99510  1.0000
  H   H50       1.0  0.04272  0.02471  0.18352  1.0000
  C   C61       1.0  0.04810  0.31218  0.25945  1.0000
  C   C62       1.0  0.26102  0.10887  0.08959  1.0000
  C   C63       1.0  0.28834  0.12777  0.10667  1.0000
  C   C64       1.0  0.28118  0.11140  0.12831  1.0000
  C   C65       1.0  0.24669  0.07618  0.13313  1.0000
  C   C66       1.0  0.21930  0.05718  0.11630  1.0000
  C   C67       1.0  0.27857  0.17392  0.05563  1.0000
  C   C68       1.0  0.27745  0.19681  0.07310  1.0000
  C   C69       1.0  0.28011  0.23309  0.06835  1.0000
  C   C70       1.0  0.28385  0.24664  0.04618  1.0000
  C   C71       1.0  0.28477  0.22390  0.02873  1.0000
  C   C72       1.0  0.28192  0.18763  0.03340  1.0000
  C   C73       1.0  0.15171  0.22059  0.20327  1.0000
  H   H51       1.0  0.26433  0.05714  0.03656  1.0000
  H   H52       1.0  0.31601  0.15423  0.10299  1.0000
  H   H53       1.0  0.30304  0.12519  0.14119  1.0000
  H   H54       1.0  0.24181  0.06290  0.14976  1.0000
  H   H55       1.0  0.19332  0.02907  0.11995  1.0000
  H   H56       1.0  0.27444  0.18683  0.09034  1.0000
  H   H57       1.0  0.27972  0.25097  0.08185  1.0000
  H   H58       1.0  0.28647  0.27496  0.04243  1.0000
  H   H59       1.0  0.28835  0.23465  0.01153  1.0000
  S   S13       1.0  0.03500  0.25768  0.18204  1.0000
  C   C74       1.0  0.07232  0.03257  0.17841  1.0000
  C   C75       1.0  0.03014  0.00857  0.28571  1.0000
  C   C76       1.0  0.22639  0.07333  0.09458  1.0000
  C   C77       1.0  0.33355  0.12269  0.99000  1.0000
  S   S14       1.0  0.04778  0.24029  0.29663  1.0000
  C   C78       1.0  0.20904  0.03404  0.01987  1.0000
  H   H60       1.0  0.28302  0.17053  0.01961  1.0000
  H   H61       1.0  0.20555  0.05710  0.08164  1.0000
  P   P3        1.0  0.27426  0.12650  0.06098  1.0000
  C   C79       1.0  0.19086  0.30271  0.99143  1.0000
  C   C80       1.0  0.03932  0.18129  0.14008  1.0000
  C   C81       1.0  0.23706  0.09265  0.04229  1.0000
  C   C82       1.0  0.04879  0.20237  0.11977  1.0000
  H   H62       1.0  0.07807  0.28016  0.04626  1.0000
  C   C83       1.0  0.10640  0.33393  0.06410  1.0000
  C   C84       1.0  0.05499  0.31762  0.23638  1.0000
  H   H63       1.0  0.14560  0.24076  0.21221  1.0000
  C   C85       1.0  0.17666  0.03851  0.01503  1.0000
  C   C86       1.0  0.46917  0.45093  0.99433  1.0000
  H   H64       1.0  0.36901  0.07928  0.06920  1.0000
  C   C87       1.0  0.09789  0.06092  0.28953  1.0000
  C   C88       1.0  0.09432  0.27126  0.07955  1.0000
  H   H65       1.0  0.03926  0.13402  0.15877  1.0000
  H   H66       1.0  0.34853  0.18523  0.03783  1.0000
  C   C89       1.0  0.35216  0.16170  0.04477  1.0000
  C   C90       1.0  0.32115  0.12931  0.05598  1.0000
  C   C91       1.0  0.39489  0.13441  0.05097  1.0000
  C   C92       1.0  0.01669  0.25884  0.15480  1.0000
  C   C93       1.0  0.20395  0.09651  0.03773  1.0000
  C   C94       1.0  0.09140  0.29363  0.06190  1.0000
  H   H67       1.0  0.04223  0.22593  0.11780  1.0000
  S   S15       1.0  0.33879  0.32127  0.98449  1.0000
  H   H68       1.0  0.07046  0.31300  0.27046  1.0000
  S   S16       1.0  0.22272  0.28264  0.99030  1.0000
  H   H69       1.0  0.20140  0.12045  0.04461  1.0000
  H   H70       1.0  0.32348  0.03055  0.12908  1.0000
  C   C95       1.0  0.17406  0.06972  0.02400  1.0000
  C   C96       1.0  0.32771  0.09974  0.06481  1.0000
  H   H71       1.0  0.30450  0.07455  0.07369  1.0000
  C   C97       1.0  0.11329  0.29006  0.09931  1.0000
  H   H72       1.0  0.11706  0.27385  0.11296  1.0000
  C   C98       1.0  0.12630  0.29437  0.00148  1.0000
  C   C99       1.0  0.14941  0.05321  0.16697  1.0000
  H   H73       1.0  0.14204  0.24918  0.00477  1.0000
  S   S17       1.0  0.99955  0.32761  0.98661  1.0000
  H   H74       1.0  0.14901  0.07327  0.02018  1.0000
  H   H75       1.0  0.10430  0.35099  0.05025  1.0000
  H   H76       1.0  0.14151  0.04305  0.29146  1.0000
  H   H77       1.0  0.04936  0.07081  0.28520  1.0000
  H   H78       1.0  0.18781  0.38676  0.98180  1.0000
  H   H79       1.0  0.21121  0.01010  0.01264  1.0000
  H   H80       1.0  0.03880  0.39967  0.15671  1.0000
  H   H81       1.0  0.01625  0.37378  0.19513  1.0000
  C   C100      1.0  0.35185  0.16390  0.98859  1.0000
  C   C101      1.0  0.33291  0.18248  0.97855  1.0000
  H   H82       1.0  0.99601  0.19750  0.08779  1.0000
  C   C102      1.0  0.99791  0.18115  0.02414  1.0000
  H   H83       1.0  0.00154  0.36086  0.12396  1.0000
  H   H84       1.0  0.99184  0.05069  0.24748  1.0000
  C   C103      1.0  0.99153  0.34966  0.14083  1.0000
  C   C104      1.0  0.00897  0.46365  0.97753  1.0000
  Fe  Fe7       1.0  0.32495  0.31496  0.55533  1.0000
  S   S18       1.0  0.27602  0.28301  0.53089  1.0000
  S   S19       1.0  0.31963  0.30809  0.59378  1.0000
  Fe  Fe8       1.0  0.38529  0.36695  0.51747  1.0000
  S   S20       1.0  0.33954  0.33714  0.49081  1.0000
  S   S21       1.0  0.00408  0.32029  0.48366  1.0000
  Fe  Fe9       1.0  0.29683  0.34172  0.51422  1.0000
  S   S22       1.0  0.25766  0.36637  0.50275  1.0000
  Fe  Fe10      1.0  0.32211  0.28027  0.50948  1.0000
  S   S23       1.0  0.30248  0.22358  0.49039  1.0000
  S   S24       1.0  0.34345  0.37474  0.54000  1.0000
  S   S25       1.0  0.37008  0.30903  0.53482  1.0000
  C   C105      1.0  0.46403  0.99614  0.55974  1.0000
  H   H85       1.0  0.46116  0.27782  0.39603  1.0000
  C   C106      1.0  0.02608  0.24905  0.32070  1.0000
  C   C107      1.0  0.39725  0.17889  0.42783  1.0000
  H   H86       1.0  0.31274  0.27661  0.45207  1.0000
  H   H87       1.0  0.13281  0.32083  0.52914  1.0000
  Fe  Fe11      1.0  0.35985  0.05739  0.46955  1.0000
  S   S26       1.0  0.38112  0.11494  0.48824  1.0000
  S   S27       1.0  0.39158  0.05082  0.43979  1.0000
  H   H88       1.0  0.14146  0.43073  0.62096  1.0000
  C   C108      1.0  0.33401  0.21548  0.57704  1.0000
  H   H89       1.0  0.10794  0.20424  0.44043  1.0000
  C   C109      1.0  0.15944  0.24624  0.55498  1.0000
  C   C110      1.0  0.23706  0.06225  0.62583  1.0000
  H   H90       1.0  0.11813  0.28598  0.58792  1.0000
  Fe  Fe12      1.0  0.03700  0.30009  0.46171  1.0000
  S   S28       1.0  0.07651  0.27698  0.47528  1.0000
  S   S29       1.0  0.04774  0.34436  0.43412  1.0000
  H   H91       1.0  0.07474  0.26743  0.39393  1.0000
  C   C111      1.0  0.32476  0.19372  0.49030  1.0000
  C   C112      1.0  0.35761  0.20213  0.50330  1.0000
  C   C113      1.0  0.37424  0.17752  0.50260  1.0000
  C   C114      1.0  0.35833  0.14433  0.48893  1.0000
  C   C115      1.0  0.32544  0.13593  0.47598  1.0000
  C   C116      1.0  0.30877  0.16047  0.47671  1.0000
  H   H92       1.0  0.37025  0.22758  0.51386  1.0000
  H   H93       1.0  0.39966  0.18427  0.51267  1.0000
  H   H94       1.0  0.31300  0.11066  0.46529  1.0000
  H   H95       1.0  0.28342  0.15373  0.46655  1.0000
  C   C117      1.0  0.20714  0.34081  0.49536  1.0000
  C   C118      1.0  0.18984  0.36232  0.48705  1.0000
  C   C119      1.0  0.14998  0.34333  0.48074  1.0000
  C   C120      1.0  0.12700  0.30249  0.48256  1.0000
  C   C121      1.0  0.14423  0.28094  0.49093  1.0000
  C   C122      1.0  0.18400  0.29997  0.49745  1.0000
  H   H96       1.0  0.20744  0.39393  0.48545  1.0000
  H   H97       1.0  0.13699  0.36029  0.47460  1.0000
  H   H98       1.0  0.12667  0.24932  0.49238  1.0000
  H   H99       1.0  0.19690  0.28307  0.50380  1.0000
  H   H100      1.0  0.15981  0.38812  0.54305  1.0000
  H   H101      1.0  0.03230  0.48426  0.42233  1.0000
  H   H102      1.0  0.43773  0.45675  0.47549  1.0000
  C   C123      1.0  0.43274  0.25030  0.42757  1.0000
  C   C124      1.0  0.27048  0.12874  0.63928  1.0000
  H   H103      1.0  0.29841  0.17447  0.61462  1.0000
  C   C125      1.0  0.40810  0.32761  0.41607  1.0000
  C   C126      1.0  0.07240  0.30725  0.53144  1.0000
  H   H104      1.0  0.28249  0.18394  0.53368  1.0000
  H   H105      1.0  0.11509  0.41284  0.55352  1.0000
  C   C127      1.0  0.03921  0.36097  0.62035  1.0000
  S   S30       1.0  0.30533  0.01746  0.39214  1.0000
  C   C128      1.0  0.46851  0.47306  0.47987  1.0000
  H   H106      1.0  0.21885  0.02189  0.44158  1.0000
  C   C129      1.0  0.19566  0.26951  0.58945  1.0000
  C   C130      1.0  0.29036  0.27204  0.61469  1.0000
  C   C131      1.0  0.26102  0.23385  0.60955  1.0000
  H   H107      1.0  0.17779  0.35902  0.58650  1.0000
  H   H108      1.0  0.39697  0.21313  0.45526  1.0000
  H   H109      1.0  0.25471  0.22546  0.59224  1.0000
  C   C132      1.0  0.33938  0.29113  0.44207  1.0000
  C   C133      1.0  0.24848  0.08837  0.64355  1.0000
  H   H110      1.0  0.37827  0.35104  0.39631  1.0000
  C   C134      1.0  0.22549  0.17912  0.53409  1.0000
  C   C135      1.0  0.18915  0.16348  0.54506  1.0000
  C   C136      1.0  0.24680  0.14721  0.56132  1.0000
  C   C137      1.0  0.25437  0.17143  0.54232  1.0000
  C   C138      1.0  0.33084  0.18008  0.57011  1.0000
  C   C139      1.0  0.36485  0.17999  0.56272  1.0000
  C   C140      1.0  0.40141  0.21453  0.56286  1.0000
  H   H111      1.0  0.21593  0.02541  0.40019  1.0000
  C   C141      1.0  0.15895  0.39621  0.60147  1.0000
  C   C142      1.0  0.29841  0.37562  0.61693  1.0000
  H   H112      1.0  0.23142  0.19719  0.51909  1.0000
  H   H113      1.0  0.16692  0.16964  0.53866  1.0000
  C   C143      1.0  0.18158  0.13993  0.56426  1.0000
  H   H114      1.0  0.45051  0.33737  0.51930  1.0000
  H   H115      1.0  0.42743  0.21425  0.55704  1.0000
  C   C144      1.0  0.45325  0.31705  0.50840  1.0000
  C   C145      1.0  0.29055  0.04523  0.52515  1.0000
  H   H116      1.0  0.29312  0.02480  0.51421  1.0000
  C   C146      1.0  0.16325  0.23535  0.33408  1.0000
  C   C147      1.0  0.19023  0.25124  0.56885  1.0000
  H   H117      1.0  0.43408  0.34106  0.40545  1.0000
  C   C148      1.0  0.34202  0.31488  0.42376  1.0000
  H   H118      1.0  0.21034  0.24147  0.56361  1.0000
  H   H119      1.0  0.20343  0.11290  0.58705  1.0000
  H   H120      1.0  0.31861  0.03403  0.55291  1.0000
  C   C149      1.0  0.40433  0.24932  0.57047  1.0000
  C   C150      1.0  0.27370  0.06703  0.51719  1.0000
  H   H121      1.0  0.99181  0.39176  0.51388  1.0000
  C   C151      1.0  0.20809  0.99777  0.40854  1.0000
  H   H122      1.0  0.21788  0.17671  0.62270  1.0000
  H   H123      1.0  0.37886  0.15114  0.43656  1.0000
  C   C152      1.0  0.23989  0.20630  0.62690  1.0000
  H   H124      1.0  0.05462  0.30057  0.36960  1.0000
  S   S31       1.0  0.03339  0.42858  0.46186  1.0000
  H   H125      1.0  0.42252  0.05398  0.52757  1.0000
  H   H126      1.0  0.15350  0.12803  0.57287  1.0000
  C   C153      1.0  0.01990  0.46184  0.47441  1.0000
  H   H127      1.0  0.26361  0.06366  0.50005  1.0000
  H   H128      1.0  0.10932  0.25430  0.55130  1.0000
  C   C154      1.0  0.30220  0.07739  0.56087  1.0000
  H   H129      1.0  0.13541  0.04384  0.62326  1.0000
  C   C155      1.0  0.40972  0.17928  0.40587  1.0000
  C   C156      1.0  0.45049  0.29195  0.47116  1.0000
  H   H130      1.0  0.44176  0.21519  0.37733  1.0000
  C   C157      1.0  0.16364  0.34454  0.62173  1.0000
  C   C158      1.0  0.03514  0.28106  0.35707  1.0000
  H   H131      1.0  0.09464  0.23970  0.36637  1.0000
  C   C159      1.0  0.37635  0.33300  0.41068  1.0000
  C   C160      1.0  0.19369  0.24740  0.34954  1.0000
  P   P4        1.0  0.17864  0.30794  0.62263  1.0000
  H   H132      1.0  0.37271  0.27676  0.58331  1.0000
  P   P5        1.0  0.14695  0.26772  0.40586  1.0000
  C   C161      1.0  0.15856  0.31830  0.40503  1.0000
  C   C162      1.0  0.17983  0.26213  0.42489  1.0000
  C   C163      1.0  0.18162  0.22729  0.42503  1.0000
  C   C164      1.0  0.20609  0.22214  0.44008  1.0000
  C   C165      1.0  0.22920  0.25182  0.45493  1.0000
  C   C166      1.0  0.22842  0.28695  0.45448  1.0000
  C   C167      1.0  0.20349  0.29199  0.43974  1.0000
  C   C168      1.0  0.18412  0.34449  0.38854  1.0000
  H   H133      1.0  0.21929  0.03097  0.62917  1.0000
  C   C169      1.0  0.17672  0.39699  0.40417  1.0000
  C   C170      1.0  0.15147  0.37114  0.42070  1.0000
  C   C171      1.0  0.14237  0.33194  0.42113  1.0000
  C   C172      1.0  0.15269  0.25369  0.37795  1.0000
  C   C173      1.0  0.12236  0.24173  0.36219  1.0000
  C   C174      1.0  0.04666  0.18560  0.43893  1.0000
  C   C175      1.0  0.05075  0.27300  0.33779  1.0000
  C   C176      1.0  0.06191  0.35913  0.54529  1.0000
  C   C177      1.0  0.18860  0.25683  0.37132  1.0000
  C   C178      1.0  0.27125  0.11704  0.59944  1.0000
  H   H134      1.0  0.25896  0.11134  0.52410  1.0000
  C   C179      1.0  0.37121  0.28613  0.44766  1.0000
  H   H135      1.0  0.36342  0.15355  0.55664  1.0000
  C   C180      1.0  0.06717  0.24403  0.40607  1.0000
  H   H136      1.0  0.16360  0.20389  0.41373  1.0000
  H   H137      1.0  0.20700  0.19503  0.44037  1.0000
  H   H138      1.0  0.24756  0.24753  0.46691  1.0000
  H   H139      1.0  0.24658  0.31010  0.46593  1.0000
  H   H140      1.0  0.20256  0.31903  0.44031  1.0000
  H   H141      1.0  0.16726  0.22836  0.31714  1.0000
  C   C181      1.0  0.01754  0.19115  0.42893  1.0000
  S   S32       1.0  0.35724  0.00627  0.48877  1.0000
  H   H142      1.0  0.13880  0.38140  0.43319  1.0000
  H   H143      1.0  0.12270  0.31232  0.43406  1.0000
  C   C182      1.0  0.46488  0.29129  0.51713  1.0000
  H   H144      1.0  0.40089  0.15177  0.39759  1.0000
  H   H145      1.0  0.43707  0.33774  0.47914  1.0000
  Fe  Fe13      1.0  0.33092  0.01028  0.42578  1.0000
  H   H146      1.0  0.21290  0.26702  0.38285  1.0000
  H   H147      1.0  0.00772  0.04384  0.32176  1.0000
  C   C183      1.0  0.13866  0.27674  0.58270  1.0000
  C   C184      1.0  0.28510  0.09934  0.55304  1.0000
  H   H148      1.0  0.15581  0.23293  0.53877  1.0000
  H   H149      1.0  0.18356  0.42732  0.40384  1.0000
  C   C185      1.0  0.13339  0.25858  0.56201  1.0000
  H   H150      1.0  0.19713  0.33478  0.37599  1.0000
  C   C186      1.0  0.20991  0.99582  0.43184  1.0000
  C   C187      1.0  0.08601  0.20874  0.43216  1.0000
  P   P6        1.0  0.44558  0.29568  0.44133  1.0000
  C   C188      1.0  0.46950  0.26593  0.50296  1.0000
  H   H151      1.0  0.08228  0.28593  0.33597  1.0000
  C   C189      1.0  0.14748  0.40662  0.62117  1.0000
  C   C190      1.0  0.37062  0.24975  0.57755  1.0000
  H   H152      1.0  0.06989  0.36194  0.59047  1.0000
  C   C191      1.0  0.07173  0.43935  0.52285  1.0000
  H   H153      1.0  0.05769  0.35472  0.63113  1.0000
  H   H154      1.0  0.47594  0.38011  0.44371  1.0000
  H   H155      1.0  0.21181  0.00602  0.54910  1.0000
  C   C192      1.0  0.44574  0.31723  0.48554  1.0000
  C   C193      1.0  0.16740  0.36558  0.60176  1.0000
  C   C194      1.0  0.00860  0.36487  0.62958  1.0000
  C   C195      1.0  0.10281  0.38316  0.54758  1.0000
  C   C196      1.0  0.12821  0.36924  0.54188  1.0000
  P   P7        1.0  0.02967  0.37763  0.55308  1.0000
  H   H156      1.0  0.43258  0.27606  0.57083  1.0000
  H   H157      1.0  0.31430  0.08177  0.57756  1.0000
  H   H158      1.0  0.21262  0.40376  0.37529  1.0000
  C   C197      1.0  0.25841  0.35381  0.61189  1.0000
  H   H159      1.0  0.30827  0.21670  0.58226  1.0000
  C   C198      1.0  0.24805  0.07648  0.60384  1.0000
  H   H160      1.0  0.07348  0.41798  0.51237  1.0000
  C   C199      1.0  0.30482  0.05042  0.54698  1.0000
  C   C200      1.0  0.05194  0.42817  0.54360  1.0000
  H   H161      1.0  0.22138  0.24976  0.34456  1.0000
  S   S33       1.0  0.45180  0.41297  0.51197  1.0000
  H   H162      1.0  0.21984  0.27337  0.59989  1.0000
  C   C201      1.0  0.21013  0.13150  0.57229  1.0000
  C   C202      1.0  0.11299  0.33124  0.53396  1.0000
  C   C203      1.0  0.17054  0.28329  0.59628  1.0000
  C   C204      1.0  0.04845  0.45622  0.55616  1.0000
  S   S34       1.0  0.30040  0.02080  0.45475  1.0000
  H   H163      1.0  0.23791  0.05584  0.59030  1.0000
  H   H164      1.0  0.01566  0.30220  0.53450  1.0000
  C   C205      1.0  0.12770  0.23271  0.34038  1.0000
  P   P8        1.0  0.28350  0.13545  0.57084  1.0000
  C   C206      1.0  0.09653  0.23794  0.41546  1.0000
  H   H165      1.0  0.03150  0.03025  0.64199  1.0000
  C   C207      1.0  0.27112  0.09412  0.53098  1.0000
  Fe  Fe14      1.0  0.01095  0.36225  0.45545  1.0000
  C   C208      1.0  0.40604  0.30494  0.43500  1.0000
  C   C209      1.0  0.02782  0.22026  0.41242  1.0000
  C   C210      1.0  0.41334  0.99680  0.53690  1.0000
  C   C211      1.0  0.26065  0.00798  0.32882  1.0000
  C   C212      1.0  0.99445  0.26499  0.35972  1.0000
  C   C213      1.0  0.40811  0.21419  0.43851  1.0000
  H   H166      1.0  0.31737  0.31900  0.41968  1.0000
  H   H167      1.0  0.36858  0.26740  0.46181  1.0000
  C   C214      1.0  0.27072  0.01736  0.35157  1.0000
  C   C215      1.0  0.19306  0.38368  0.38811  1.0000
  H   H168      1.0  0.32001  0.31152  0.64165  1.0000
  H   H169      1.0  0.24320  0.01831  0.32020  1.0000
  C   C216      1.0  0.04607  0.36516  0.59720  1.0000
  C   C217      1.0  0.04687  0.32105  0.53710  1.0000
  C   C218      1.0  0.08832  0.47806  0.51498  1.0000
  C   C219      1.0  0.46964  0.05804  0.54802  1.0000
  H   H170      1.0  0.46776  0.24750  0.46926  1.0000
  H   H171      1.0  0.06082  0.27838  0.52432  1.0000
  C   C220      1.0  0.43289  0.21504  0.39453  1.0000
  H   H172      1.0  0.26080  0.03493  0.36015  1.0000
  C   C221      1.0  0.46287  0.26660  0.48001  1.0000
  C   C222      1.0  0.23037  0.33507  0.62909  1.0000
  C   C223      1.0  0.28192  0.14306  0.61736  1.0000
  H   H173      1.0  0.03880  0.16387  0.45222  1.0000
  H   H174      1.0  0.24963  0.35124  0.59454  1.0000
  C   C224      1.0  0.44414  0.25046  0.40526  1.0000
  C   C225      1.0  0.43393  0.03784  0.53678  1.0000
  Fe  Fe15      1.0  0.38616  0.99757  0.45850  1.0000
  C   C226      1.0  0.12712  0.04413  0.64051  1.0000
  C   C227      1.0  0.48461  0.03719  0.55956  1.0000
  H   H175      1.0  0.10426  0.22406  0.32827  1.0000
  H   H176      1.0  0.48593  0.08983  0.54753  1.0000
  H   H177      1.0  0.32001  0.38862  0.60349  1.0000
  H   H178      1.0  0.47723  0.03775  0.49648  1.0000
  H   H179      1.0  0.16232  0.41257  0.58607  1.0000
  H   H180      1.0  0.10280  0.48615  0.49873  1.0000
  H   H181      1.0  0.03281  0.44849  0.57197  1.0000
  C   C228      1.0  0.00578  0.48635  0.42330  1.0000
  C   C229      1.0  0.48253  0.45864  0.49703  1.0000
  H   H182      1.0  0.00542  0.22520  0.40490  1.0000
  C   C230      1.0  0.29726  0.28231  0.63739  1.0000
  H   H183      1.0  0.47837  0.24579  0.50971  1.0000
  H   H184      1.0  0.47059  0.29125  0.53485  1.0000
  C   C231      1.0  0.02205  0.37302  0.58309  1.0000
  C   C232      1.0  0.29352  0.00441  0.36329  1.0000
  H   H185      1.0  0.99508  0.09548  0.33555  1.0000
  C   C233      1.0  0.15180  0.26970  0.64340  1.0000
  C   C234      1.0  0.15358  0.35621  0.64161  1.0000
  C   C235      1.0  0.14499  0.38676  0.64125  1.0000
  H   H186      1.0  0.34178  0.39570  0.64291  1.0000
  H   H187      1.0  0.09954  0.27533  0.64316  1.0000
  C   C236      1.0  0.31068  0.37948  0.63914  1.0000
  Fe  Fe16      1.0  0.16797  0.12401  0.74712  1.0000
  S   S35       1.0  0.16719  0.16880  0.76959  1.0000
  S   S36       1.0  0.13722  0.06322  0.76282  1.0000
  Fe  Fe17      1.0  0.20883  0.18323  0.70844  1.0000
  S   S37       1.0  0.21126  0.23265  0.72839  1.0000
  S   S38       1.0  0.22077  0.18012  0.67082  1.0000
  Fe  Fe18      1.0  0.22902  0.20860  0.75822  1.0000
  S   S39       1.0  0.27640  0.24703  0.78366  1.0000
  Fe  Fe19      1.0  0.14902  0.18903  0.73895  1.0000
  S   S40       1.0  0.10374  0.20865  0.73910  1.0000
  S   S41       1.0  0.23160  0.16212  0.73734  1.0000
  S   S42       1.0  0.14494  0.14147  0.71740  1.0000
  Fe  Fe20      1.0  0.30607  0.30057  0.92141  1.0000
  S   S43       1.0  0.27718  0.25616  0.94956  1.0000
  S   S44       1.0  0.26930  0.27625  0.88910  1.0000
  Fe  Fe21      1.0  0.36622  0.36267  0.95483  1.0000
  C   C237      1.0  0.99540  0.11557  0.67196  1.0000
  Fe  Fe22      1.0  0.33735  0.27487  0.96221  1.0000
  C   C238      1.0  0.13763  0.43620  0.95596  1.0000
  H   H188      1.0  0.09943  0.38723  0.89079  1.0000
  C   C239      1.0  0.20058  0.28919  0.92494  1.0000
  S   S45       1.0  0.36730  0.31644  0.93292  1.0000
  S   S46       1.0  0.30629  0.34942  0.94123  1.0000
  C   C240      1.0  0.16810  0.27381  0.93940  1.0000
  H   H189      1.0  0.42813  0.02977  0.95277  1.0000
  H   H190      1.0  0.16575  0.25412  0.95296  1.0000
  H   H191      1.0  0.16247  0.20402  0.67637  1.0000
  H   H192      1.0  0.01904  0.11310  0.67977  1.0000
  H   H193      1.0  0.22180  0.32643  0.66505  1.0000
  H   H194      1.0  0.27820  0.14910  0.65296  1.0000
  H   H195      1.0  0.15318  0.34229  0.65749  1.0000
  H   H196      1.0  0.16373  0.09584  0.68798  1.0000
  H   H197      1.0  0.36777  0.19110  0.93421  1.0000
  H   H198      1.0  0.14488  0.46165  0.96596  1.0000
  H   H199      1.0  0.25878  0.07619  0.85747  1.0000
  C   C241      1.0  0.02855  0.26330  0.91040  1.0000
  C   C242      1.0  0.14287  0.07353  0.67699  1.0000
  H   H200      1.0  0.16931  0.05318  0.72082  1.0000
  H   H201      1.0  0.28158  0.26358  0.67202  1.0000
  H   H202      1.0  0.03326  0.26817  0.89255  1.0000
  C   C243      1.0  0.27252  0.26770  0.85995  1.0000
  C   C244      1.0  0.23801  0.24114  0.84868  1.0000
  C   C245      1.0  0.23857  0.23402  0.82556  1.0000
  C   C246      1.0  0.27380  0.25351  0.81320  1.0000
  C   C247      1.0  0.30841  0.27957  0.82457  1.0000
  C   C248      1.0  0.30786  0.28658  0.84771  1.0000
  H   H203      1.0  0.21064  0.22585  0.85793  1.0000
  H   H204      1.0  0.21169  0.21374  0.81725  1.0000
  H   H205      1.0  0.33590  0.29479  0.81532  1.0000
  H   H206      1.0  0.33473  0.30705  0.85598  1.0000
  C   C249      1.0  0.03151  0.13801  0.73923  1.0000
  C   C250      1.0  0.05233  0.17892  0.73563  1.0000
  C   C251      1.0  0.03159  0.19813  0.72992  1.0000
  H   H207      1.0  0.04732  0.12288  0.74359  1.0000
  H   H208      1.0  0.04733  0.22958  0.72710  1.0000
  P   P9        1.0  0.10576  0.32511  0.91582  1.0000
  C   C252      1.0  0.13065  0.02152  0.74849  1.0000
  C   C253      1.0  0.14977  0.02457  0.72814  1.0000
  C   C254      1.0  0.10378  0.30878  0.87047  1.0000
  C   C255      1.0  0.04515  0.19460  0.88692  1.0000
  C   C256      1.0  0.24699  0.21667  0.64961  1.0000
  C   C257      1.0  0.28488  0.16225  0.81758  1.0000
  C   C258      1.0  0.24930  0.15183  0.80705  1.0000
  C   C259      1.0  0.21453  0.13603  0.81963  1.0000
  C   C260      1.0  0.21539  0.13133  0.84285  1.0000
  C   C261      1.0  0.25114  0.14221  0.85366  1.0000
  C   C262      1.0  0.28578  0.15693  0.84073  1.0000
  P   P10       1.0  0.25261  0.13603  0.88370  1.0000
  C   C263      1.0  0.21317  0.14015  0.89670  1.0000
  C   C264      1.0  0.24599  0.08826  0.89077  1.0000
  C   C265      1.0  0.23602  0.07364  0.91283  1.0000
  C   C266      1.0  0.23200  0.03729  0.91879  1.0000
  C   C267      1.0  0.10003  0.36693  0.87897  1.0000
  C   C268      1.0  0.36724  0.06785  0.95167  1.0000
  C   C269      1.0  0.25113  0.06561  0.87461  1.0000
  C   C270      1.0  0.22028  0.17547  0.90621  1.0000
  C   C271      1.0  0.18946  0.17866  0.91575  1.0000
  C   C272      1.0  0.15127  0.14654  0.91601  1.0000
  C   C273      1.0  0.14390  0.11112  0.90672  1.0000
  C   C274      1.0  0.17473  0.10786  0.89716  1.0000
  H   H209      1.0  0.31183  0.17503  0.80775  1.0000
  H   H210      1.0  0.24876  0.15654  0.78915  1.0000
  H   H211      1.0  0.18708  0.12804  0.81127  1.0000
  H   H212      1.0  0.18822  0.11966  0.85222  1.0000
  H   H213      1.0  0.31365  0.16503  0.84854  1.0000
  H   H214      1.0  0.23211  0.09080  0.92553  1.0000
  H   H215      1.0  0.36211  0.08886  0.96034  1.0000
  H   H216      1.0  0.09663  0.35307  0.82269  1.0000
  H   H217      1.0  0.24954  0.20074  0.90633  1.0000
  H   H218      1.0  0.19552  0.20625  0.92294  1.0000
  H   H219      1.0  0.12749  0.14911  0.92348  1.0000
  H   H220      1.0  0.11432  0.08615  0.90695  1.0000
  H   H221      1.0  0.16859  0.08027  0.88996  1.0000
  H   H222      1.0  0.30170  0.21903  0.87173  1.0000
  C   C275      1.0  0.06475  0.23674  0.79705  1.0000
  H   H223      1.0  0.04131  0.26165  0.77346  1.0000
  H   H224      1.0  0.22317  0.28129  0.92723  1.0000
  S   S47       1.0  0.42142  0.42581  0.95567  1.0000
  C   C276      1.0  0.10581  0.04510  0.68513  1.0000
  C   C277      1.0  0.13949  0.28489  0.93691  1.0000
  C   C278      1.0  0.14285  0.31098  0.91958  1.0000
  H   H225      1.0  0.10604  0.28354  0.87583  1.0000
  C   C279      1.0  0.34815  0.01785  0.92368  1.0000
  H   H226      1.0  0.03076  0.03530  0.71329  1.0000
  H   H227      1.0  0.05819  0.35647  0.93489  1.0000
  H   H228      1.0  0.10179  0.29547  0.83548  1.0000
  C   C280      1.0  0.05022  0.27991  0.94866  1.0000
  C   C281      1.0  0.17587  0.32654  0.90519  1.0000
  C   C282      1.0  0.10131  0.31539  0.84762  1.0000
  C   C283      1.0  0.09835  0.34781  0.84042  1.0000
  Fe  Fe23      1.0  0.27969  0.30519  0.96966  1.0000
  C   C284      1.0  0.10603  0.10280  0.82858  1.0000
  C   C285      1.0  0.09228  0.08619  0.80770  1.0000
  C   C286      1.0  0.08018  0.10483  0.79219  1.0000
  C   C287      1.0  0.08175  0.14009  0.79752  1.0000
  C   C288      1.0  0.09477  0.15670  0.81869  1.0000
  C   C289      1.0  0.10758  0.13803  0.83403  1.0000
  P   P11       1.0  0.09622  0.20219  0.82553  1.0000
  C   C290      1.0  0.08801  0.20260  0.85539  1.0000
  C   C291      1.0  0.14354  0.24261  0.81665  1.0000
  C   C292      1.0  0.16662  0.27408  0.83079  1.0000
  C   C293      1.0  0.20420  0.30341  0.82394  1.0000
  C   C294      1.0  0.21856  0.30222  0.80273  1.0000
  C   C295      1.0  0.19498  0.27226  0.78816  1.0000
  C   C296      1.0  0.15755  0.24278  0.79503  1.0000
  C   C297      1.0  0.05128  0.19478  0.86383  1.0000
  H   H229      1.0  0.38682  0.03117  0.88329  1.0000
  C   C298      1.0  0.07576  0.20305  0.90176  1.0000
  C   C299      1.0  0.11231  0.21073  0.89354  1.0000
  C   C300      1.0  0.11829  0.21009  0.87053  1.0000
  H   H230      1.0  0.24817  0.10032  0.96402  1.0000
  C   C301      1.0  0.34200  0.04557  0.93462  1.0000
  C   C302      1.0  0.09024  0.01531  0.64864  1.0000
  C   C303      1.0  0.01830  0.00565  0.74525  1.0000
  C   C304      1.0  0.10319  0.33453  0.88633  1.0000
  H   H231      1.0  0.01864  0.02965  0.75407  1.0000
  H   H232      1.0  0.11598  0.08854  0.84040  1.0000
  H   H233      1.0  0.09191  0.05936  0.80324  1.0000
  H   H234      1.0  0.07096  0.09262  0.77570  1.0000
  H   H235      1.0  0.07345  0.15461  0.78487  1.0000
  H   H236      1.0  0.11897  0.15043  0.85015  1.0000
  H   H237      1.0  0.15627  0.27617  0.84716  1.0000
  H   H238      1.0  0.22266  0.32662  0.83524  1.0000
  H   H239      1.0  0.24816  0.32415  0.79765  1.0000
  H   H240      1.0  0.20615  0.27134  0.77172  1.0000
  H   H241      1.0  0.13960  0.21998  0.78347  1.0000
  S   S48       1.0  0.35826  0.23451  0.97693  1.0000
  H   H242      1.0  0.13735  0.39566  0.65667  1.0000
  C   C305      1.0  0.16867  0.24834  0.65241  1.0000
  H   H243      1.0  0.13619  0.21725  0.90493  1.0000
  H   H244      1.0  0.14679  0.21576  0.86458  1.0000
  H   H245      1.0  0.09859  0.04590  0.70253  1.0000
  C   C306      1.0  0.24645  0.02890  0.88054  1.0000
  H   H246      1.0  0.09709  0.19030  0.69009  1.0000
  H   H247      1.0  0.09360  0.26271  0.79671  1.0000
  C   C307      1.0  0.15781  0.39537  0.93650  1.0000
  C   C308      1.0  0.11843  0.36877  0.93141  1.0000
  H   H248      1.0  0.28024  0.17326  0.96211  1.0000
  C   C309      1.0  0.09842  0.41005  0.95079  1.0000
  H   H249      1.0  0.23959  0.07746  0.66059  1.0000
  C   C310      1.0  0.99194  0.23352  0.91820  1.0000
  C   C311      1.0  0.35357  0.19679  0.92025  1.0000
  C   C312      1.0  0.16730  0.42899  0.94872  1.0000
  C   C313      1.0  0.15320  0.07356  0.65464  1.0000
  H   H250      1.0  0.23009  0.32763  0.89685  1.0000
  H   H251      1.0  0.18119  0.38998  0.93149  1.0000
  H   H252      1.0  0.02718  0.18866  0.85277  1.0000
  H   H253      1.0  0.17993  0.34767  0.89213  1.0000
  H   H254      1.0  0.07116  0.20363  0.91963  1.0000
  C   C314      1.0  0.29517  0.15934  0.96990  1.0000
  C   C315      1.0  0.40465  0.03460  0.94704  1.0000
  C   C316      1.0  0.07890  0.01612  0.67088  1.0000
  C   C317      1.0  0.37001  0.23470  0.91114  1.0000
  C   C318      1.0  0.05817  0.28653  0.92559  1.0000
  C   C319      1.0  0.20446  0.31547  0.90783  1.0000
  H   H255      1.0  0.07213  0.29825  0.96073  1.0000
  C   C320      1.0  0.39836  0.06219  0.95798  1.0000
  H   H256      1.0  0.11543  0.27355  0.94882  1.0000
  H   H257      1.0  0.06556  0.22566  0.67333  1.0000
  H   H258      1.0  0.09547  0.39873  0.85050  1.0000
  C   C321      1.0  0.27716  0.11803  0.97089  1.0000
  C   C322      1.0  0.27550  0.25509  0.65471  1.0000
  H   H259      1.0  0.22541  0.02676  0.93605  1.0000
  C   C323      1.0  0.29919  0.17414  0.89421  1.0000
  C   C324      1.0  0.31613  0.21233  0.88509  1.0000
  C   C325      1.0  0.08881  0.37653  0.93850  1.0000
  C   C326      1.0  0.01988  0.16963  0.80901  1.0000
  C   C327      1.0  0.46203  0.46016  0.97268  1.0000
  H   H260      1.0  0.39683  0.25820  0.91808  1.0000
  C   C328      1.0  0.02542  0.00883  0.72216  1.0000
  C   C329      1.0  0.46764  0.02131  0.91581  1.0000
  H   H261      1.0  0.30607  0.13779  0.91960  1.0000
  C   C330      1.0  0.05734  0.20337  0.80980  1.0000
  C   C331      1.0  0.35132  0.24245  0.89352  1.0000
  H   H262      1.0  0.36362  0.27200  0.88668  1.0000
  C   C332      1.0  0.23700  0.01482  0.90263  1.0000
  C   C333      1.0  0.09770  0.37353  0.85608  1.0000
  C   C334      1.0  0.31829  0.16658  0.91189  1.0000
  C   C335      1.0  0.37534  0.00268  0.85168  1.0000
  C   C336      1.0  0.14888  0.21976  0.66912  1.0000
  C   C337      1.0  0.37996  0.01263  0.92957  1.0000
  H   H263      1.0  0.01657  0.18788  0.89329  1.0000
  C   C338      1.0  0.11191  0.21187  0.67675  1.0000
  H   H264      1.0  0.25026  0.01144  0.86798  1.0000
  H   H265      1.0  0.19761  0.44896  0.95309  1.0000
  C   C339      1.0  0.00313  0.14104  0.65363  1.0000
  H   H266      1.0  0.03285  0.15799  0.64704  1.0000
  H   H267      1.0  0.01375  0.14319  0.81822  1.0000
  H   H268      1.0  0.07537  0.41532  0.95681  1.0000
  C   C340      1.0  0.03513  0.23630  0.78380  1.0000
  H   H269      1.0  0.02545  0.44888  0.97431  1.0000
  C   C341      1.0  0.09427  0.23198  0.66732  1.0000
  H   H270      1.0  0.46298  0.04557  0.91159  1.0000
  H   H271      1.0  0.31718  0.04932  0.93037  1.0000
  H   H272      1.0  0.48865  0.40241  0.94819  1.0000
  C   C342      1.0  0.01365  0.24998  0.95639  1.0000
  H   H273      1.0  0.29247  0.36442  0.67361  1.0000
  H   H274      1.0  0.00752  0.24540  0.97423  1.0000
  C   C343      1.0  0.99503  0.99427  0.66980  1.0000
  H   H275      1.0  0.18145  0.09660  0.64839  1.0000
  H   H276      1.0  0.19739  0.25406  0.64677  1.0000
  H   H277      1.0  0.32783  0.00018  0.91087  1.0000
  C   C344      1.0  0.99803  0.20259  0.78310  1.0000
  H   H278      1.0  0.37728  0.02758  0.84248  1.0000
  C   C345      1.0  0.11386  0.26042  0.65045  1.0000
  C   C346      1.0  0.38026  0.00440  0.87491  1.0000
  C   C347      1.0  0.28290  0.36167  0.65640  1.0000
  H   H279      1.0  0.41705  0.07835  0.97181  1.0000
  C   C348      1.0  0.00363  0.01856  0.65066  1.0000
  C   C349      1.0  0.24285  0.33976  0.65143  1.0000
  H   H280      1.0  0.00350  0.36193  0.64753  1.0000
  Fe  Fe24      1.0  0.26905  0.92491  0.00831  1.0000
  S   S49       1.0  0.31735  0.93964  0.03361  1.0000
  S   S50       1.0  0.23155  0.86257  0.99506  1.0000
  Fe  Fe25      1.0  0.35758  0.98705  0.00902  1.0000
  C   C350      1.0  0.21112  0.95963  0.12923  1.0000
  H   H281      1.0  0.21854  0.95217  0.09399  1.0000
  H   H282      1.0  0.33241  0.76045  0.13164  1.0000
  H   H283      1.0  0.41711  0.93000  0.04340  1.0000
  H   H284      1.0  0.03834  0.88370  0.14631  1.0000
  S   S51       1.0  0.18251  0.93295  0.23968  1.0000
  H   H285      1.0  0.22962  0.89896  0.16009  1.0000
  C   C351      1.0  0.01143  0.85630  0.14970  1.0000
  C   C352      1.0  0.09769  0.78191  0.98583  1.0000
  Fe  Fe26      1.0  0.13598  0.94759  0.24963  1.0000
  S   S52       1.0  0.07460  0.90444  0.26292  1.0000
  S   S53       1.0  0.19963  0.96689  0.17424  1.0000
  S   S54       1.0  0.31022  0.97019  0.98312  1.0000
  C   C353      1.0  0.03268  0.89612  0.22407  1.0000
  C   C354      1.0  0.03142  0.89070  0.24732  1.0000
  H   H286      1.0  0.09183  0.82750  0.00183  1.0000
  H   H287      1.0  0.06074  0.91038  0.21536  1.0000
  C   C355      1.0  0.22929  0.97796  0.14936  1.0000
  H   H288      1.0  0.02271  0.95032  0.28270  1.0000
  C   C356      1.0  0.32885  0.78479  0.12592  1.0000
  C   C357      1.0  0.36891  0.96432  0.08775  1.0000
  H   H289      1.0  0.39114  0.82574  0.12420  1.0000
  C   C358      1.0  0.47450  0.94312  0.98273  1.0000
  C   C359      1.0  0.40407  0.93947  0.05613  1.0000
  H   H290      1.0  0.35420  0.96968  0.16931  1.0000
  C   C360      1.0  0.16535  0.79647  0.98064  1.0000
  H   H291      1.0  0.36221  0.88090  0.06707  1.0000
  C   C361      1.0  0.26360  0.84039  0.06814  1.0000
  C   C362      1.0  0.15315  0.84443  0.99810  1.0000
  C   C363      1.0  0.17991  0.83305  0.99092  1.0000
  Fe  Fe27      1.0  0.30056  0.98294  0.04729  1.0000
  H   H292      1.0  0.06098  0.97298  0.17989  1.0000
  H   H293      1.0  0.35482  0.97451  0.09929  1.0000
  C   C364      1.0  0.41740  0.97946  0.05843  1.0000
  H   H294      1.0  0.26550  0.75111  0.12646  1.0000
  H   H295      1.0  0.20525  0.89604  0.06414  1.0000
  C   C365      1.0  0.28651  0.81089  0.11558  1.0000
  C   C366      1.0  0.23270  0.82849  0.05297  1.0000
  C   C367      1.0  0.25205  0.89212  0.08060  1.0000
  C   C368      1.0  0.22108  0.88007  0.06553  1.0000
  H   H296      1.0  0.16385  0.87248  0.00599  1.0000
  H   H297      1.0  0.38330  0.88144  0.11144  1.0000
  H   H298      1.0  0.03751  0.83762  0.17534  1.0000
  C   C369      1.0  0.27288  0.87178  0.08245  1.0000
  H   H299      1.0  0.41665  0.93114  0.99362  1.0000
  H   H300      1.0  0.24095  0.87228  0.12558  1.0000
  C   C370      1.0  0.01104  0.83029  0.16604  1.0000
  H   H301      1.0  0.36633  0.94389  0.13457  1.0000
  C   C371      1.0  0.21118  0.84804  0.05187  1.0000
  C   C372      1.0  0.32963  0.94856  0.15959  1.0000
  H   H302      1.0  0.28049  0.82545  0.06840  1.0000
  H   H303      1.0  0.25712  0.80650  0.11362  1.0000
  S   S55       1.0  0.24973  0.96464  0.02364  1.0000
  H   H304      1.0  0.26006  0.91757  0.09065  1.0000
  H   H305      1.0  0.18752  0.83896  0.03996  1.0000
  C   C373      1.0  0.44653  0.95369  0.98977  1.0000
  C   C374      1.0  0.11231  0.81885  0.99571  1.0000
  C   C375      1.0  0.29116  0.77951  0.12296  1.0000
  H   H306      1.0  0.46551  0.91243  0.98106  1.0000
  C   C376      1.0  0.23313  0.96665  0.10918  1.0000
  H   H307      1.0  0.22584  0.80467  0.04166  1.0000
  C   C377      1.0  0.25942  0.90850  0.15445  1.0000
  C   C378      1.0  0.29117  0.93592  0.16683  1.0000
  C   C379      1.0  0.37309  0.91183  0.06962  1.0000
  C   C380      1.0  0.33636  0.93417  0.13979  1.0000
  C   C381      1.0  0.30459  0.90773  0.12678  1.0000
  C   C382      1.0  0.26603  0.89399  0.13468  1.0000
  P   P12       1.0  0.31337  0.88809  0.10164  1.0000
  C   C383      1.0  0.35558  0.92410  0.08574  1.0000
  C   C384      1.0  0.31962  0.84764  0.11079  1.0000
  C   C385      1.0  0.35738  0.85300  0.11429  1.0000
  C   C386      1.0  0.36193  0.82156  0.12168  1.0000
  H   H308      1.0  0.28583  0.94752  0.18197  1.0000
  C   C387      1.0  0.99743  0.88157  0.21199  1.0000
  H   H309      1.0  0.33522  0.89039  0.98439  1.0000
  Fe  Fe28      1.0  0.22292  0.98195  0.26275  1.0000
  S   S56       1.0  0.26224  0.97301  0.28833  1.0000
  H   H310      1.0  0.17973  0.93953  0.12919  1.0000
  Fe  Fe29      1.0  0.19972  0.97943  0.21218  1.0000
  H   H311      1.0  0.11148  0.89353  0.30603  1.0000
  C   C388      1.0  0.04316  0.98117  0.28528  1.0000
  H   H312      1.0  0.99855  0.88496  0.19398  1.0000
  H   H313      1.0  0.09295  0.97227  0.28765  1.0000
  S   S57       1.0  0.04585  0.74968  0.98484  1.0000
  C   C389      1.0  0.99475  0.87210  0.25843  1.0000
  S   S58       1.0  0.15018  0.99056  0.22123  1.0000
  H   H314      1.0  0.99353  0.86775  0.27641  1.0000
  C   C390      1.0  0.45729  0.99326  0.99181  1.0000
  H   H315      1.0  0.12938  0.99129  0.16929  1.0000
  S   S59       1.0  0.17510  0.99307  0.27420  1.0000
  H   H316      1.0  0.00018  0.77268  0.08785  1.0000
  C   C391      1.0  0.27393  0.99203  0.10892  1.0000
  C   C392      1.0  0.39974  0.99185  0.07418  1.0000
  C   C393      1.0  0.12453  0.77114  0.97796  1.0000
  C   C394      1.0  0.08308  0.99354  0.28785  1.0000
  Fe  Fe30      1.0  0.02003  0.67624  0.55045  1.0000
  S   S60       1.0  0.03054  0.72427  0.52554  1.0000
  S   S61       1.0  0.03179  0.68683  0.58831  1.0000
  H   H317      1.0  0.38600  0.98181  0.52789  1.0000
  H   H318      1.0  0.40226  0.95612  0.59195  1.0000
  H   H319      1.0  0.10808  0.72719  0.56382  1.0000
  Fe  Fe31      1.0  0.06657  0.70489  0.50600  1.0000
  S   S62       1.0  0.12509  0.74397  0.48746  1.0000
  S   S63       1.0  0.05994  0.65949  0.53190  1.0000
  C   C395      1.0  0.01556  0.79733  0.55571  1.0000
  S   S64       1.0  0.24331  0.92918  0.49221  1.0000
  S   S65       1.0  0.32714  0.95619  0.44234  1.0000
  C   C396      1.0  0.25241  0.85667  0.36124  1.0000
  C   C397      1.0  0.00266  0.81120  0.59310  1.0000
  C   C398      1.0  0.28932  0.90572  0.38881  1.0000
  H   H320      1.0  0.09060  0.63802  0.47118  1.0000
  C   C399      1.0  0.06453  0.49482  0.54802  1.0000
  H   H321      1.0  0.33130  0.84700  0.55796  1.0000
  H   H322      1.0  0.29996  0.86260  0.62430  1.0000
  C   C400      1.0  0.11966  0.81818  0.62951  1.0000
  H   H323      1.0  0.07842  0.76095  0.45081  1.0000
  C   C401      1.0  0.15623  0.79589  0.48824  1.0000
  C   C402      1.0  0.19023  0.81379  0.47456  1.0000
  C   C403      1.0  0.21632  0.85466  0.47490  1.0000
  C   C404      1.0  0.20929  0.87813  0.48941  1.0000
  C   C405      1.0  0.17508  0.86036  0.50292  1.0000
  C   C406      1.0  0.14851  0.81956  0.50221  1.0000
  H   H324      1.0  0.19655  0.79586  0.46368  1.0000
  H   H325      1.0  0.24226  0.86786  0.46428  1.0000
  H   H326      1.0  0.16929  0.87817  0.51421  1.0000
  H   H327      1.0  0.12257  0.80628  0.51286  1.0000
  H   H328      1.0  0.47913  0.95160  0.52721  1.0000
  C   C407      1.0  0.47229  0.92525  0.53666  1.0000
  C   C408      1.0  0.16402  0.91351  0.32554  1.0000
  C   C409      1.0  0.09602  0.78366  0.43848  1.0000
  C   C410      1.0  0.03857  0.52982  0.48413  1.0000
  C   C411      1.0  0.21997  0.88358  0.38365  1.0000
  C   C412      1.0  0.03616  0.71529  0.63092  1.0000
  H   H329      1.0  0.30660  0.95549  0.32031  1.0000
  H   H330      1.0  0.41938  0.90868  0.50218  1.0000
  C   C413      1.0  0.09855  0.86802  0.33941  1.0000
  C   C414      1.0  0.38929  0.90262  0.50297  1.0000
  Fe  Fe32      1.0  0.00640  0.61597  0.51302  1.0000
  H   H331      1.0  0.19720  0.96695  0.37784  1.0000
  H   H332      1.0  0.48624  0.94707  0.46276  1.0000
  H   H333      1.0  0.13869  0.76496  0.43524  1.0000
  H   H334      1.0  0.06055  0.56061  0.48419  1.0000
  H   H335      1.0  0.44867  0.83026  0.56973  1.0000
  C   C415      1.0  0.42840  0.97561  0.54820  1.0000
  H   H336      1.0  0.38009  0.88924  0.46792  1.0000
  C   C416      1.0  0.21858  0.85810  0.36700  1.0000
  H   H337      1.0  0.28285  0.88515  0.50344  1.0000
  C   C417      1.0  0.25560  0.90740  0.39456  1.0000
  C   C418      1.0  0.17963  0.91148  0.34622  1.0000
  H   H338      1.0  0.28692  0.82137  0.59088  1.0000
  C   C419      1.0  0.14331  0.84386  0.40768  1.0000
  C   C420      1.0  0.42811  0.87014  0.56036  1.0000
  C   C421      1.0  0.28779  0.88050  0.37213  1.0000
  H   H339      1.0  0.00486  0.78441  0.53949  1.0000
  C   C422      1.0  0.18917  0.92892  0.40644  1.0000
  C   C423      1.0  0.47730  0.99154  0.47781  1.0000
  H   H340      1.0  0.03661  0.54899  0.41982  1.0000
  C   C424      1.0  0.15352  0.81561  0.41420  1.0000
  H   H341      1.0  0.12540  0.69794  0.44742  1.0000
  C   C425      1.0  0.19765  0.96445  0.39586  1.0000
  H   H342      1.0  0.05972  0.81036  0.43944  1.0000
  C   C426      1.0  0.13428  0.91405  0.55828  1.0000
  H   H343      1.0  0.35785  0.92982  0.62472  1.0000
  C   C427      1.0  0.20165  0.96060  0.44250  1.0000
  H   H344      1.0  0.14579  0.96014  0.53428  1.0000
  H   H345      1.0  0.06714  0.85108  0.33662  1.0000
  C   C428      1.0  0.10932  0.84179  0.41693  1.0000
  H   H346      1.0  0.21119  0.92842  0.34848  1.0000
  H   H347      1.0  0.05236  0.84035  0.61451  1.0000
  H   H348      1.0  0.31149  0.87669  0.46839  1.0000
  H   H349      1.0  0.31700  0.92495  0.39681  1.0000
  C   C429      1.0  0.04160  0.60911  0.44882  1.0000
  C   C430      1.0  0.04278  0.82904  0.59791  1.0000
  H   H350      1.0  0.48287  0.51891  0.45492  1.0000
  C   C431      1.0  0.05571  0.81519  0.56043  1.0000
  C   C432      1.0  0.06962  0.83088  0.58165  1.0000
  H   H351      1.0  0.25132  0.83753  0.34808  1.0000
  P   P13       1.0  0.12144  0.85276  0.58786  1.0000
  C   C433      1.0  0.12627  0.85242  0.61801  1.0000
  C   C434      1.0  0.13911  0.82305  0.57488  1.0000
  C   C435      1.0  0.17488  0.84040  0.56281  1.0000
  C   C436      1.0  0.18634  0.81702  0.55120  1.0000
  C   C437      1.0  0.16224  0.77625  0.55147  1.0000
  C   C438      1.0  0.12701  0.75879  0.56368  1.0000
  C   C439      1.0  0.11542  0.78204  0.57524  1.0000
  C   C440      1.0  0.01691  0.70763  0.61013  1.0000
  H   H352      1.0  0.09420  0.84684  0.37311  1.0000
  C   C441      1.0  0.15689  0.95148  0.54858  1.0000
  C   C442      1.0  0.08562  0.81160  0.43212  1.0000
  H   H353      1.0  0.05987  0.70903  0.63316  1.0000
  C   C443      1.0  0.14884  0.90221  0.57646  1.0000
  C   C444      1.0  0.19165  0.92736  0.42988  1.0000
  H   H354      1.0  0.18649  0.90071  0.43849  1.0000
  H   H355      1.0  0.19144  0.83976  0.35825  1.0000
  H   H356      1.0  0.10587  0.89429  0.55124  1.0000
  C   C445      1.0  0.18642  0.92834  0.58469  1.0000
  C   C446      1.0  0.20890  0.96579  0.57499  1.0000
  S   S66       1.0  0.43543  0.98072  0.46056  1.0000
  C   C447      1.0  0.45528  0.85687  0.56055  1.0000
  H   H357      1.0  0.07575  0.81600  0.54763  1.0000
  H   H358      1.0  0.06087  0.51619  0.55740  1.0000
  H   H359      1.0  0.19348  0.87188  0.56161  1.0000
  H   H360      1.0  0.21311  0.83059  0.54118  1.0000
  H   H361      1.0  0.17031  0.75819  0.54178  1.0000
  H   H362      1.0  0.07606  0.51285  0.46673  1.0000
  H   H363      1.0  0.08735  0.76798  0.58397  1.0000
  H   H364      1.0  0.13613  0.91140  0.62211  1.0000
  H   H365      1.0  0.31418  0.87992  0.36743  1.0000
  C   C448      1.0  0.00156  0.51732  0.49393  1.0000
  C   C449      1.0  0.36700  0.89146  0.48342  1.0000
  C   C450      1.0  0.19416  0.97733  0.55691  1.0000
  H   H366      1.0  0.18030  0.81721  0.40816  1.0000
  C   C451      1.0  0.08451  0.50574  0.52747  1.0000
  C   C452      1.0  0.12994  0.78574  0.42954  1.0000
  H   H367      1.0  0.11294  0.79188  0.62060  1.0000
  H   H368      1.0  0.19869  0.91936  0.59826  1.0000
  Fe  Fe33      1.0  0.29927  0.96878  0.47167  1.0000
  H   H369      1.0  0.32188  0.90581  0.53772  1.0000
  C   C453      1.0  0.11408  0.86587  0.36016  1.0000
  C   C454      1.0  0.29632  0.97269  0.32896  1.0000
  H   H370      1.0  0.25782  0.92798  0.40710  1.0000
  H   H371      1.0  0.10179  0.86419  0.41290  1.0000
  C   C455      1.0  0.09756  0.67382  0.44198  1.0000
  H   H372      1.0  0.40071  0.85339  0.56950  1.0000
  H   H373      1.0  0.18346  0.93182  0.31208  1.0000
  C   C456      1.0  0.15481  0.88787  0.36379  1.0000
  H   H374      1.0  0.02600  0.58369  0.45978  1.0000
  P   P14       1.0  0.17616  0.88573  0.39030  1.0000
  C   C457      1.0  0.04743  0.50245  0.47433  1.0000
  H   H375      1.0  0.23810  0.98556  0.58116  1.0000
  S   S67       1.0  0.01508  0.66056  0.48605  1.0000
  C   C458      1.0  0.35204  0.91192  0.61006  1.0000
  C   C459      1.0  0.31946  0.87403  0.60985  1.0000
  C   C460      1.0  0.31213  0.85080  0.59102  1.0000
  C   C461      1.0  0.33726  0.86549  0.57237  1.0000
  C   C462      1.0  0.36969  0.90380  0.57229  1.0000
  C   C463      1.0  0.37718  0.92675  0.59140  1.0000
  P   P15       1.0  0.40205  0.92253  0.54811  1.0000
  C   C464      1.0  0.43654  0.90462  0.54847  1.0000
  C   C465      1.0  0.37311  0.90706  0.52293  1.0000
  C   C466      1.0  0.33464  0.90105  0.52286  1.0000
  C   C467      1.0  0.31240  0.88960  0.50334  1.0000
  C   C468      1.0  0.32852  0.88479  0.48362  1.0000
  C   C469      1.0  0.04386  0.64629  0.41559  1.0000
  C   C470      1.0  0.08045  0.67704  0.42211  1.0000
  H   H376      1.0  0.09615  0.53541  0.52094  1.0000
  C   C471      1.0  0.07808  0.63990  0.45535  1.0000
  H   H377      1.0  0.01886  0.58561  0.37958  1.0000
  H   H378      1.0  0.20408  0.95926  0.46054  1.0000
  H   H379      1.0  0.09515  0.70371  0.41202  1.0000
  C   C472      1.0  0.12348  0.89189  0.32213  1.0000
  H   H380      1.0  0.47626  0.98054  0.56866  1.0000
  C   C473      1.0  0.02454  0.61178  0.42874  1.0000
  H   H381      1.0  0.32437  0.97233  0.36016  1.0000
  C   C474      1.0  0.00809  0.52300  0.42220  1.0000
  C   C475      1.0  0.13283  0.88526  0.63041  1.0000
  C   C476      1.0  0.27351  0.98561  0.31725  1.0000
  H   H382      1.0  0.03045  0.65003  0.40065  1.0000
  C   C477      1.0  0.30627  0.98200  0.35171  1.0000
  C   C478      1.0  0.49102  0.87793  0.54891  1.0000
  H   H383      1.0  0.07017  0.99280  0.63746  1.0000
  H   H384      1.0  0.00182  0.59008  0.34024  1.0000
  S   S68       1.0  0.05670  0.79482  0.71965  1.0000
  C   C479      1.0  0.31746  0.90107  0.92143  1.0000
  H   H385      1.0  0.01657  0.91904  0.71411  1.0000
  Fe  Fe34      1.0  0.06098  0.85310  0.72620  1.0000
  S   S69       1.0  0.11260  0.91062  0.71372  1.0000
  C   C480      1.0  0.01880  0.69269  0.84336  1.0000
  Fe  Fe35      1.0  0.01181  0.69338  0.96466  1.0000
  S   S70       1.0  0.03444  0.67186  0.93698  1.0000
  H   H386      1.0  0.31099  0.90407  0.90420  1.0000
  H   H387      1.0  0.14947  0.81006  0.81898  1.0000
  C   C481      1.0  0.10577  0.82730  0.82303  1.0000
  C   C482      1.0  0.99322  0.73747  0.64669  1.0000
  C   C483      1.0  0.09684  0.70869  0.89294  1.0000
  H   H388      1.0  0.27590  0.83837  0.96601  1.0000
  H   H389      1.0  0.07931  0.74751  0.87815  1.0000
  H   H390      1.0  0.16256  0.81074  0.85950  1.0000
  C   C484      1.0  0.13411  0.81847  0.83078  1.0000
  C   C485      1.0  0.14471  0.73531  0.92254  1.0000
  S   S71       1.0  0.03506  0.83568  0.76090  1.0000
  H   H391      1.0  0.27257  0.94514  0.93202  1.0000
  H   H392      1.0  0.00965  0.77432  0.94848  1.0000
  C   C486      1.0  0.01821  0.93334  0.66960  1.0000
  C   C487      1.0  0.20454  0.88587  0.89411  1.0000
  H   H393      1.0  0.05679  0.76619  0.92519  1.0000
  H   H394      1.0  0.26388  0.84552  0.92598  1.0000
  C   C488      1.0  0.11901  0.95315  0.72705  1.0000
  H   H395      1.0  0.21794  0.90409  0.95804  1.0000
  H   H396      1.0  0.20137  0.88128  0.87626  1.0000
  H   H397      1.0  0.08080  0.92183  0.75490  1.0000
  C   C489      1.0  0.12722  0.84996  0.66508  1.0000
  H   H398      1.0  0.12682  0.84883  0.68325  1.0000
  C   C490      1.0  0.36768  0.93768  0.85201  1.0000
  C   C491      1.0  0.29719  0.86374  0.95633  1.0000
  H   H399      1.0  0.41821  0.92295  0.92767  1.0000
  P   P16       1.0  0.38598  0.97466  0.91674  1.0000
  S   S72       1.0  0.03681  0.73842  0.77928  1.0000
  C   C492      1.0  0.03496  0.83588  0.94102  1.0000
  H   H400      1.0  0.05990  0.87600  0.66253  1.0000
  C   C493      1.0  0.33070  0.89300  0.96669  1.0000
  C   C494      1.0  0.02893  0.70080  0.82034  1.0000
  C   C495      1.0  0.29049  0.86781  0.93374  1.0000
  H   H401      1.0  0.26423  0.93376  0.89093  1.0000
  C   C496      1.0  0.02465  0.72981  0.80853  1.0000
  C   C497      1.0  0.02463  0.73031  0.64900  1.0000
  H   H402      1.0  0.11408  0.79021  0.66171  1.0000
  C   C498      1.0  0.12027  0.82813  0.86916  1.0000
  H   H403      1.0  0.03938  0.73537  0.66491  1.0000
  H   H404      1.0  0.16192  0.73129  0.93540  1.0000
  C   C499      1.0  0.09821  0.74474  0.89038  1.0000
  C   C500      1.0  0.06483  0.86842  0.92962  1.0000
  C   C501      1.0  0.02500  0.97778  0.71059  1.0000
  C   C502      1.0  0.17344  0.86230  0.90891  1.0000
  C   C503      1.0  0.03814  0.88525  0.66168  1.0000
  H   H405      1.0  0.06708  0.89687  0.93107  1.0000
  C   C504      1.0  0.35154  0.93034  0.93166  1.0000
  H   H406      1.0  0.48621  0.93548  0.93058  1.0000
  C   C505      1.0  0.01731  0.94356  0.72248  1.0000
  C   C506      1.0  0.37758  0.97216  0.88696  1.0000
  P   P17       1.0  0.02981  0.98053  0.68044  1.0000
  H   H407      1.0  0.38308  0.94913  0.96283  1.0000
  H   H408      1.0  0.36358  0.91212  0.84309  1.0000
  C   C507      1.0  0.24495  0.92242  0.92540  1.0000
  C   C508      1.0  0.14398  0.99041  0.71745  1.0000
  H   H409      1.0  0.09122  0.98178  0.77384  1.0000
  C   C509      1.0  0.37259  0.93933  0.87523  1.0000
  C   C510      1.0  0.17850  0.86936  0.93201  1.0000
  H   H410      1.0  0.15502  0.85144  0.94382  1.0000
  H   H411      1.0  0.16573  0.79527  0.93056  1.0000
  C   C511      1.0  0.09220  0.86432  0.91662  1.0000
  S   S73       1.0  0.00371  0.83741  0.71004  1.0000
  C   C512      1.0  0.09997  0.95029  0.74735  1.0000
  H   H412      1.0  0.11810  0.67561  0.91139  1.0000
  C   C513      1.0  0.03228  0.79927  0.93925  1.0000
  H   H413      1.0  0.11556  0.88987  0.90809  1.0000
  C   C514      1.0  0.09167  0.83681  0.86120  1.0000
  Fe  Fe36      1.0  0.02497  0.77554  0.75340  1.0000
  H   H414      1.0  0.00872  0.77419  0.81161  1.0000
  C   C515      1.0  0.35773  0.92622  0.95443  1.0000
  C   C516      1.0  0.14655  0.77161  0.91982  1.0000
  H   H415      1.0  0.09911  0.82554  0.80530  1.0000
  C   C517      1.0  0.14142  0.81895  0.85372  1.0000
  C   C518      1.0  0.01027  0.97131  0.75690  1.0000
  C   C519      1.0  0.24021  0.91581  0.90237  1.0000
  H   H416      1.0  0.07605  0.94118  0.67624  1.0000
  C   C520      1.0  0.12349  0.77669  0.90357  1.0000
  H   H417      1.0  0.11377  0.74279  0.97042  1.0000
  P   P18       1.0  0.12674  0.82379  0.89888  1.0000
  C   C521      1.0  0.12011  0.70395  0.90899  1.0000
  C   C522      1.0  0.21411  0.89922  0.94016  1.0000
  H   H418      1.0  0.07679  0.68408  0.88288  1.0000
  H   H419      1.0  0.07354  0.84219  0.87260  1.0000
  C   C523      1.0  0.05938  0.79489  0.92613  1.0000
  C   C524      1.0  0.10599  0.98433  0.75808  1.0000
  C   C525      1.0  0.04704  0.92206  0.66955  1.0000
  H   H420      1.0  0.13845  0.90927  0.66343  1.0000
  C   C526      1.0  0.00029  0.85914  0.65423  1.0000
  C   C527      1.0  0.08479  0.83673  0.83822  1.0000
  C   C528      1.0  0.01123  0.75133  0.82032  1.0000
  H   H421      1.0  0.06194  0.84226  0.83217  1.0000
  C   C529      1.0  0.08974  0.82756  0.91485  1.0000
  H   H422      1.0  0.03953  0.68403  0.81151  1.0000
  C   C530      1.0  0.48087  0.95928  0.92616  1.0000
  H   H423      1.0  0.00437  0.96860  0.77474  1.0000
  Fe  Fe37      1.0  0.99791  0.77813  0.70461  1.0000
  H   H424      1.0  0.02153  0.66979  0.85198  1.0000
  H   H425      1.0  0.01453  0.88466  0.83867  1.0000
  C   C531      1.0  0.12015  0.81703  0.65293  1.0000
  C   C532      1.0  0.00981  0.94034  0.74552  1.0000
  H   H426      1.0  0.04113  0.50995  0.95290  1.0000
  C   C533      1.0  0.44237  0.95245  0.92476  1.0000
  H   H427      1.0  0.01404  0.83894  0.95141  1.0000
  H   H428      1.0  0.18572  0.78730  0.97505  1.0000
  C   C534      1.0  0.13380  0.88413  0.65382  1.0000
  H   H429      1.0  0.37281  0.91512  0.88404  1.0000
  H   H430      1.0  0.36527  0.96804  0.82223  1.0000
  C   C535      1.0  0.99701  0.51866  0.96913  1.0000
  C   C536      1.0  0.43550  0.98354  0.91978  1.0000
  S   S74       1.0  0.00978  0.56274  0.95295  1.0000
  C   C537      1.0  0.36877  0.96922  0.84026  1.0000
  H   H431      1.0  0.15894  0.99286  0.70179  1.0000
  C   C538      1.0  0.01784  0.49848  0.96537  1.0000
  H   H432      1.0  0.48341  0.50602  0.94736  1.0000
  H   H433      1.0  0.00357  0.91366  0.75453  1.0000
  H   H434      1.0  0.00139  0.85241  0.80185  1.0000
  C   C539      1.0  0.00467  0.71388  0.85502  1.0000
  H   H435      1.0  0.23359  0.98656  0.90730  1.0000
  C   C540      1.0  0.00162  0.74366  0.84335  1.0000
  C   C541      1.0  0.48828  0.49813  0.96399  1.0000
  H   H436      1.0  0.99310  0.83000  0.64905  1.0000
  C   C542      1.0  0.99149  0.85438  0.83719  1.0000
  H   H437      1.0  0.99155  0.76083  0.85218  1.0000
  C   C543      1.0  0.90198  0.18338  0.20157  1.0000
  C   C544      1.0  0.88838  0.36836  0.23552  1.0000
  H   H438      1.0  0.63685  0.99746  0.04530  1.0000
  C   C545      1.0  0.92619  0.22416  0.20055  1.0000
  C   C546      1.0  0.96660  0.23204  0.12590  1.0000
  H   H439      1.0  0.96213  0.20428  0.15822  1.0000
  C   C547      1.0  0.93722  0.03346  0.28470  1.0000
  H   H440      1.0  0.95296  0.23688  0.19062  1.0000
  S   S75       1.0  0.93895  0.29639  0.02978  1.0000
  C   C548      1.0  0.50161  0.47895  0.00687  1.0000
  H   H441      1.0  0.84155  0.33053  0.21360  1.0000
  C   C549      1.0  0.98959  0.26401  0.11131  1.0000
  P   P19       1.0  0.94975  0.30069  0.21253  1.0000
  Fe  Fe38      1.0  0.95194  0.14272  0.23938  1.0000
  S   S76       1.0  0.88709  0.09899  0.24423  1.0000
  C   C550      1.0  0.88730  0.03044  0.23239  1.0000
  C   C551      1.0  0.86539  0.04892  0.23710  1.0000
  C   C552      1.0  0.82433  0.02709  0.23621  1.0000
  H   H442      1.0  0.91907  0.04721  0.23293  1.0000
  H   H443      1.0  0.80715  0.04101  0.23979  1.0000
  H   H444      1.0  0.96596  0.21501  0.31025  1.0000
  H   H445      1.0  0.93477  0.45677  0.01001  1.0000
  C   C553      1.0  0.98240  0.30184  0.25405  1.0000
  C   C554      1.0  0.66374  0.02456  0.04134  1.0000
  C   C555      1.0  0.96279  0.17277  0.03486  1.0000
  H   H446      1.0  0.50563  0.05256  0.98838  1.0000
  C   C556      1.0  0.66193  0.05438  0.02931  1.0000
  H   H447      1.0  0.81332  0.02857  0.29396  1.0000
  C   C557      1.0  0.98938  0.30808  0.23086  1.0000
  H   H448      1.0  0.87631  0.24904  0.23749  1.0000
  H   H449      1.0  0.67371  0.46375  0.99971  1.0000
  H   H450      1.0  0.85024  0.13480  0.21644  1.0000
  H   H451      1.0  0.83364  0.17703  0.23902  1.0000
  S   S77       1.0  0.92223  0.20926  0.98718  1.0000
  H   H452      1.0  0.95396  0.29426  0.26108  1.0000
  H   H453      1.0  0.91842  0.27000  0.16779  1.0000
  C   C558      1.0  0.79383  0.01281  0.07194  1.0000
  C   C559      1.0  0.92550  0.37839  0.24381  1.0000
  C   C560      1.0  0.85910  0.19032  0.22797  1.0000
  H   H454      1.0  0.81074  0.01316  0.05754  1.0000
  C   C561      1.0  0.86839  0.16648  0.21523  1.0000
  C   C562      1.0  0.84320  0.07276  0.02329  1.0000
  C   C563      1.0  0.94496  0.29814  0.16575  1.0000
  Fe  Fe39      1.0  0.95835  0.26930  0.00353  1.0000
  H   H455      1.0  0.63377  0.05036  0.02392  1.0000
  S   S78       1.0  0.97573  0.20806  0.24224  1.0000
  S   S79       1.0  0.96932  0.26688  0.08508  1.0000
  H   H456      1.0  0.93638  0.16392  0.02516  1.0000
  C   C564      1.0  0.96656  0.02769  0.29440  1.0000
  C   C565      1.0  0.98013  0.22923  0.14738  1.0000
  C   C566      1.0  0.66673  0.48304  0.00893  1.0000
  H   H457      1.0  0.90993  0.16480  0.19234  1.0000
  C   C567      1.0  0.85278  0.17050  0.08351  1.0000
  C   C568      1.0  0.87029  0.19834  0.06621  1.0000
  C   C569      1.0  0.86144  0.18706  0.04400  1.0000
  C   C570      1.0  0.83467  0.14807  0.03903  1.0000
  C   C571      1.0  0.81672  0.11979  0.05625  1.0000
  C   C572      1.0  0.82601  0.13135  0.07860  1.0000
  P   P20       1.0  0.78243  0.06937  0.04926  1.0000
  C   C573      1.0  0.73521  0.06401  0.04203  1.0000
  C   C574      1.0  0.80234  0.05718  0.02542  1.0000
  C   C575      1.0  0.77737  0.03155  0.00913  1.0000
  H   H458      1.0  0.94141  0.29652  0.12969  1.0000
  H   H459      1.0  0.74094  0.05323  0.09223  1.0000
  C   C576      1.0  0.52471  0.01129  0.97993  1.0000
  C   C577      1.0  0.96650  0.31927  0.18440  1.0000
  C   C578      1.0  0.70020  0.02921  0.04756  1.0000
  H   H460      1.0  0.51253  0.40561  0.98682  1.0000
  H   H461      1.0  0.97337  0.36670  0.24323  1.0000
  C   C579      1.0  0.87010  0.33798  0.22025  1.0000
  C   C580      1.0  0.73306  0.09362  0.02974  1.0000
  C   C581      1.0  0.77665  0.03678  0.07253  1.0000
  H   H462      1.0  0.85015  0.09989  0.28772  1.0000
  H   H463      1.0  0.58239  0.44827  0.99548  1.0000
  C   C582      1.0  0.97364  0.01916  0.21680  1.0000
  C   C583      1.0  0.92568  0.32680  0.22202  1.0000
  C   C584      1.0  0.75455  0.03509  0.09147  1.0000
  H   H464      1.0  0.86011  0.17947  0.10072  1.0000
  H   H465      1.0  0.89078  0.22872  0.06998  1.0000
  H   H466      1.0  0.87536  0.20866  0.03060  1.0000
  H   H467      1.0  0.82808  0.13996  0.02169  1.0000
  H   H468      1.0  0.81302  0.11050  0.09231  1.0000
  H   H469      1.0  0.87395  0.38436  0.24077  1.0000
  C   C585      1.0  0.69658  0.08879  0.02347  1.0000
  H   H470      1.0  0.93794  0.20935  0.12058  1.0000
  H   H471      1.0  0.67555  0.46277  0.04097  1.0000
  C   C586      1.0  0.92982  0.06234  0.29278  1.0000
  C   C587      1.0  0.88876  0.31741  0.21341  1.0000
  H   H472      1.0  0.87452  0.29428  0.20134  1.0000
  H   H473      1.0  0.92072  0.01639  0.27054  1.0000
  H   H474      1.0  0.93576  0.17416  0.06598  1.0000
  H   H475      1.0  0.75933  0.12011  0.02437  1.0000
  H   H476      1.0  0.69532  0.11134  0.01340  1.0000
  H   H477      1.0  0.70090  0.00531  0.05633  1.0000
  S   S80       1.0  0.96590  0.40382  0.00985  1.0000
  Fe  Fe40      1.0  0.98345  0.35562  0.01440  1.0000
  C   C588      1.0  0.83379  0.03760  0.98889  1.0000
  C   C589      1.0  0.85883  0.06315  0.00502  1.0000
  C   C590      1.0  0.88327  0.23115  0.22695  1.0000
  C   C591      1.0  0.85227  0.08755  0.30369  1.0000
  H   H478      1.0  0.86302  0.09251  0.03569  1.0000
  C   C592      1.0  0.91668  0.24836  0.21292  1.0000
  H   H479      1.0  0.89038  0.07581  0.00329  1.0000
  C   C593      1.0  0.95810  0.46826  0.99757  1.0000
  C   C594      1.0  0.79315  0.02179  0.99098  1.0000
  C   C595      1.0  0.49668  0.02185  0.98689  1.0000
  S   S81       1.0  0.66088  0.99952  0.98385  1.0000
  C   C596      1.0  0.95758  0.31326  0.14408  1.0000
  H   H480      1.0  0.90860  0.06805  0.28443  1.0000
  H   H481      1.0  0.73325  0.00930  0.12423  1.0000
  C   C597      1.0  0.97891  0.44808  0.99380  1.0000
  H   H482      1.0  0.93990  0.40224  0.25544  1.0000
  H   H483      1.0  0.74575  0.01903  0.01030  1.0000
  C   C598      1.0  0.84673  0.19877  0.98514  1.0000
  S   S82       1.0  0.98559  0.14901  0.20781  1.0000
  C   C599      1.0  0.66746  0.48212  0.03235  1.0000
  C   C600      1.0  0.80604  0.17628  0.98110  1.0000
  C   C601      1.0  0.94428  0.35791  0.23697  1.0000
  H   H484      1.0  0.85938  0.22884  0.99044  1.0000
  C   C602      1.0  0.96240  0.17846  0.05785  1.0000
  H   H485      1.0  0.78764  0.18930  0.98340  1.0000
  C   C603      1.0  0.83144  0.04688  0.30733  1.0000
  C   C604      1.0  0.75008  0.01020  0.10960  1.0000
  H   H486      1.0  0.50639  0.47108  0.02353  1.0000
  H   H487      1.0  0.98082  0.04519  0.20684  1.0000
  C   C605      1.0  0.87083  0.18230  0.98232  1.0000
  C   C606      1.0  0.97948  0.02211  0.23993  1.0000
  Fe  Fe41      1.0  0.98833  0.29962  0.05089  1.0000
  C   C607      1.0  0.57318  0.44621  0.97826  1.0000
  H   H488      1.0  0.77372  0.00208  0.97845  1.0000
  H   H489      1.0  0.53434  0.47040  0.51556  1.0000
  S   S83       1.0  0.89416  0.23780  0.48732  1.0000
  C   C608      1.0  0.65037  0.06285  0.45265  1.0000
  H   H490      1.0  0.98279  0.04696  0.62775  1.0000
  C   C609      1.0  0.74182  0.13423  0.39879  1.0000
  C   C610      1.0  0.86339  0.03973  0.59611  1.0000
  H   H491      1.0  0.76587  0.47458  0.49997  1.0000
  C   C611      1.0  0.52817  0.00301  0.39306  1.0000
  H   H492      1.0  0.79699  0.02087  0.37102  1.0000
  Fe  Fe42      1.0  0.71488  0.01979  0.50558  1.0000
  S   S84       1.0  0.76490  0.05593  0.48063  1.0000
  S   S85       1.0  0.69493  0.03910  0.53570  1.0000
  C   C612      1.0  0.85907  0.18700  0.48521  1.0000
  C   C613      1.0  0.85975  0.16422  0.46764  1.0000
  C   C614      1.0  0.83075  0.12418  0.46651  1.0000
  C   C615      1.0  0.80096  0.10638  0.48298  1.0000
  C   C616      1.0  0.80047  0.12909  0.50064  1.0000
  C   C617      1.0  0.82925  0.16918  0.50167  1.0000
  H   H493      1.0  0.88244  0.17754  0.45486  1.0000
  H   H494      1.0  0.83145  0.10692  0.45280  1.0000
  H   H495      1.0  0.77793  0.11582  0.51349  1.0000
  H   H496      1.0  0.82844  0.18651  0.51531  1.0000
  H   H497      1.0  0.59809  0.06798  0.44770  1.0000
  H   H498      1.0  0.69577  0.45496  0.49616  1.0000
  C   C618      1.0  0.70928  0.11006  0.41241  1.0000
  C   C619      1.0  0.49853  0.37559  0.43620  1.0000
  S   S86       1.0  0.97281  0.27468  0.38353  1.0000
  C   C620      1.0  0.84721  0.10045  0.60305  1.0000
  C   C621      1.0  0.68569  0.09230  0.48686  1.0000
  C   C622      1.0  0.68249  0.07320  0.46680  1.0000
  P   P21       1.0  0.64679  0.03744  0.42693  1.0000
  H   H499      1.0  0.70157  0.12314  0.42590  1.0000
  C   C623      1.0  0.97121  0.36401  0.52182  1.0000
  H   H500      1.0  0.96232  0.30055  0.56400  1.0000
  C   C624      1.0  0.98287  0.44938  0.48413  1.0000
  H   H501      1.0  0.89956  0.11563  0.35343  1.0000
  C   C625      1.0  0.62529  0.09226  0.47877  1.0000
  H   H502      1.0  0.86921  0.01589  0.59353  1.0000
  C   C626      1.0  0.87238  0.09543  0.61775  1.0000
  H   H503      1.0  0.53525  0.05066  0.51953  1.0000
  C   C627      1.0  0.98604  0.04889  0.31347  1.0000
  H   H504      1.0  0.97218  0.38250  0.58192  1.0000
  C   C628      1.0  0.98539  0.23323  0.32323  1.0000
  C   C629      1.0  0.56461  0.40335  0.42112  1.0000
  S   S87       1.0  0.98156  0.25253  0.44622  1.0000
  C   C630      1.0  0.91688  0.29124  0.54085  1.0000
  C   C631      1.0  0.82992  0.07500  0.58522  1.0000
  H   H505      1.0  0.51874  0.30366  0.42219  1.0000
  C   C632      1.0  0.65676  0.10126  0.49303  1.0000
  C   C633      1.0  0.52489  0.02820  0.50701  1.0000
  H   H506      1.0  0.91048  0.49272  0.42798  1.0000
  H   H507      1.0  0.90704  0.42822  0.43066  1.0000
  C   C634      1.0  0.58294  0.42736  0.48286  1.0000
  H   H508      1.0  0.96087  0.37580  0.62280  1.0000
  C   C635      1.0  0.63141  0.41276  0.46762  1.0000
  C   C636      1.0  0.59911  0.03254  0.39075  1.0000
  H   H509      1.0  0.59263  0.42883  0.41667  1.0000
  H   H510      1.0  0.89947  0.06029  0.62525  1.0000
  C   C637      1.0  0.75267  0.11820  0.38133  1.0000
  C   C638      1.0  0.83475  0.03056  0.32777  1.0000
  C   C639      1.0  0.95450  0.31270  0.54987  1.0000
  H   H511      1.0  0.96093  0.41867  0.48399  1.0000
  H   H512      1.0  0.77812  0.13704  0.37095  1.0000
  H   H513      1.0  0.71043  0.09966  0.49773  1.0000
  H   H514      1.0  0.86400  0.04379  0.35985  1.0000
  H   H515      1.0  0.93832  0.22898  0.34420  1.0000
  H   H516      1.0  0.61187  0.35134  0.46354  1.0000
  H   H517      1.0  0.60271  0.09899  0.48364  1.0000
  H   H518      1.0  0.95511  0.23301  0.58228  1.0000
  C   C640      1.0  0.56471  0.00226  0.42553  1.0000
  C   C641      1.0  0.62140  0.44034  0.47512  1.0000
  C   C642      1.0  0.97388  0.47679  0.49377  1.0000
  C   C643      1.0  0.69108  0.00143  0.43711  1.0000
  C   C644      1.0  0.55858  0.36555  0.41806  1.0000
  C   C645      1.0  0.92908  0.18782  0.60789  1.0000
  C   C646      1.0  0.49167  0.02076  0.49400  1.0000
  C   C647      1.0  0.88036  0.06487  0.61415  1.0000
  H   H519      1.0  0.96804  0.42405  0.42795  1.0000
  H   H520      1.0  0.92563  0.35309  0.49807  1.0000
  C   C648      1.0  0.53464  0.40834  0.43029  1.0000
  H   H521      1.0  0.80949  0.07814  0.57432  1.0000
  H   H522      1.0  0.89273  0.14382  0.31743  1.0000
  H   H523      1.0  0.87750  0.28916  0.51510  1.0000
  C   C649      1.0  0.75757  0.49253  0.49001  1.0000
  C   C650      1.0  0.83807  0.04473  0.58171  1.0000
  Fe  Fe43      1.0  0.94940  0.27558  0.46601  1.0000
  C   C651      1.0  0.73083  0.07796  0.37736  1.0000
  H   H524      1.0  0.94509  0.46645  0.50114  1.0000
  C   C652      1.0  0.62236  0.07370  0.45850  1.0000
  C   C653      1.0  0.98191  0.34936  0.54050  1.0000
  S   S88       1.0  0.58459  0.01552  0.52248  1.0000
  P   P22       1.0  0.65610  0.49224  0.47318  1.0000
  Fe  Fe44      1.0  0.99039  0.29750  0.41964  1.0000
  C   C654      1.0  0.93517  0.45471  0.42816  1.0000
  Fe  Fe45      1.0  0.63255  0.99715  0.52393  1.0000
  H   H525      1.0  0.68183  0.02249  0.38785  1.0000
  H   H526      1.0  0.52615  0.37775  0.49049  1.0000
  C   C655      1.0  0.90633  0.30627  0.52247  1.0000
  H   H527      1.0  0.75892  0.16541  0.40196  1.0000
  H   H528      1.0  0.95754  0.28500  0.60645  1.0000
  C   C656      1.0  0.96979  0.24122  0.34255  1.0000
  H   H529      1.0  0.53945  0.43760  0.43308  1.0000
  C   C657      1.0  0.94449  0.22614  0.59945  1.0000
  S   S89       1.0  0.95434  0.31847  0.43885  1.0000
  C   C658      1.0  0.55561  0.38731  0.48432  1.0000
  C   C659      1.0  0.52249  0.33267  0.42405  1.0000
  C   C660      1.0  0.97266  0.14495  0.64401  1.0000
  C   C661      1.0  0.69838  0.05367  0.39100  1.0000
  H   H530      1.0  0.58207  0.36174  0.41127  1.0000
  C   C662      1.0  0.93355  0.34237  0.51284  1.0000
  C   C663      1.0  0.54465  0.00678  0.50412  1.0000
  H   H531      1.0  0.74340  0.00319  0.39806  1.0000
  C   C664      1.0  0.88034  0.09635  0.34063  1.0000
  C   C665      1.0  0.97868  0.07785  0.32149  1.0000
  C   C666      1.0  0.52288  0.48078  0.50230  1.0000
  C   C667      1.0  0.93730  0.49129  0.42685  1.0000
  H   H532      1.0  0.82391  0.02469  0.56809  1.0000
  C   C668      1.0  0.56615  0.35989  0.47761  1.0000
  C   C669      1.0  0.60395  0.37261  0.46911  1.0000
  H   H533      1.0  0.89603  0.26252  0.54766  1.0000
  C   C670      1.0  0.91462  0.17834  0.63001  1.0000
  C   C671      1.0  0.71782  0.48127  0.48758  1.0000
  C   C672      1.0  0.86008  0.05564  0.34419  1.0000
  H   H534      1.0  0.70522  0.06661  0.46241  1.0000
  H   H535      1.0  0.65852  0.11479  0.50896  1.0000
  H   H536      1.0  0.57390  0.44817  0.48771  1.0000
  H   H537      1.0  0.67920  0.99366  0.62072  1.0000
  H   H538      1.0  0.66026  0.42219  0.46053  1.0000
  H   H539      1.0  0.84040  0.12367  0.60556  1.0000
  C   C673      1.0  0.68767  0.06949  0.40881  1.0000
  H   H540      1.0  0.92836  0.16558  0.59710  1.0000
  C   C674      1.0  0.94586  0.25539  0.61303  1.0000
  H   H541      1.0  0.94705  0.10893  0.31632  1.0000
  C   C675      1.0  0.96943  0.45227  0.42646  1.0000
  H   H542      1.0  0.89066  0.00444  0.32833  1.0000
  C   C676      1.0  0.98458  0.37267  0.61567  1.0000
  H   H543      1.0  0.62945  0.46785  0.51966  1.0000
  H   H544      1.0  0.54485  0.32885  0.47868  1.0000
  H   H545      1.0  0.98715  0.17367  0.43439  1.0000
  H   H546      1.0  0.97931  0.16507  0.62998  1.0000
  H   H547      1.0  0.62583  0.04858  0.38092  1.0000
  C   C677      1.0  0.60022  0.02250  0.41332  1.0000
  H   H548      1.0  0.73926  0.06559  0.36379  1.0000
  H   H549      1.0  0.56254  0.03085  0.36334  1.0000
  C   C678      1.0  0.87642  0.11230  0.32038  1.0000
  P   P23       1.0  0.89462  0.12862  0.64072  1.0000
  C   C679      1.0  0.56320  0.02267  0.38067  1.0000
  H   H550      1.0  0.51259  0.05283  0.56800  1.0000
  C   C680      1.0  0.97599  0.02815  0.64246  1.0000
  H   H551      1.0  0.71684  0.03030  0.43522  1.0000
  C   C681      1.0  0.93190  0.24634  0.63510  1.0000
  C   C682      1.0  0.49187  0.33749  0.43267  1.0000
  H   H552      1.0  0.56480  0.99490  0.44308  1.0000
  C   C683      1.0  0.99117  0.37660  0.59252  1.0000
  C   C684      1.0  0.95117  0.08511  0.31085  1.0000
  H   H553      1.0  0.50040  0.99605  0.38541  1.0000
  C   C685      1.0  0.65303  0.99583  0.43404  1.0000
  H   H554      1.0  0.80706  0.08666  0.64160  1.0000
  C   C686      1.0  0.91639  0.20801  0.64359  1.0000
  S   S90       1.0  0.84756  0.01081  0.70661  1.0000
  S   S91       1.0  0.80906  0.03938  0.74575  1.0000
  C   C687      1.0  0.54634  0.44204  0.93448  1.0000
  H   H555      1.0  0.67146  0.10643  0.90398  1.0000
  Fe  Fe46      1.0  0.86950  0.05070  0.73599  1.0000
  S   S92       1.0  0.91743  0.11433  0.73175  1.0000
  H   H556      1.0  0.96897  0.21602  0.90648  1.0000
  C   C688      1.0  0.80305  0.10218  0.69689  1.0000
  S   S93       1.0  0.65131  0.03008  0.93411  1.0000
  C   C689      1.0  0.93417  0.12331  0.65269  1.0000
  C   C690      1.0  0.70509  0.45983  0.92985  1.0000
  H   H557      1.0  0.89695  0.07887  0.67720  1.0000
  H   H558      1.0  0.85302  0.13222  0.71843  1.0000
  C   C691      1.0  0.74435  0.09492  0.88091  1.0000
  C   C692      1.0  0.85848  0.11924  0.66243  1.0000
  C   C693      1.0  0.51985  0.42008  0.95165  1.0000
  C   C694      1.0  0.70073  0.11112  0.90088  1.0000
  H   H559      1.0  0.82257  0.09164  0.79635  1.0000
  H   H560      1.0  0.75928  0.07287  0.67175  1.0000
  H   H561      1.0  0.80035  0.09083  0.96562  1.0000
  C   C695      1.0  0.79049  0.08996  0.67514  1.0000
  H   H562      1.0  0.84957  0.07914  0.86428  1.0000
  C   C696      1.0  0.81307  0.12075  0.97115  1.0000
  C   C697      1.0  0.98984  0.11695  0.73790  1.0000
  C   C698      1.0  0.99044  0.16926  0.79565  1.0000
  C   C699      1.0  0.76975  0.14266  0.91039  1.0000
  Fe  Fe47      1.0  0.70022  0.04666  0.95901  1.0000
  H   H563      1.0  0.85343  0.16774  0.93132  1.0000
  H   H564      1.0  0.78158  0.09434  0.71028  1.0000
  H   H565      1.0  0.84616  0.06193  0.82467  1.0000
  C   C700      1.0  0.99061  0.17731  0.72827  1.0000
  H   H566      1.0  0.68220  0.06829  0.87489  1.0000
  H   H567      1.0  0.96201  0.14276  0.79447  1.0000
  H   H568      1.0  0.80450  0.15667  0.84761  1.0000
  C   C701      1.0  0.70668  0.99656  0.83781  1.0000
  H   H569      1.0  0.78299  0.99450  0.91484  1.0000
  H   H570      1.0  0.84570  0.01227  0.93378  1.0000
  C   C702      1.0  0.77645  0.12210  0.89351  1.0000
  H   H571      1.0  0.53559  0.44110  0.91767  1.0000
  S   S94       1.0  0.73748  0.11048  0.96946  1.0000
  H   H572      1.0  0.92798  0.26700  0.87181  1.0000
  H   H573      1.0  0.72709  0.15255  0.92738  1.0000
  C   C703      1.0  0.85382  0.14324  0.97521  1.0000
  C   C704      1.0  0.67633  0.46684  0.93903  1.0000
  H   H574      1.0  0.97545  0.20182  0.77229  1.0000
  C   C705      1.0  0.70681  0.08975  0.88447  1.0000
  H   H575      1.0  0.90257  0.23517  0.94147  1.0000
  C   C706      1.0  0.92645  0.09656  0.67047  1.0000
  C   C707      1.0  0.82472  0.10016  0.81371  1.0000
  H   H576      1.0  0.93982  0.28506  0.91186  1.0000
  C   C708      1.0  0.50612  0.02811  0.91754  1.0000
  H   H577      1.0  0.79302  0.16257  0.92113  1.0000
  P   P24       1.0  0.82509  0.12901  0.88839  1.0000
  C   C709      1.0  0.86223  0.17847  0.89556  1.0000
  C   C710      1.0  0.83073  0.09311  0.90472  1.0000
  C   C711      1.0  0.86648  0.10307  0.91528  1.0000
  C   C712      1.0  0.87162  0.07411  0.92607  1.0000
  C   C713      1.0  0.84156  0.03493  0.92589  1.0000
  C   C714      1.0  0.80617  0.02483  0.91526  1.0000
  C   C715      1.0  0.80059  0.05377  0.90488  1.0000
  C   C716      1.0  0.88382  0.20682  0.87887  1.0000
  H   H578      1.0  0.89917  0.08200  0.93423  1.0000
  C   C717      1.0  0.91179  0.24509  0.88474  1.0000
  C   C718      1.0  0.89748  0.22725  0.92396  1.0000
  C   C719      1.0  0.86962  0.18902  0.91814  1.0000
  C   C720      1.0  0.82781  0.11980  0.85899  1.0000
  C   C721      1.0  0.83989  0.09329  0.85224  1.0000
  C   C722      1.0  0.83820  0.08348  0.82971  1.0000
  C   C723      1.0  0.73210  0.13724  0.91396  1.0000
  C   C724      1.0  0.81321  0.12699  0.82020  1.0000
  C   C725      1.0  0.81466  0.13675  0.84274  1.0000
  S   S95       1.0  0.72279  0.01042  0.94302  1.0000
  C   C726      1.0  0.96934  0.13688  0.73264  1.0000
  H   H579      1.0  0.80225  0.13947  0.80779  1.0000
  C   C727      1.0  0.76846  0.99380  0.64921  1.0000
  H   H580      1.0  0.74796  0.07721  0.86843  1.0000
  H   H581      1.0  0.89071  0.13292  0.91487  1.0000
  C   C728      1.0  0.98461  0.22668  0.94116  1.0000
  C   C729      1.0  0.91848  0.25534  0.90727  1.0000
  C   C730      1.0  0.87081  0.13224  0.68431  1.0000
  H   H582      1.0  0.77301  0.04519  0.89652  1.0000
  H   H583      1.0  0.87906  0.19973  0.86133  1.0000
  H   H584      1.0  0.76631  0.47559  0.93004  1.0000
  H   H585      1.0  0.90180  0.14820  0.68838  1.0000
  C   C731      1.0  0.51272  0.99710  0.92274  1.0000
  C   C732      1.0  0.84320  0.12346  0.70145  1.0000
  H   H586      1.0  0.93280  0.26896  0.64562  1.0000
  H   H587      1.0  0.60611  0.48438  0.92586  1.0000
  H   H588      1.0  0.97516  0.19290  0.72411  1.0000
  C   C733      1.0  0.81795  0.09801  0.65800  1.0000
  H   H589      1.0  0.53089  0.05744  0.91505  1.0000
  H   H590      1.0  0.91811  0.02085  0.64705  1.0000
  H   H591      1.0  0.64650  0.45025  0.93307  1.0000
  H   H592      1.0  0.69731  0.43822  0.91692  1.0000
  Fe  Fe48      1.0  0.78699  0.99569  0.71758  1.0000
  H   H593      1.0  0.79338  0.99381  0.65696  1.0000
  H   H594      1.0  0.97364  0.08565  0.74124  1.0000
  C   C734      1.0  0.73138  0.99498  0.82103  1.0000
  C   C735      1.0  0.78894  0.13718  0.97415  1.0000
  H   H595      1.0  0.87222  0.13028  0.97283  1.0000
  H   H596      1.0  0.90569  0.20173  0.66070  1.0000
  H   H597      1.0  0.95611  0.20379  0.94716  1.0000
  C   C736      1.0  0.74395  0.48076  0.93726  1.0000
  S   S96       1.0  0.86806  0.00531  0.75971  1.0000
  C   C737      1.0  0.58625  0.46632  0.93918  1.0000
  H   H598      1.0  0.84583  0.03015  0.97474  1.0000
  C   C738      1.0  0.53334  0.42193  0.97346  1.0000
  H   H599      1.0  0.68460  0.00412  0.83313  1.0000
  C   C739      1.0  0.60001  0.46878  0.96115  1.0000
  H   H600      1.0  0.95089  0.07350  0.69454  1.0000
  C   C740      1.0  0.95702  0.09322  0.68027  1.0000
  H   H601      1.0  0.54249  0.00235  0.92459  1.0000
  C   C741      1.0  0.93962  0.01358  0.65328  1.0000
  H   H602      1.0  0.72806  0.00122  0.80372  1.0000
  H   H603      1.0  0.55460  0.03381  0.97606  1.0000
  Fe  Fe49      1.0  0.68255  0.68162  0.04695  1.0000
  S   S97       1.0  0.70927  0.72348  0.01749  1.0000
  S   S98       1.0  0.72123  0.71169  0.07775  1.0000
  Fe  Fe50      1.0  0.62065  0.61602  0.01576  1.0000
  C   C742      1.0  0.94808  0.72726  0.07232  1.0000
  S   S99       1.0  0.56808  0.55142  0.01532  1.0000
  Fe  Fe51      1.0  0.70546  0.67250  0.99889  1.0000
  C   C743      1.0  0.76750  0.98670  0.10894  1.0000
  Fe  Fe52      1.0  0.64784  0.70320  0.00639  1.0000
  C   C744      1.0  0.86965  0.71002  0.01863  1.0000
  S   S100      1.0  0.68153  0.63118  0.02851  1.0000
  S   S101      1.0  0.62021  0.66364  0.03669  1.0000
  Fe  Fe53      1.0  0.77134  0.78289  0.20779  1.0000
  S   S102      1.0  0.80813  0.77045  0.23240  1.0000
  S   S103      1.0  0.72466  0.73828  0.18399  1.0000
  Fe  Fe54      1.0  0.80836  0.86874  0.22236  1.0000
  S   S104      1.0  0.84820  0.86330  0.24715  1.0000
  S   S105      1.0  0.80048  0.92098  0.21426  1.0000
  Fe  Fe55      1.0  0.85809  0.82917  0.22070  1.0000
  S   S106      1.0  0.91731  0.84148  0.20701  1.0000
  Fe  Fe56      1.0  0.79516  0.80513  0.25769  1.0000
  S   S107      1.0  0.78622  0.79991  0.29621  1.0000
  S   S108      1.0  0.82198  0.83909  0.19488  1.0000
  S   S109      1.0  0.75468  0.81312  0.23406  1.0000
  C   C745      1.0  0.74835  0.61716  0.06400  1.0000
  C   C746      1.0  0.77563  0.65304  0.07310  1.0000
  H   H604      1.0  0.83631  0.76256  0.05470  1.0000
  C   C747      1.0  0.95954  0.85823  0.24640  1.0000
  H   H605      1.0  0.79421  0.58567  0.99546  1.0000
  C   C748      1.0  0.68793  0.92699  0.04386  1.0000
  C   C749      1.0  0.62420  0.72752  0.09499  1.0000
  C   C750      1.0  0.93968  0.72977  0.99591  1.0000
  C   C751      1.0  0.70071  0.85882  0.99815  1.0000
  C   C752      1.0  0.95893  0.98290  0.20658  1.0000
  C   C753      1.0  0.65707  0.76457  0.09814  1.0000
  H   H606      1.0  0.93147  0.84329  0.25509  1.0000
  C   C754      1.0  0.60404  0.71883  0.07473  1.0000
  H   H607      1.0  0.86007  0.74235  0.99235  1.0000
  H   H608      1.0  0.73057  0.71426  0.29602  1.0000
  H   H609      1.0  0.83460  0.76880  0.09545  1.0000
  C   C755      1.0  0.68408  0.81768  0.99947  1.0000
  C   C756      1.0  0.91033  0.56818  0.03926  1.0000
  H   H610      1.0  0.91783  0.54564  0.03587  1.0000
  C   C757      1.0  0.90698  0.61386  0.06476  1.0000
  C   C758      1.0  0.80169  0.61205  0.98585  1.0000
  H   H611      1.0  0.84816  0.87786  0.29812  1.0000
  C   C759      1.0  0.78903  0.91386  0.27662  1.0000
  H   H612      1.0  0.81100  0.59372  0.03834  1.0000
  H   H613      1.0  0.74623  0.95032  0.03021  1.0000
  C   C760      1.0  0.72021  0.71908  0.10719  1.0000
  C   C761      1.0  0.75404  0.74955  0.11705  1.0000
  C   C762      1.0  0.75589  0.75617  0.14033  1.0000
  C   C763      1.0  0.72377  0.73211  0.15427  1.0000
  C   C764      1.0  0.68967  0.70185  0.14438  1.0000
  C   C765      1.0  0.68780  0.69539  0.12103  1.0000
  H   H614      1.0  0.77872  0.76859  0.10646  1.0000
  H   H615      1.0  0.78214  0.77986  0.14750  1.0000
  H   H616      1.0  0.66454  0.68301  0.15489  1.0000
  H   H617      1.0  0.66153  0.67172  0.11384  1.0000
  C   C766      1.0  0.80687  0.68981  0.14081  1.0000
  C   C767      1.0  0.92959  0.70676  0.01550  1.0000
  H   H618      1.0  0.72880  0.87743  0.00585  1.0000
  H   H619      1.0  0.89075  0.56901  0.00562  1.0000
  H   H620      1.0  0.74333  0.89636  0.25216  1.0000
  C   C768      1.0  0.91606  0.58429  0.06056  1.0000
  H   H621      1.0  0.73948  0.96575  0.30584  1.0000
  H   H622      1.0  0.96122  0.82291  0.09685  1.0000
  H   H623      1.0  0.96072  0.73603  0.05570  1.0000
  H   H624      1.0  0.63062  0.89677  0.05946  1.0000
  C   C769      1.0  0.64544  0.52962  0.03345  1.0000
  C   C770      1.0  0.97686  0.84762  0.13839  1.0000
  C   C771      1.0  0.80502  0.93432  0.29632  1.0000
  C   C772      1.0  0.95579  0.95232  0.24263  1.0000
  C   C773      1.0  0.89514  0.58132  0.02222  1.0000
  H   H625      1.0  0.89447  0.94011  0.27895  1.0000
  C   C774      1.0  0.66771  0.87442  0.07138  1.0000
  C   C775      1.0  0.73753  0.93063  0.27820  1.0000
  P   P25       1.0  0.88132  0.66649  0.05226  1.0000
  H   H626      1.0  0.68094  0.94508  0.03306  1.0000
  H   H627      1.0  0.87461  0.62087  0.01299  1.0000
  C   C776      1.0  0.90537  0.92798  0.29162  1.0000
  C   C777      1.0  0.87900  0.89273  0.30246  1.0000
  C   C778      1.0  0.75337  0.95109  0.29794  1.0000
  C   C779      1.0  0.75524  0.91185  0.26763  1.0000
  C   C780      1.0  0.66980  0.79337  0.08104  1.0000
  C   C781      1.0  0.65657  0.50525  0.04461  1.0000
  C   C782      1.0  0.94553  0.94703  0.29682  1.0000
  H   H628      1.0  0.93906  0.92144  0.21159  1.0000
  C   C783      1.0  0.64748  0.79326  0.98983  1.0000
  S   S110      1.0  0.64542  0.65520  0.98518  1.0000
  C   C784      1.0  0.91786  0.70527  0.11586  1.0000
  H   H629      1.0  0.97324  0.75353  0.12644  1.0000
  C   C785      1.0  0.65950  0.89952  0.05858  1.0000
  C   C786      1.0  0.86789  0.99020  0.22677  1.0000
  H   H630      1.0  0.71176  0.92960  0.27091  1.0000
  C   C787      1.0  0.61707  0.74699  0.05744  1.0000
  H   H631      1.0  0.83655  0.69601  0.07638  1.0000
  H   H632      1.0  0.92957  0.86717  0.16201  1.0000
  H   H633      1.0  0.95053  0.51790  0.98864  1.0000
  H   H634      1.0  0.60215  0.73988  0.04145  1.0000
  C   C788      1.0  0.89463  0.69698  0.02717  1.0000
  H   H635      1.0  0.86659  0.65855  0.10075  1.0000
  P   P26       1.0  0.71294  0.84106  0.08439  1.0000
  C   C789      1.0  0.72153  0.85283  0.11374  1.0000
  C   C790      1.0  0.71190  0.87920  0.12360  1.0000
  C   C791      1.0  0.71936  0.88804  0.14633  1.0000
  C   C792      1.0  0.73628  0.87056  0.15934  1.0000
  C   C793      1.0  0.74567  0.84413  0.14967  1.0000
  C   C794      1.0  0.73858  0.83555  0.12696  1.0000
  C   C795      1.0  0.73303  0.90460  0.05483  1.0000
  C   C796      1.0  0.75573  0.84073  0.07344  1.0000
  C   C797      1.0  0.75195  0.80925  0.06082  1.0000
  C   C798      1.0  0.78543  0.80901  0.05296  1.0000
  C   C799      1.0  0.82289  0.84023  0.05753  1.0000
  C   C800      1.0  0.82692  0.87168  0.07011  1.0000
  C   C801      1.0  0.79347  0.87190  0.07808  1.0000
  H   H636      1.0  0.69859  0.89292  0.11393  1.0000
  H   H637      1.0  0.71174  0.90819  0.15400  1.0000
  H   H638      1.0  0.74188  0.87719  0.17699  1.0000
  H   H639      1.0  0.75795  0.82986  0.15989  1.0000
  H   H640      1.0  0.74591  0.81495  0.11971  1.0000
  H   H641      1.0  0.76110  0.90625  0.05238  1.0000
  C   C802      1.0  0.64556  0.53124  0.01004  1.0000
  H   H642      1.0  0.78204  0.78422  0.04350  1.0000
  H   H643      1.0  0.84873  0.83999  0.05134  1.0000
  H   H644      1.0  0.85597  0.89576  0.07377  1.0000
  H   H645      1.0  0.79691  0.89631  0.08791  1.0000
  C   C803      1.0  0.80893  0.72793  0.17268  1.0000
  C   C804      1.0  0.83919  0.72296  0.13129  1.0000
  C   C805      1.0  0.85552  0.75929  0.14197  1.0000
  C   C806      1.0  0.84089  0.76125  0.16307  1.0000
  P   P27       1.0  0.89638  0.80284  0.12959  1.0000
  C   C807      1.0  0.88724  0.84283  0.13515  1.0000
  C   C808      1.0  0.94169  0.81243  0.14303  1.0000
  H   H646      1.0  0.94889  0.69616  0.02128  1.0000
  C   C809      1.0  0.95012  0.94953  0.21948  1.0000
  C   C810      1.0  0.96076  0.86217  0.22307  1.0000
  H   H647      1.0  0.75308  0.61739  0.99914  1.0000
  C   C811      1.0  0.94162  0.78651  0.15954  1.0000
  C   C812      1.0  0.85728  0.84566  0.12389  1.0000
  C   C813      1.0  0.84753  0.87406  0.12986  1.0000
  C   C814      1.0  0.86767  0.90005  0.14701  1.0000
  C   C815      1.0  0.89774  0.89775  0.15813  1.0000
  C   C816      1.0  0.90740  0.86928  0.15233  1.0000
  C   C817      1.0  0.89787  0.79760  0.09947  1.0000
  C   C818      1.0  0.86281  0.78021  0.08715  1.0000
  C   C819      1.0  0.86364  0.77641  0.06395  1.0000
  C   C820      1.0  0.89953  0.79016  0.05276  1.0000
  H   H648      1.0  0.95459  0.98081  0.18867  1.0000
  C   C821      1.0  0.93373  0.81050  0.08804  1.0000
  H   H649      1.0  0.85091  0.72017  0.11551  1.0000
  H   H650      1.0  0.85383  0.78856  0.17207  1.0000
  C   C822      1.0  0.78917  0.98786  0.09008  1.0000
  H   H651      1.0  0.67246  0.77016  0.11385  1.0000
  C   C823      1.0  0.64992  0.78402  0.06051  1.0000
  H   H652      1.0  0.80250  0.96949  0.08956  1.0000
  H   H653      1.0  0.91484  0.75986  0.16418  1.0000
  H   H654      1.0  0.84047  0.82531  0.11101  1.0000
  H   H655      1.0  0.82349  0.87514  0.12172  1.0000
  H   H656      1.0  0.85920  0.92115  0.15219  1.0000
  H   H657      1.0  0.91236  0.91675  0.17203  1.0000
  C   C824      1.0  0.80524  0.98778  0.22981  1.0000
  C   C825      1.0  0.82668  0.96897  0.22510  1.0000
  H   H658      1.0  0.79689  0.72984  0.18863  1.0000
  H   H659      1.0  0.79336  0.66217  0.13215  1.0000
  C   C826      1.0  0.88615  0.61086  0.02637  1.0000
  H   H660      1.0  0.88474  0.97611  0.22282  1.0000
  C   C827      1.0  0.68121  0.87594  0.98699  1.0000
  H   H661      1.0  0.94955  0.92623  0.25225  1.0000
  H   H662      1.0  0.84182  0.70192  0.02666  1.0000
  C   C828      1.0  0.79150  0.69242  0.16141  1.0000
  C   C829      1.0  0.81592  0.66764  0.06983  1.0000
  H   H663      1.0  0.92786  0.57403  0.07374  1.0000
  C   C830      1.0  0.76135  0.59593  0.05153  1.0000
  H   H664      1.0  0.90631  0.69655  0.13277  1.0000
  H   H665      1.0  0.91182  0.62600  0.08133  1.0000
  H   H666      1.0  0.65613  0.50388  0.06274  1.0000
  H   H667      1.0  0.72330  0.78445  0.05722  1.0000
  S   S111      1.0  0.62429  0.74129  0.99152  1.0000
  H   H668      1.0  0.96226  0.81689  0.05611  1.0000
  H   H669      1.0  0.97728  0.86887  0.12647  1.0000
  H   H670      1.0  0.96644  0.73670  0.98690  1.0000
  H   H671      1.0  0.76590  0.66709  0.16865  1.0000
  C   C831      1.0  0.89244  0.62774  0.04754  1.0000
  C   C832      1.0  0.93450  0.80694  0.06480  1.0000
  C   C833      1.0  0.82929  0.64617  0.05768  1.0000
  H   H672      1.0  0.76536  0.66986  0.08231  1.0000
  H   H673      1.0  0.64494  0.85247  0.08223  1.0000
  H   H674      1.0  0.83134  0.93559  0.30282  1.0000
  C   C834      1.0  0.80166  0.61031  0.04839  1.0000
  C   C835      1.0  0.87998  0.73320  0.99909  1.0000
  H   H675      1.0  0.77356  0.97194  0.22827  1.0000
  C   C836      1.0  0.91003  0.69512  0.07567  1.0000
  C   C837      1.0  0.89531  0.68400  0.09765  1.0000
  C   C838      1.0  0.52758  0.51706  0.99828  1.0000
  H   H676      1.0  0.57884  0.68995  0.07221  1.0000
  C   C839      1.0  0.70447  0.87655  0.06949  1.0000
  C   C840      1.0  0.72479  0.92984  0.04221  1.0000
  H   H677      1.0  0.65991  0.80512  0.04672  1.0000
  H   H678      1.0  0.71712  0.60620  0.06628  1.0000
  H   H679      1.0  0.80302  0.89983  0.26808  1.0000
  H   H680      1.0  0.71226  0.82808  0.28871  1.0000
  H   H681      1.0  0.61475  0.70529  0.10816  1.0000
  C   C841      1.0  0.77832  0.62993  0.98795  1.0000
  C   C842      1.0  0.95554  0.73737  0.11233  1.0000
  S   S112      1.0  0.97164  0.63265  0.97914  1.0000
  H   H682      1.0  0.69928  0.80485  0.00814  1.0000
  H   H683      1.0  0.74018  0.56865  0.04395  1.0000
  H   H684      1.0  0.90029  0.78760  0.03477  1.0000
  C   C843      1.0  0.91490  0.74295  0.98768  1.0000
  S   S113      1.0  0.70271  0.92782  0.98644  1.0000
  H   H685      1.0  0.97558  0.77606  0.18424  1.0000
  H   H686      1.0  0.63565  0.54661  0.04286  1.0000
  C   C844      1.0  0.97069  0.74821  0.09058  1.0000
  H   H687      1.0  0.63628  0.54986  0.00170  1.0000
  C   C845      1.0  0.70275  0.82365  0.30610  1.0000
  C   C846      1.0  0.97614  0.79551  0.17099  1.0000
  C   C847      1.0  0.78703  0.95275  0.30729  1.0000
  H   H688      1.0  0.76438  0.96775  0.12311  1.0000
  C   C848      1.0  0.65613  0.50796  0.99761  1.0000
  C   C849      1.0  0.62816  0.81045  0.97856  1.0000
  C   C850      1.0  0.96699  0.50312  0.98542  1.0000
  H   H689      1.0  0.64125  0.78909  0.29846  1.0000
  C   C851      1.0  0.96964  0.98854  0.25308  1.0000
  P   P28       1.0  0.97859  0.99286  0.28275  1.0000
  C   C852      1.0  0.51387  0.97173  0.97768  1.0000
  Fe  Fe57      1.0  0.69356  0.67049  0.41356  1.0000
  S   S114      1.0  0.73922  0.70993  0.43807  1.0000
  S   S115      1.0  0.70158  0.67027  0.37521  1.0000
  Fe  Fe58      1.0  0.63123  0.62477  0.45179  1.0000
  S   S116      1.0  0.67333  0.66370  0.47811  1.0000
  S   S117      1.0  0.56604  0.57524  0.45765  1.0000
  Fe  Fe59      1.0  0.68946  0.71461  0.45424  1.0000
  S   S118      1.0  0.70672  0.77792  0.46263  1.0000
  Fe  Fe60      1.0  0.71968  0.65623  0.45994  1.0000
  S   S119      1.0  0.75472  0.63549  0.48123  1.0000
  S   S120      1.0  0.64456  0.67694  0.42896  1.0000
  S   S121      1.0  0.67711  0.61567  0.43441  1.0000
  H   H690      1.0  0.94965  0.73515  0.62382  1.0000
  S   S122      1.0  0.93924  0.69664  0.48873  1.0000
  H   H691      1.0  0.61989  0.77494  0.33804  1.0000
  Fe  Fe61      1.0  0.65300  0.93288  0.51339  1.0000
  S   S123      1.0  0.62331  0.87009  0.50019  1.0000
  S   S124      1.0  0.62904  0.94626  0.54443  1.0000
  C   C853      1.0  0.65078  0.79402  0.33411  1.0000
  H   H692      1.0  0.57856  0.52864  0.42343  1.0000
  C   C854      1.0  0.53472  0.53055  0.47337  1.0000
  C   C855      1.0  0.49950  0.91212  0.53699  1.0000
  H   H693      1.0  0.57908  0.53311  0.49546  1.0000
  C   C856      1.0  0.68243  0.80250  0.47301  1.0000
  C   C857      1.0  0.70527  0.84246  0.47824  1.0000
  C   C858      1.0  0.68771  0.86354  0.48654  1.0000
  C   C859      1.0  0.64692  0.84492  0.48959  1.0000
  C   C860      1.0  0.62398  0.80503  0.48414  1.0000
  C   C861      1.0  0.64160  0.78386  0.47595  1.0000
  H   H694      1.0  0.73687  0.85718  0.47595  1.0000
  H   H695      1.0  0.70576  0.89416  0.49066  1.0000
  H   H696      1.0  0.59239  0.79034  0.48641  1.0000
  H   H697      1.0  0.62361  0.75327  0.47179  1.0000
  C   C862      1.0  0.80618  0.65333  0.48319  1.0000
  C   C863      1.0  0.83366  0.68354  0.46927  1.0000
  C   C864      1.0  0.87415  0.69640  0.47134  1.0000
  C   C865      1.0  0.88775  0.67926  0.48728  1.0000
  C   C866      1.0  0.86024  0.64915  0.50129  1.0000
  C   C867      1.0  0.81974  0.63627  0.49921  1.0000
  H   H698      1.0  0.82374  0.69689  0.45683  1.0000
  H   H699      1.0  0.89512  0.71974  0.46044  1.0000
  H   H700      1.0  0.87019  0.63601  0.51384  1.0000
  H   H701      1.0  0.79875  0.61288  0.51008  1.0000
  C   C868      1.0  0.76974  0.77423  0.34036  1.0000
  C   C869      1.0  0.75189  0.74640  0.35806  1.0000
  C   C870      1.0  0.72576  0.70690  0.35354  1.0000
  C   C871      1.0  0.71840  0.69578  0.33095  1.0000
  H   H702      1.0  0.75899  0.75535  0.37519  1.0000
  H   H703      1.0  0.69850  0.66537  0.32710  1.0000
  H   H704      1.0  0.95782  0.78040  0.56855  1.0000
  C   C872      1.0  0.59124  0.61295  0.53289  1.0000
  H   H705      1.0  0.65008  0.81165  0.42587  1.0000
  C   C873      1.0  0.73661  0.72351  0.31321  1.0000
  C   C874      1.0  0.98903  0.79515  0.57207  1.0000
  C   C875      1.0  0.91669  0.57305  0.36539  1.0000
  C   C876      1.0  0.63436  0.74182  0.38116  1.0000
  C   C877      1.0  0.60140  0.72243  0.39546  1.0000
  C   C878      1.0  0.57779  0.68154  0.39508  1.0000
  C   C879      1.0  0.58711  0.65972  0.38061  1.0000
  C   C880      1.0  0.61991  0.67877  0.36643  1.0000
  C   C881      1.0  0.64350  0.71960  0.36671  1.0000
  C   C882      1.0  0.64754  0.79739  0.62598  1.0000
  C   C883      1.0  0.77811  0.84269  0.42025  1.0000
  C   C884      1.0  0.75907  0.80393  0.41307  1.0000
  C   C885      1.0  0.72333  0.78862  0.40175  1.0000
  C   C886      1.0  0.84464  0.91242  0.36754  1.0000
  H   H706      1.0  0.59385  0.73853  0.40705  1.0000
  C   C887      1.0  0.49436  0.50851  0.46817  1.0000
  C   C888      1.0  0.64950  0.51720  0.49641  1.0000
  H   H707      1.0  0.62775  0.66184  0.35557  1.0000
  H   H708      1.0  0.66903  0.73366  0.35572  1.0000
  H   H709      1.0  0.80504  0.85385  0.42970  1.0000
  H   H710      1.0  0.77163  0.78545  0.41672  1.0000
  H   H711      1.0  0.70862  0.75822  0.39678  1.0000
  H   H712      1.0  0.50178  0.97844  0.42519  1.0000
  C   C889      1.0  0.63670  0.76540  0.54225  1.0000
  C   C890      1.0  0.63306  0.79905  0.54179  1.0000
  C   C891      1.0  0.76197  0.86664  0.41563  1.0000
  H   H713      1.0  0.56702  0.85132  0.41681  1.0000
  H   H714      1.0  0.94307  0.53388  0.46517  1.0000
  H   H715      1.0  0.66779  0.90906  0.45367  1.0000
  C   C892      1.0  0.91343  0.56239  0.47859  1.0000
  H   H716      1.0  0.56798  0.84282  0.37583  1.0000
  H   H717      1.0  0.60067  0.89853  0.44847  1.0000
  H   H718      1.0  0.55076  0.59216  0.50533  1.0000
  H   H719      1.0  0.97085  0.70991  0.59187  1.0000
  C   C893      1.0  0.63405  0.51825  0.53575  1.0000
  C   C894      1.0  0.65872  0.57727  0.51287  1.0000
  C   C895      1.0  0.72313  0.86259  0.60767  1.0000
  H   H720      1.0  0.60431  0.79655  0.54063  1.0000
  C   C896      1.0  0.73157  0.93033  0.35160  1.0000
  H   H721      1.0  0.71501  0.87090  0.40006  1.0000
  C   C897      1.0  0.73733  0.83752  0.60161  1.0000
  C   C898      1.0  0.76910  0.85061  0.58665  1.0000
  C   C899      1.0  0.78661  0.88866  0.57751  1.0000
  C   C900      1.0  0.77250  0.91369  0.58344  1.0000
  C   C901      1.0  0.74122  0.90085  0.59867  1.0000
  S   S125      1.0  0.65328  0.98149  0.49287  1.0000
  H   H722      1.0  0.63190  0.68319  0.62265  1.0000
  H   H723      1.0  0.83175  0.88617  0.37809  1.0000
  H   H724      1.0  0.79878  0.57945  0.46109  1.0000
  C   C902      1.0  0.54855  0.51648  0.49081  1.0000
  C   C903      1.0  0.92624  0.57066  0.38770  1.0000
  H   H725      1.0  0.59572  0.51089  0.45970  1.0000
  H   H726      1.0  0.64379  0.57370  0.54783  1.0000
  H   H727      1.0  0.77653  0.89656  0.42141  1.0000
  C   C904      1.0  0.87764  0.97921  0.33960  1.0000
  H   H728      1.0  0.78030  0.83136  0.58223  1.0000
  H   H729      1.0  0.81112  0.89880  0.56586  1.0000
  H   H730      1.0  0.98917  0.94577  0.31858  1.0000
  C   C905      1.0  0.63512  0.78267  0.60446  1.0000
  C   C906      1.0  0.73991  0.98296  0.38494  1.0000
  C   C907      1.0  0.65735  0.69795  0.61164  1.0000
  C   C908      1.0  0.90345  0.59161  0.47543  1.0000
  Fe  Fe62      1.0  0.97810  0.67705  0.50729  1.0000
  H   H731      1.0  0.90726  0.63726  0.45343  1.0000
  C   C909      1.0  0.72802  0.73337  0.60633  1.0000
  C   C910      1.0  0.62026  0.68750  0.51332  1.0000
  C   C911      1.0  0.66661  0.83620  0.54213  1.0000
  P   P29       1.0  0.67894  0.72539  0.54481  1.0000
  C   C912      1.0  0.68517  0.71966  0.57428  1.0000
  C   C913      1.0  0.72020  0.72922  0.52927  1.0000
  C   C914      1.0  0.73321  0.70235  0.53367  1.0000
  C   C915      1.0  0.76342  0.70328  0.52074  1.0000
  C   C916      1.0  0.78038  0.73053  0.50312  1.0000
  C   C917      1.0  0.76731  0.75708  0.49852  1.0000
  C   C918      1.0  0.73732  0.75643  0.51154  1.0000
  C   C919      1.0  0.65233  0.70084  0.58863  1.0000
  H   H732      1.0  0.54486  0.96066  0.48538  1.0000
  C   C920      1.0  0.93398  0.55534  0.46187  1.0000
  C   C921      1.0  0.72309  0.73636  0.58333  1.0000
  C   C922      1.0  0.67409  0.76873  0.54279  1.0000
  C   C923      1.0  0.70383  0.83977  0.54274  1.0000
  C   C924      1.0  0.70761  0.80621  0.54333  1.0000
  H   H733      1.0  0.75737  0.74592  0.61318  1.0000
  H   H734      1.0  0.63242  0.71588  0.50492  1.0000
  H   H735      1.0  0.71950  0.68014  0.54675  1.0000
  H   H736      1.0  0.77291  0.68200  0.52381  1.0000
  H   H737      1.0  0.80289  0.73029  0.49268  1.0000
  H   H738      1.0  0.77947  0.77737  0.48438  1.0000
  H   H739      1.0  0.72675  0.77633  0.50723  1.0000
  H   H740      1.0  0.62286  0.68855  0.58206  1.0000
  C   C925      1.0  0.60287  0.52289  0.42440  1.0000
  H   H741      1.0  0.74892  0.75178  0.57266  1.0000
  H   H742      1.0  0.72971  0.86869  0.54239  1.0000
  H   H743      1.0  0.73671  0.80956  0.54400  1.0000
  H   H744      1.0  0.90268  0.91920  0.36797  1.0000
  H   H745      1.0  0.57712  0.65790  0.48768  1.0000
  C   C926      1.0  0.62249  0.64564  0.54282  1.0000
  H   H746      1.0  0.61027  0.73695  0.54212  1.0000
  C   C927      1.0  0.58645  0.83653  0.38662  1.0000
  H   H747      1.0  0.93189  0.97837  0.34318  1.0000
  C   C928      1.0  0.66069  0.87529  0.62847  1.0000
  C   C929      1.0  0.62588  0.92693  0.44441  1.0000
  S   S126      1.0  0.71567  0.96975  0.52385  1.0000
  H   H748      1.0  0.65026  0.80038  0.58979  1.0000
  C   C930      1.0  0.73072  0.83840  0.32301  1.0000
  C   C931      1.0  0.66072  0.55700  0.49433  1.0000
  H   H749      1.0  0.72573  0.97530  0.44719  1.0000
  C   C932      1.0  0.63303  0.81919  0.41463  1.0000
  H   H750      1.0  0.67186  0.57264  0.47854  1.0000
  H   H751      1.0  0.93659  0.58225  0.33103  1.0000
  H   H752      1.0  0.61792  0.53528  0.38939  1.0000
  C   C933      1.0  0.76245  0.76305  0.31777  1.0000
  C   C934      1.0  0.66279  0.80160  0.31164  1.0000
  H   H753      1.0  0.59204  0.73470  0.58513  1.0000
  H   H754      1.0  0.66834  0.60821  0.51127  1.0000
  C   C935      1.0  0.98080  0.58490  0.35350  1.0000
  C   C936      1.0  0.58153  0.72277  0.62053  1.0000
  C   C937      1.0  0.62044  0.95811  0.43754  1.0000
  H   H755      1.0  0.78744  0.99208  0.61557  1.0000
  H   H756      1.0  0.79027  0.91223  0.36380  1.0000
  C   C938      1.0  0.77619  0.55149  0.46799  1.0000
  C   C939      1.0  0.64514  0.50714  0.44670  1.0000
  C   C940      1.0  0.83755  0.96092  0.34539  1.0000
  C   C941      1.0  0.62866  0.90451  0.60719  1.0000
  C   C942      1.0  0.67869  0.80900  0.35128  1.0000
  H   H757      1.0  0.72794  0.90915  0.33911  1.0000
  H   H758      1.0  0.81751  0.53663  0.48235  1.0000
  C   C943      1.0  0.71887  0.83107  0.34548  1.0000
  H   H759      1.0  0.52729  0.92863  0.52804  1.0000
  C   C944      1.0  0.61295  0.51327  0.44504  1.0000
  H   H760      1.0  0.68159  0.93912  0.39574  1.0000
  C   C945      1.0  0.49710  0.97013  0.47493  1.0000
  H   H761      1.0  0.72441  0.80822  0.60885  1.0000
  H   H762      1.0  0.58035  0.58381  0.54006  1.0000
  C   C946      1.0  0.76640  0.96682  0.35247  1.0000
  S   S127      1.0  0.96549  0.62967  0.53328  1.0000
  H   H763      1.0  0.78982  0.80457  0.34421  1.0000
  C   C947      1.0  0.63649  0.68335  0.53343  1.0000
  H   H764      1.0  0.66378  0.86227  0.54125  1.0000
  C   C948      1.0  0.63397  0.81445  0.39137  1.0000
  H   H765      1.0  0.56946  0.62799  0.38073  1.0000
  H   H766      1.0  0.60838  0.83581  0.44170  1.0000
  H   H767      1.0  0.87189  0.84800  0.32626  1.0000
  H   H768      1.0  0.55575  0.69413  0.61842  1.0000
  C   C949      1.0  0.82118  0.92733  0.35939  1.0000
  C   C950      1.0  0.93224  0.89527  0.32413  1.0000
  C   C951      1.0  0.64514  0.55787  0.53351  1.0000
  H   H769      1.0  0.76176  0.85387  0.31862  1.0000
  C   C952      1.0  0.65071  0.88546  0.60784  1.0000
  C   C953      1.0  0.70706  0.81253  0.39693  1.0000
  C   C954      1.0  0.58912  0.65475  0.50342  1.0000
  C   C955      1.0  0.70517  0.94687  0.38368  1.0000
  C   C956      1.0  0.88459  0.93098  0.36183  1.0000
  H   H770      1.0  0.88887  0.59807  0.48871  1.0000
  C   C957      1.0  0.60919  0.83270  0.42371  1.0000
  C   C958      1.0  0.58592  0.84138  0.40972  1.0000
  C   C959      1.0  0.72681  0.85179  0.40379  1.0000
  P   P30       1.0  0.66334  0.79479  0.38018  1.0000
  H   H771      1.0  0.63605  0.64130  0.55752  1.0000
  C   C960      1.0  0.70104  0.92066  0.36698  1.0000
  C   C961      1.0  0.97417  0.73009  0.62584  1.0000
  H   H772      1.0  0.67426  0.89270  0.36598  1.0000
  H   H773      1.0  0.60965  0.81887  0.35961  1.0000
  H   H774      1.0  0.74142  0.84120  0.35807  1.0000
  H   H775      1.0  0.73167  0.92110  0.60364  1.0000
  P   P31       1.0  0.68594  0.84745  0.62924  1.0000
  C   C962      1.0  0.61017  0.82286  0.37747  1.0000
  C   C963      1.0  0.57448  0.61755  0.51327  1.0000
  C   C964      1.0  0.69636  0.97013  0.44380  1.0000
  C   C965      1.0  0.60207  0.74556  0.60177  1.0000
  S   S128      1.0  0.72927  0.98938  0.58502  1.0000
  H   H776      1.0  0.94265  0.88232  0.33657  1.0000
  C   C966      1.0  0.73652  0.54026  0.46549  1.0000
  C   C967      1.0  0.66377  0.93290  0.44749  1.0000
  C   C968      1.0  0.91395  0.61378  0.45553  1.0000
  H   H777      1.0  0.55280  0.66662  0.40640  1.0000
  C   C969      1.0  0.53053  0.97779  0.48778  1.0000
  H   H778      1.0  0.67397  0.52289  0.39178  1.0000
  C   C970      1.0  0.69516  0.71416  0.62048  1.0000
  H   H779      1.0  0.72907  0.56015  0.45688  1.0000
  H   H780      1.0  0.90433  0.56408  0.40063  1.0000
  S   S129      1.0  0.98801  0.55053  0.50644  1.0000
  H   H781      1.0  0.78587  0.94328  0.57648  1.0000
  H   H782      1.0  0.66021  0.87906  0.59223  1.0000
  C   C971      1.0  0.66647  0.50958  0.42724  1.0000
  C   C972      1.0  0.62497  0.52653  0.40523  1.0000
  H   H783      1.0  0.62225  0.91350  0.59126  1.0000
  C   C973      1.0  0.89243  0.87601  0.31844  1.0000
  C   C974      1.0  0.95867  0.93099  0.31361  1.0000
  H   H784      1.0  0.51220  0.86783  0.54908  1.0000
  P   P32       1.0  0.80662  0.97812  0.33322  1.0000
  H   H785      1.0  0.90690  0.54634  0.49441  1.0000
  H   H786      1.0  0.88799  0.56907  0.36134  1.0000
  C   C975      1.0  0.70695  0.50445  0.47466  1.0000
  C   C976      1.0  0.65667  0.51973  0.40664  1.0000
  C   C977      1.0  0.90107  0.96437  0.34788  1.0000
  C   C978      1.0  0.94470  0.57751  0.44184  1.0000
  C   C979      1.0  0.93506  0.60723  0.43894  1.0000
  Fe  Fe63      1.0  0.69274  0.98694  0.55386  1.0000
  C   C980      1.0  0.63676  0.49811  0.51737  1.0000
  H   H787      1.0  0.98198  0.80873  0.60594  1.0000
  H   H788      1.0  0.59078  0.95271  0.43583  1.0000
  H   H789      1.0  0.69903  0.71176  0.63830  1.0000
  C   C981      1.0  0.76510  0.99305  0.62562  1.0000
  P   P33       1.0  0.97620  0.57265  0.42170  1.0000
  C   C982      1.0  0.78673  0.52754  0.48013  1.0000
  H   H790      1.0  0.69075  0.50388  0.42791  1.0000
  H   H791      1.0  0.62398  0.50330  0.55182  1.0000
  C   C983      1.0  0.94403  0.58038  0.34831  1.0000
  C   C984      1.0  0.98611  0.71568  0.60764  1.0000
  H   H792      1.0  0.94493  0.62623  0.42421  1.0000
  C   C985      1.0  0.96356  0.57634  0.39309  1.0000
  C   C986      1.0  0.97389  0.52577  0.42440  1.0000
  C   C987      1.0  0.73273  0.99258  0.61499  1.0000
  C   C988      1.0  0.61558  0.91269  0.62706  1.0000
  H   H793      1.0  0.59914  0.92812  0.62652  1.0000
  C   C989      1.0  0.52894  0.99287  0.41548  1.0000
  C   C990      1.0  0.59379  0.73727  0.64201  1.0000
  C   C991      1.0  0.99044  0.58257  0.37579  1.0000
  C   C992      1.0  0.70402  0.99350  0.62847  1.0000
  C   C993      1.0  0.77042  0.99291  0.36946  1.0000
  H   H794      1.0  0.94943  0.78396  0.79813  1.0000
  C   C994      1.0  0.63202  0.87959  0.89107  1.0000
  S   S130      1.0  0.93538  0.83033  0.76241  1.0000
  S   S131      1.0  0.99004  0.70460  0.88392  1.0000
  H   H795      1.0  0.65256  0.87395  0.66448  1.0000
  C   C995      1.0  0.81083  0.66966  0.88056  1.0000
  S   S132      1.0  0.79119  0.98074  0.80617  1.0000
  S   S133      1.0  0.86089  0.92401  0.71530  1.0000
  C   C996      1.0  0.71942  0.82501  0.66353  1.0000
  C   C997      1.0  0.83267  0.76442  0.78843  1.0000
  S   S134      1.0  0.77897  0.94591  0.74075  1.0000
  Fe  Fe64      1.0  0.97705  0.81570  0.74397  1.0000
  Fe  Fe65      1.0  0.92544  0.63050  0.95572  1.0000
  S   S135      1.0  0.94271  0.60554  0.92690  1.0000
  C   C998      1.0  0.75418  0.89825  0.68384  1.0000
  C   C999      1.0  0.56878  0.83249  0.91970  1.0000
  Fe  Fe66      1.0  0.84144  0.96390  0.73112  1.0000
  H   H796      1.0  0.54609  0.87055  0.91031  1.0000
  C   C1000     1.0  0.91397  0.66871  0.82825  1.0000
  C   C1001     1.0  0.93812  0.79479  0.85367  1.0000
  C   C1002     1.0  0.63108  0.84751  0.90242  1.0000
  C   C1003     1.0  0.73126  0.87066  0.86647  1.0000
  C   C1004     1.0  0.80074  0.69382  0.78547  1.0000
  H   H797      1.0  0.89929  0.87219  0.78037  1.0000
  H   H798      1.0  0.76804  0.92687  0.69146  1.0000
  Fe  Fe67      1.0  0.67971  0.96154  0.96599  1.0000
  C   C1005     1.0  0.92973  0.67835  0.78229  1.0000
  H   H799      1.0  0.90859  0.66419  0.84602  1.0000
  P   P34       1.0  0.89109  0.72627  0.82958  1.0000
  S   S136      1.0  0.63002  0.93937  0.94154  1.0000
  C   C1006     1.0  0.82663  0.69288  0.80123  1.0000
  C   C1007     1.0  0.56949  0.86382  0.90791  1.0000
  S   S137      1.0  0.54728  0.95618  0.96772  1.0000
  C   C1008     1.0  0.83412  0.66771  0.89767  1.0000
  H   H800      1.0  0.92342  0.71576  0.87174  1.0000
  C   C1009     1.0  0.86865  0.70429  0.85644  1.0000
  H   H801      1.0  0.91988  0.78002  0.86816  1.0000
  C   C1010     1.0  0.72145  0.87904  0.82717  1.0000
  C   C1011     1.0  0.85570  0.72776  0.81078  1.0000
  S   S138      1.0  0.96540  0.75448  0.73776  1.0000
  C   C1012     1.0  0.98436  0.83619  0.81650  1.0000
  C   C1013     1.0  0.65191  0.78461  0.90284  1.0000
  C   C1014     1.0  0.80391  0.72961  0.77897  1.0000
  C   C1015     1.0  0.63148  0.72876  0.92836  1.0000
  H   H802      1.0  0.77876  0.66687  0.77793  1.0000
  H   H803      1.0  0.80926  0.68878  0.84702  1.0000
  C   C1016     1.0  0.59937  0.82428  0.91695  1.0000
  H   H804      1.0  0.57741  0.71995  0.65656  1.0000
  C   C1017     1.0  0.63086  0.59298  0.94478  1.0000
  C   C1018     1.0  0.95464  0.79713  0.81443  1.0000
  H   H805      1.0  0.89286  0.68279  0.90754  1.0000
  C   C1019     1.0  0.68081  0.85978  0.83082  1.0000
  C   C1020     1.0  0.91632  0.70098  0.79296  1.0000
  H   H806      1.0  0.97355  0.84787  0.87179  1.0000
  H   H807      1.0  0.61157  0.67284  0.91310  1.0000
  C   C1021     1.0  0.91681  0.85824  0.74920  1.0000
  C   C1022     1.0  0.91762  0.86269  0.72591  1.0000
  C   C1023     1.0  0.90071  0.88330  0.71585  1.0000
  C   C1024     1.0  0.88363  0.90036  0.72896  1.0000
  C   C1025     1.0  0.88369  0.89679  0.75229  1.0000
  C   C1026     1.0  0.89991  0.87545  0.76234  1.0000
  H   H808      1.0  0.93046  0.84948  0.71563  1.0000
  H   H809      1.0  0.90058  0.88574  0.69780  1.0000
  H   H810      1.0  0.87053  0.90973  0.76252  1.0000
  C   C1027     1.0  0.74252  0.83181  0.68261  1.0000
  C   C1028     1.0  0.64588  0.76886  0.92473  1.0000
  C   C1029     1.0  0.69048  0.85214  0.87040  1.0000
  P   P35       1.0  0.67036  0.83657  0.89838  1.0000
  H   H811      1.0  0.60603  0.59786  0.94371  1.0000
  C   C1030     1.0  0.70857  0.86398  0.91832  1.0000
  C   C1031     1.0  0.71615  0.90113  0.92504  1.0000
  C   C1032     1.0  0.74565  0.92209  0.94056  1.0000
  C   C1033     1.0  0.76745  0.90609  0.94968  1.0000
  C   C1034     1.0  0.76063  0.86949  0.94275  1.0000
  C   C1035     1.0  0.73166  0.84871  0.92691  1.0000
  C   C1036     1.0  0.89191  0.70307  0.87399  1.0000
  C   C1037     1.0  0.71297  0.85469  0.65478  1.0000
  H   H812      1.0  0.72079  0.57772  0.95043  1.0000
  H   H813      1.0  0.91210  0.72184  0.78302  1.0000
  C   C1038     1.0  0.87468  0.68454  0.89440  1.0000
  H   H814      1.0  0.63374  0.83146  0.85488  1.0000
  H   H815      1.0  0.78539  0.96911  0.85403  1.0000
  C   C1039     1.0  0.74659  0.88405  0.84492  1.0000
  H   H816      1.0  0.69898  0.91376  0.91867  1.0000
  H   H817      1.0  0.75034  0.95003  0.94632  1.0000
  H   H818      1.0  0.74102  0.97073  0.88325  1.0000
  H   H819      1.0  0.77727  0.85684  0.94992  1.0000
  H   H820      1.0  0.72703  0.82050  0.92166  1.0000
  H   H821      1.0  0.66141  0.85621  0.81705  1.0000
  Fe  Fe68      1.0  0.61305  0.98061  0.95809  1.0000
  C   C1040     1.0  0.82795  0.68784  0.86001  1.0000
  H   H822      1.0  0.75138  0.87553  0.88002  1.0000
  H   H823      1.0  0.94740  0.63489  0.78639  1.0000
  C   C1041     1.0  0.92750  0.64630  0.81751  1.0000
  H   H824      1.0  0.78453  0.73052  0.76636  1.0000
  H   H825      1.0  0.59702  0.53685  0.96101  1.0000
  H   H826      1.0  0.83593  0.79234  0.78296  1.0000
  C   C1042     1.0  0.96840  0.83367  0.85578  1.0000
  C   C1043     1.0  0.93149  0.77583  0.83304  1.0000
  C   C1044     1.0  0.62295  0.70396  0.91019  1.0000
  H   H827      1.0  0.72928  0.63908  0.93429  1.0000
  C   C1045     1.0  0.60112  0.88735  0.89361  1.0000
  H   H828      1.0  0.93285  0.62588  0.82715  1.0000
  H   H829      1.0  0.88068  0.79109  0.81110  1.0000
  H   H830      1.0  0.62676  0.71693  0.94535  1.0000
  H   H831      1.0  0.70716  0.79690  0.65550  1.0000
  C   C1046     1.0  0.64331  0.75948  0.88465  1.0000
  C   C1047     1.0  0.73111  0.89152  0.66484  1.0000
  C   C1048     1.0  0.66804  0.62195  0.93726  1.0000
  H   H832      1.0  0.53969  0.55523  0.96959  1.0000
  S   S139      1.0  0.67697  0.98955  0.88079  1.0000
  H   H833      1.0  0.62971  0.86426  0.96833  1.0000
  H   H834      1.0  0.74764  0.80904  0.68940  1.0000
  C   C1049     1.0  0.69522  0.58109  0.94887  1.0000
  C   C1050     1.0  0.70019  0.61605  0.93940  1.0000
  H   H835      1.0  0.82764  0.70567  0.95095  1.0000
  C   C1051     1.0  0.90871  0.69675  0.81614  1.0000
  C   C1052     1.0  0.62589  0.55830  0.95462  1.0000
  C   C1053     1.0  0.98002  0.90669  0.66243  1.0000
  H   H836      1.0  0.60230  0.91238  0.88494  1.0000
  C   C1054     1.0  0.84419  0.66224  0.95915  1.0000
  H   H837      1.0  0.64760  0.77069  0.86762  1.0000
  H   H838      1.0  0.78898  0.92172  0.96246  1.0000
  H   H839      1.0  0.94153  0.84891  0.64972  1.0000
  S   S140      1.0  0.96366  0.69225  0.94368  1.0000
  H   H840      1.0  0.77785  0.87377  0.70750  1.0000
  H   H841      1.0  0.59812  0.80000  0.92637  1.0000
  H   H842      1.0  0.78426  0.52495  0.95969  1.0000
  C   C1055     1.0  0.85829  0.76356  0.80440  1.0000
  C   C1056     1.0  0.75973  0.86837  0.69281  1.0000
  H   H843      1.0  0.82453  0.66506  0.80570  1.0000
  C   C1057     1.0  0.73861  0.97822  0.86610  1.0000
  H   H844      1.0  0.77812  0.89944  0.84197  1.0000
  H   H845      1.0  0.82070  0.65296  0.91341  1.0000
  C   C1058     1.0  0.93563  0.65129  0.79458  1.0000
  H   H846      1.0  0.95679  0.91390  0.66315  1.0000
  C   C1059     1.0  0.65788  0.55168  0.95638  1.0000
  H   H847      1.0  0.67223  0.64948  0.93043  1.0000
  H   H848      1.0  0.93656  0.68241  0.76456  1.0000
  H   H849      1.0  0.65673  0.89901  0.88038  1.0000
  H   H850      1.0  0.77941  0.65675  0.88319  1.0000
  H   H851      1.0  0.63442  0.78624  0.66145  1.0000
  C   C1060     1.0  0.66530  0.84602  0.85230  1.0000
  H   H852      1.0  0.62217  0.70002  0.87427  1.0000
  H   H853      1.0  0.73361  0.89074  0.81066  1.0000
  H   H854      1.0  0.72770  0.91521  0.65793  1.0000
  C   C1061     1.0  0.82032  0.67955  0.96080  1.0000
  C   C1062     1.0  0.97121  0.86978  0.65472  1.0000
  H   H855      1.0  0.65217  0.78751  0.93909  1.0000
  C   C1063     1.0  0.64651  0.88267  0.64836  1.0000
  H   H856      1.0  0.54470  0.81479  0.93117  1.0000
  C   C1064     1.0  0.62890  0.71932  0.88835  1.0000
  C   C1065     1.0  0.76349  0.97691  0.84936  1.0000
  H   H857      1.0  0.86957  0.67492  0.94809  1.0000
  C   C1066     1.0  0.83470  0.62808  0.97143  1.0000
  H   H858      1.0  0.61474  0.90846  0.66308  1.0000
  C   C1067     1.0  0.95852  0.98021  0.68070  1.0000
  C   C1068     1.0  0.62445  0.90170  0.64764  1.0000
  Fe  Fe69      1.0  0.98486  0.66859  0.91611  1.0000
  S   S141      1.0  0.86169  0.60315  0.96823  1.0000
  H   H859      1.0  0.90297  0.97893  0.68095  1.0000
  C   C1069     1.0  0.75404  0.50845  0.95402  1.0000
  S   S142      1.0  0.97565  0.75436  0.66925  1.0000
  C   C1070     1.0  0.75988  0.98484  0.82664  1.0000
  C   C1071     1.0  0.64504  0.85154  0.97697  1.0000
  Fe  Fe70      1.0  0.80570  0.99100  0.76813  1.0000
  H   H860      1.0  0.95101  0.96153  0.69555  1.0000
  H   H861      1.0  0.59981  0.79180  0.97111  1.0000
  C   C1072     1.0  0.71001  0.98819  0.86048  1.0000
  C   C1073     1.0  0.70688  0.99333  0.65210  1.0000
  C   C1074     1.0  0.72530  0.51521  0.96335  1.0000
  P   P36       1.0  0.65013  0.50529  0.96763  1.0000
  Fe  Fe71      1.0  0.99081  0.61012  0.94999  1.0000
  C   C1075     1.0  0.93104  0.98989  0.67244  1.0000
  Fe  Fe72      1.0  0.67205  0.99063  0.91937  1.0000
  C   C1076     1.0  0.68635  0.49491  0.95573  1.0000
  C   C1077     1.0  0.52049  0.52628  0.97661  1.0000
  S   S143      1.0  0.73975  0.99092  0.69270  1.0000
  H   H862      1.0  0.92224  0.75980  0.97214  1.0000
  C   C1078     1.0  0.78747  0.66375  0.97531  1.0000
  H   H863      1.0  0.73360  0.53675  0.97635  1.0000
  C   C1079     1.0  0.73888  0.99310  0.66271  1.0000
  H   H864      1.0  0.68393  0.99311  0.66226  1.0000
  S   S144      1.0  0.75918  0.68760  0.97685  1.0000
  C   C1080     1.0  0.62639  0.77467  0.64474  1.0000
