data_image0
_chemical_formula_structural       FeS2FeS2Fe2S3FeS2FeS2FeSFeS3FeS2FeS2FeSFeS3C4H2C2H4CHC4HC7H4CH2CH2C4HC2HCH3CPC7H4CH2CHC3H2C2H2C4PC2H4C5HC6PCH2C5H3CH7C6PC15H17CHPC18HCH2CH5C2H5C4H3C2HC3H4C2H2CH9CH3C3HC3HC2HC3HCH3C5H2C4HCHPC4HCH2C2H8CHCH6C3HC3H3CFeS2FeS2Fe2S3FeS2FeS2FeSFeS3FeS2FeS2FeHFeS3C4HC5H2CHCH2C9H4C4H2CHCH2C2HC2H3CHC6H5C6H9CH2C2H2C3HPCH2C3H3C6PC8HC9H5C2H4C2H7C6PC4HC6HC2HCHCH4C3PH2C2H2CHC2H2CHC6HC3PC4H2C4HC2H3CH2C2H2PH5C2H2C6HCHCH2CH3C6HCH5CH6C2HC3H2C4HC5HCHCHC2HC2HCHCH2C2HCH2C5HCHC2HC2H2CHSHCH2C3H3CH4C2HC4HFeS2FeS2FeSFeS3FeS2FeS2FeSFeS4C2HC6H4CHC3HCHC3H2C6H4C6H4CHCHCHCHC3H3CH2C3HC2HCH3CHC3HCHCH2CHC2HCH2C4H2C2HC2H2C3HPH3C3H3PH2CPC3HCHCH3C4H2CH2C3PCHC2HC11HC5HPCH4CH2CH3C3HCHCHCH7C5H2CHCHCHC2HC2HC2H2C4HCH2CHCH2FeS2FeS2FeSFeS3FeS2FeSCFeSFeS4C2HC6H9C2HCH2C8H4C6H4C2HC2HC2HCHC5HC8PC18H24C2PCHCH3SCHC4H2CH2CH2CHCHC7HPHCHCHCH2C3HCHC4HCH2C2H3C2H5CHC6HCPC2H10C2H3C2HCHC6FeS2FeSCFeSFeS3FeSCFeS2FeSFeS3FeS2FeS2FeSFeS3C3H3CHCH2C6H3C6H4CHC2H5C2PC6H6C4H2C2PC4HC6HCH4C2H2CH4CHC3PSC2HC3HSH2CH2CPC3HC2H2CH2C10HC2HCH2C2H2CH3CHCHC2H2CH2C2H2C6PC18H20C4HC2HC2H4C10H3CH4C2H7C2H2CH4CHCH2CHC2H4CPH4C4HPHC3H2CH2C4H2C4HC2HC5HCH4C6H2C3HC3HC2HC5HCFeS2FeS2FeHFeS3FeSCFeSCFeSFeS3FeS2FeS2FeSFeS3CHC2H2CH4C5HCHC7H4C5H2CH4C6H4C2H4CHC2H3C2H3C6PC18H20C4HC2H2CHCHSHC3H3CH2C4HC6PC18H20C6PC3H3C12H3CH2C2H6CH5SH2C2H2CPHC4HC2HCHCHCHCHC2HCSHCHC2H2C3PCH3C3HC2HCFeS2FeSFeSFeS3FeS2FeS2FeCFeS3FeS2FeS2FeSFeS3C2HC2HC2H3PCH2C6H4C3H2CH2CPC6H4C2H2C3H5C2HC2H6C3HC2H2CH3CH3CPC3H6C3HC2HC4HC2H3C3H4C3HCH4C3H2C7HC6PC12PHCPC3H6CH3CH2C3HC3HCHC2H2C2HCH7C2SHC2H2CHCHC2HC3HCHC3H2CHCH4C5HC2H2C2H3C2HC5HC3HC2H2C5H3CHC2HC2HCH2C2HC2H3CHC2HCHC5HFeS2FeSFeSFeS3FeS2FeS2FeCFeS3FeS2FeS2FeSFeS3HCH2C4H2C4HC6H4C2H2C4H2C6H4C3HC3H4CSH2C2HC8H8CH2CH2C6HC4H2C4H6C3HCH2C8H3CH2C2H3CH4C4H3CHC8HCHCPC2HC2H2CH2C3HCH3C2HC2H2C2HCH6CH2CH4C3HCH4CHC3H3C2HC2HPC8PHCHCH3CHC2H4CHCPC2H2C4H2C2H8C3HFeS2FeS2FeSFeS3FeS2CSCFeSFeSCS2C6HCH2C3HC2HCH2C6H4C6H4C3HCH4C2SCH2C2HCH6CHC3PC2H3CHC6HC2HC4H2C4H8CHC2HC2HC2H2C3HPCHC4PHCH3CHC5H2CHC5H3C6PC18H11CH8CPC2FeC7H4CH6C3H7C4HC2HCHC7PCH2C2HC2SCHCH5CHC3HCH4CHC2HC4H3C2H2CH3CH3C2HC2H2FeS2FeS2FeSFeS3FeS2CSHFeSFeS4C6HCH2C6HCH2C6H4C6H4C4H3CHC4HCHC4H2C2H3SC3H3CHC3HC2HC3HC3H2CHC3HCPH2CH2CH3C2H2CH2CHC2HC2HC6PC8H11C4PC4HC8H2CHC2H7CFeCH6CHC2H2CHC5H2CH2CH5C3HCHC3HC2HC2H4CPC2H4C3PCH3C2HC3H2C3H3C2H2C3HCH3CH2CH4C4HCH2C2H2CHC2HC6H3FeS2FeSCFeSFeS3FeSCFeSCFeSFeS3FeS2FeS2FeSFeS3C5H5C6H5C2HC4H3C2H2CHCHC6H4CH3C2H2CHC2PHCHC2H2CHCH2C6PC3HC14H6CSH12C6PC18H19C6PC18H2CH5CH12CH2C6HCSH2CH2C7HC6HCH2CHC2HC2H3CH2SCH3C2H4C3PCH3CHCH2CFeS2FeSCFeSFeS3FeSHFeSHFeSFeS3FeS2FeS2FeSFeS3C6H2CHC6H7CHC2H3CH2CHC3HC6H8CH2C4H2C2HC2H3C2H2C2HC2HC3HC3H11C3PC4HC4HCHCHCHC3HC2H4CH3CH3C4PHC3HCH2C2HCH4CHSH2C2H2C2HSC2HPC6HC3H5C6PC18H20CHC4PC4HC13HCH3CH7C2HC3SC5HC2
_chemical_formula_sum              "Fe128 S256 C1920 H1536 P64"
_cell_length_a       40.2465
_cell_length_b       81.2797
_cell_length_c       44.7925
_cell_angle_alpha    89.3412
_cell_angle_beta     86.7841
_cell_angle_gamma    89.9619

_space_group_name_H-M_alt    "P 1"
_space_group_IT_number       1

loop_
  _space_group_symop_operation_xyz
  'x, y, z'

loop_
  _atom_site_type_symbol
  _atom_site_label
  _atom_site_symmetry_multiplicity
  _atom_site_fract_x
  _atom_site_fract_y
  _atom_site_fract_z
  _atom_site_occupancy
  Fe  Fe1       1.0  0.11493  0.28431  0.35673  1.0000
  S   S1        1.0  0.13031  0.29603  0.31279  1.0000
  S   S2        1.0  0.06068  0.28133  0.37514  1.0000
  Fe  Fe2       1.0  0.18765  0.28078  0.37430  1.0000
  S   S3        1.0  0.20737  0.29285  0.33063  1.0000
  S   S4        1.0  0.22619  0.27361  0.40905  1.0000
  Fe  Fe3       1.0  0.16568  0.31135  0.33815  1.0000
  Fe  Fe4       1.0  0.17085  0.27682  0.30785  1.0000
  S   S5        1.0  0.17482  0.26391  0.26161  1.0000
  S   S6        1.0  0.14841  0.30046  0.38280  1.0000
  S   S7        1.0  0.15297  0.26385  0.35104  1.0000
  Fe  Fe5       1.0  0.29443  0.22144  0.12199  1.0000
  S   S8        1.0  0.31045  0.23432  0.07824  1.0000
  S   S9        1.0  0.28746  0.23547  0.16691  1.0000
  Fe  Fe6       1.0  0.30295  0.18676  0.09317  1.0000
  S   S10       1.0  0.31829  0.19762  0.04799  1.0000
  S   S11       1.0  0.30777  0.15953  0.10780  1.0000
  Fe  Fe7       1.0  0.35068  0.21486  0.07291  1.0000
  S   S12       1.0  0.40364  0.21957  0.05221  1.0000
  Fe  Fe8       1.0  0.27709  0.21635  0.05619  1.0000
  S   S13       1.0  0.23803  0.22230  0.02114  1.0000
  S   S14       1.0  0.33718  0.20333  0.11761  1.0000
  S   S15       1.0  0.25932  0.20416  0.10038  1.0000
  Fe  Fe9       1.0  0.28817  0.02967  0.10614  1.0000
  S   S16       1.0  0.33503  0.01864  0.08580  1.0000
  S   S17       1.0  0.25379  0.01544  0.13949  1.0000
  Fe  Fe10      1.0  0.29820  0.06237  0.07075  1.0000
  S   S18       1.0  0.34609  0.05334  0.04848  1.0000
  S   S19       1.0  0.27833  0.08766  0.05697  1.0000
  Fe  Fe11      1.0  0.31984  0.02925  0.04190  1.0000
  S   S20       1.0  0.33505  0.01624  0.99803  1.0000
  Fe  Fe12      1.0  0.35683  0.04341  0.09377  1.0000
  S   S21       1.0  0.40381  0.04477  0.11840  1.0000
  S   S22       1.0  0.27083  0.03875  0.06144  1.0000
  S   S23       1.0  0.31095  0.05400  0.11666  1.0000
  C   C1        1.0  0.43976  0.04897  0.09576  1.0000
  C   C2        1.0  0.43777  0.05494  0.06653  1.0000
  C   C3        1.0  0.46689  0.05747  0.04840  1.0000
  C   C4        1.0  0.47088  0.04583  0.10698  1.0000
  H   H1        1.0  0.41391  0.05753  0.05780  1.0000
  H   H2        1.0  0.47257  0.04113  0.12940  1.0000
  C   C5        1.0  0.18393  0.22207  0.09008  1.0000
  C   C6        1.0  0.25859  0.00423  0.17344  1.0000
  H   H3        1.0  0.48980  0.12913  0.02586  1.0000
  H   H4        1.0  0.25954  0.99131  0.04116  1.0000
  H   H5        1.0  0.10068  0.31432  0.26782  1.0000
  H   H6        1.0  0.31108  0.00797  0.17717  1.0000
  C   C7        1.0  0.05115  0.32008  0.25472  1.0000
  H   H7        1.0  0.48412  0.21088  0.13077  1.0000
  C   C8        1.0  0.22964  0.21070  0.41948  1.0000
  C   C9        1.0  0.28554  0.00648  0.44352  1.0000
  C   C10       1.0  0.46691  0.10375  0.06900  1.0000
  C   C11       1.0  0.07824  0.29351  0.24781  1.0000
  H   H8        1.0  0.46909  0.22027  0.02305  1.0000
  C   C12       1.0  0.07874  0.30975  0.25771  1.0000
  C   C13       1.0  0.29871  0.13972  0.09327  1.0000
  C   C14       1.0  0.28109  0.13762  0.06752  1.0000
  C   C15       1.0  0.27486  0.12163  0.05697  1.0000
  C   C16       1.0  0.28672  0.10752  0.07157  1.0000
  C   C17       1.0  0.30454  0.10962  0.09721  1.0000
  C   C18       1.0  0.30993  0.12557  0.10822  1.0000
  H   H9        1.0  0.27203  0.14831  0.05587  1.0000
  H   H10       1.0  0.26092  0.12020  0.03721  1.0000
  H   H11       1.0  0.31403  0.09898  0.10868  1.0000
  H   H12       1.0  0.32313  0.12697  0.12835  1.0000
  C   C19       1.0  0.44392  0.21704  0.06649  1.0000
  H   H13       1.0  0.43096  0.01490  0.24939  1.0000
  H   H14       1.0  0.26180  0.01238  0.44068  1.0000
  C   C20       1.0  0.44851  0.21421  0.09685  1.0000
  H   H15       1.0  0.00188  0.29340  0.21895  1.0000
  H   H16       1.0  0.42705  0.21346  0.11247  1.0000
  C   C21       1.0  0.02274  0.28470  0.35710  1.0000
  C   C22       1.0  0.33301  0.00161  0.47302  1.0000
  C   C23       1.0  0.02164  0.28591  0.32598  1.0000
  C   C24       1.0  0.38376  0.04043  0.45380  1.0000
  H   H17       1.0  0.04445  0.28505  0.31213  1.0000
  C   C25       1.0  0.23253  0.26105  0.44154  1.0000
  C   C26       1.0  0.20813  0.25042  0.45438  1.0000
  H   H18       1.0  0.40554  0.25058  0.09863  1.0000
  C   C27       1.0  0.47228  0.21814  0.04660  1.0000
  H   H19       1.0  0.39001  0.00249  0.02862  1.0000
  H   H20       1.0  0.09564  0.30883  0.14115  1.0000
  H   H21       1.0  0.18430  0.24957  0.44449  1.0000
  C   C28       1.0  0.44959  0.00498  0.07920  1.0000
  P   P1        1.0  0.47236  0.00851  0.19528  1.0000
  C   C29       1.0  0.27661  0.22853  0.40703  1.0000
  C   C30       1.0  0.20679  0.25606  0.23575  1.0000
  C   C31       1.0  0.24083  0.25846  0.23924  1.0000
  C   C32       1.0  0.26491  0.25215  0.21800  1.0000
  C   C33       1.0  0.25560  0.24328  0.19288  1.0000
  C   C34       1.0  0.22159  0.24087  0.18940  1.0000
  C   C35       1.0  0.19748  0.24723  0.21056  1.0000
  H   H22       1.0  0.24867  0.26519  0.25831  1.0000
  H   H23       1.0  0.29105  0.25413  0.22115  1.0000
  H   H24       1.0  0.21402  0.23390  0.17056  1.0000
  H   H25       1.0  0.17136  0.24515  0.20753  1.0000
  C   C36       1.0  0.14496  0.27130  0.05760  1.0000
  H   H26       1.0  0.21060  0.28966  0.99987  1.0000
  H   H27       1.0  0.43163  0.01510  0.14445  1.0000
  C   C37       1.0  0.05042  0.28758  0.23407  1.0000
  H   H28       1.0  0.47672  0.13621  0.10776  1.0000
  C   C38       1.0  0.21471  0.24072  0.47989  1.0000
  C   C39       1.0  0.38817  0.99989  0.15090  1.0000
  C   C40       1.0  0.18540  0.04647  0.28665  1.0000
  H   H29       1.0  0.27699  0.31169  0.11507  1.0000
  H   H30       1.0  0.15978  0.29058  0.20775  1.0000
  C   C41       1.0  0.36143  0.15989  0.38251  1.0000
  C   C42       1.0  0.16658  0.21582  0.11559  1.0000
  H   H31       1.0  0.07032  0.31608  0.36777  1.0000
  H   H32       1.0  0.37445  0.18145  0.48169  1.0000
  C   C43       1.0  0.15283  0.29126  0.18466  1.0000
  C   C44       1.0  0.17125  0.28255  0.16269  1.0000
  C   C45       1.0  0.16230  0.28303  0.13280  1.0000
  C   C46       1.0  0.13495  0.29261  0.12513  1.0000
  P   P2        1.0  0.18668  0.27152  0.10511  1.0000
  C   C47       1.0  0.17951  0.24970  0.11008  1.0000
  C   C48       1.0  0.17611  0.27614  0.06716  1.0000
  H   H33       1.0  0.46754  0.01360  0.08710  1.0000
  H   H34       1.0  0.16214  0.20270  0.11785  1.0000
  H   H35       1.0  0.28522  0.08022  0.98677  1.0000
  H   H36       1.0  0.42349  0.03544  0.19039  1.0000
  C   C49       1.0  0.19979  0.28279  0.04610  1.0000
  C   C50       1.0  0.16142  0.24337  0.13540  1.0000
  C   C51       1.0  0.15529  0.22647  0.13823  1.0000
  C   C52       1.0  0.44762  0.14503  0.02941  1.0000
  C   C53       1.0  0.47262  0.10147  0.12246  1.0000
  H   H37       1.0  0.17696  0.28608  0.45612  1.0000
  C   C54       1.0  0.22926  0.27722  0.11029  1.0000
  C   C55       1.0  0.23788  0.29397  0.11025  1.0000
  C   C56       1.0  0.27049  0.29876  0.11505  1.0000
  C   C57       1.0  0.29464  0.28687  0.12017  1.0000
  C   C58       1.0  0.28617  0.27021  0.12046  1.0000
  C   C59       1.0  0.25358  0.26534  0.11562  1.0000
  P   P3        1.0  0.31063  0.19059  0.45796  1.0000
  C   C60       1.0  0.26334  0.26187  0.45498  1.0000
  H   H38       1.0  0.33710  0.11045  0.00300  1.0000
  H   H39       1.0  0.19245  0.27531  0.16911  1.0000
  C   C61       1.0  0.12562  0.30076  0.17688  1.0000
  C   C62       1.0  0.24294  0.22479  0.40519  1.0000
  C   C63       1.0  0.02093  0.23983  0.31247  1.0000
  C   C64       1.0  0.01262  0.24433  0.36565  1.0000
  C   C65       1.0  0.43075  0.25533  0.09857  1.0000
  H   H40       1.0  0.22459  0.28589  0.05223  1.0000
  H   H41       1.0  0.15230  0.25131  0.15321  1.0000
  H   H42       1.0  0.14210  0.22161  0.15816  1.0000
  C   C66       1.0  0.42910  0.00969  0.05644  1.0000
  H   H43       1.0  0.44214  0.01123  0.40759  1.0000
  H   H44       1.0  0.44751  0.18432  0.05426  1.0000
  H   H45       1.0  0.21930  0.30331  0.10659  1.0000
  H   H46       1.0  0.12781  0.29342  0.10225  1.0000
  H   H47       1.0  0.31987  0.29051  0.12421  1.0000
  H   H48       1.0  0.30482  0.26103  0.12495  1.0000
  H   H49       1.0  0.24752  0.25235  0.11658  1.0000
  C   C67       1.0  0.24920  0.07993  0.14507  1.0000
  C   C68       1.0  0.22881  0.06867  0.13154  1.0000
  C   C69       1.0  0.21877  0.05429  0.14686  1.0000
  C   C70       1.0  0.22881  0.05122  0.17581  1.0000
  C   C71       1.0  0.24900  0.06256  0.18974  1.0000
  C   C72       1.0  0.25979  0.07678  0.17380  1.0000
  P   P4        1.0  0.26303  0.05829  0.22675  1.0000
  C   C73       1.0  0.23103  0.04719  0.24866  1.0000
  C   C74       1.0  0.30006  0.04570  0.22414  1.0000
  C   C75       1.0  0.32056  0.04565  0.19782  1.0000
  C   C76       1.0  0.34882  0.03564  0.19558  1.0000
  C   C77       1.0  0.35683  0.02565  0.21975  1.0000
  C   C78       1.0  0.33677  0.02576  0.24622  1.0000
  C   C79       1.0  0.30856  0.03580  0.24850  1.0000
  C   C80       1.0  0.22877  0.03000  0.24630  1.0000
  C   C81       1.0  0.20895  0.05538  0.26886  1.0000
  C   C82       1.0  0.27187  0.07753  0.24461  1.0000
  C   C83       1.0  0.30022  0.07923  0.26124  1.0000
  C   C84       1.0  0.30737  0.09432  0.27417  1.0000
  C   C85       1.0  0.28629  0.10780  0.27064  1.0000
  C   C86       1.0  0.25791  0.10617  0.25433  1.0000
  C   C87       1.0  0.25063  0.09110  0.24145  1.0000
  H   H50       1.0  0.25735  0.09093  0.13286  1.0000
  H   H51       1.0  0.22154  0.07091  0.10889  1.0000
  H   H52       1.0  0.20393  0.04524  0.13601  1.0000
  H   H53       1.0  0.22136  0.03978  0.18683  1.0000
  H   H54       1.0  0.27656  0.08543  0.18328  1.0000
  H   H55       1.0  0.31446  0.05315  0.17889  1.0000
  H   H56       1.0  0.36397  0.03531  0.17479  1.0000
  H   H57       1.0  0.37820  0.01762  0.21784  1.0000
  H   H58       1.0  0.34260  0.01775  0.26475  1.0000
  H   H59       1.0  0.29312  0.03560  0.26912  1.0000
  H   H60       1.0  0.24535  0.02337  0.23081  1.0000
  H   H61       1.0  0.20992  0.06857  0.27123  1.0000
  H   H62       1.0  0.31690  0.06898  0.26428  1.0000
  H   H63       1.0  0.32927  0.09556  0.28698  1.0000
  H   H64       1.0  0.29187  0.11950  0.28061  1.0000
  H   H65       1.0  0.24155  0.11662  0.25157  1.0000
  H   H66       1.0  0.22852  0.09005  0.22884  1.0000
  C   C88       1.0  0.45378  0.10622  0.09832  1.0000
  H   H67       1.0  0.20456  0.00782  0.26288  1.0000
  P   P5        1.0  0.41471  0.11692  0.10520  1.0000
  C   C89       1.0  0.42304  0.13828  0.11369  1.0000
  C   C90       1.0  0.39020  0.11507  0.07254  1.0000
  C   C91       1.0  0.37537  0.12890  0.05957  1.0000
  C   C92       1.0  0.35675  0.12725  0.03435  1.0000
  C   C93       1.0  0.35263  0.11181  0.02179  1.0000
  C   C94       1.0  0.36750  0.09803  0.03421  1.0000
  C   C95       1.0  0.38613  0.09960  0.05945  1.0000
  C   C96       1.0  0.39679  0.14926  0.12049  1.0000
  C   C97       1.0  0.40319  0.16570  0.12682  1.0000
  C   C98       1.0  0.43592  0.17137  0.12674  1.0000
  C   C99       1.0  0.02380  0.31423  0.23980  1.0000
  C   C100      1.0  0.45591  0.14417  0.11340  1.0000
  C   C101      1.0  0.39216  0.10628  0.13591  1.0000
  C   C102      1.0  0.37791  0.11481  0.16061  1.0000
  C   C103      1.0  0.35951  0.10639  0.18342  1.0000
  C   C104      1.0  0.35567  0.08935  0.18212  1.0000
  C   C105      1.0  0.37053  0.08071  0.15816  1.0000
  C   C106      1.0  0.38883  0.08908  0.13529  1.0000
  H   H68       1.0  0.43083  0.13580  0.02169  1.0000
  C   C107      1.0  0.46051  0.00894  0.28642  1.0000
  H   H69       1.0  0.37751  0.14102  0.06873  1.0000
  H   H70       1.0  0.48302  0.03926  0.39063  1.0000
  C   C108      1.0  0.48096  0.21279  0.10716  1.0000
  H   H71       1.0  0.36389  0.08605  0.02462  1.0000
  H   H72       1.0  0.39744  0.08871  0.06850  1.0000
  H   H73       1.0  0.37120  0.14517  0.12067  1.0000
  H   H74       1.0  0.38258  0.17406  0.13161  1.0000
  H   H75       1.0  0.44081  0.18413  0.13162  1.0000
  C   C109      1.0  0.41865  0.00620  0.15903  1.0000
  C   C110      1.0  0.45714  0.17241  0.04753  1.0000
  H   H76       1.0  0.38057  0.12794  0.16255  1.0000
  H   H77       1.0  0.34806  0.11313  0.20201  1.0000
  H   H78       1.0  0.34133  0.08283  0.19968  1.0000
  H   H79       1.0  0.36789  0.06747  0.15714  1.0000
  H   H80       1.0  0.40047  0.08200  0.11727  1.0000
  C   C111      1.0  0.49118  0.00322  0.29535  1.0000
  C   C112      1.0  0.03338  0.24450  0.33959  1.0000
  C   C113      1.0  0.47640  0.03043  0.18958  1.0000
  C   C114      1.0  0.44824  0.04060  0.18875  1.0000
  H   H81       1.0  0.19266  0.21384  0.07243  1.0000
  H   H82       1.0  0.40137  0.17752  0.38291  1.0000
  H   H83       1.0  0.43094  0.02200  0.04695  1.0000
  C   C115      1.0  0.40601  0.99859  0.04604  1.0000
  C   C116      1.0  0.30239  0.00942  0.46969  1.0000
  H   H84       1.0  0.30560  0.05157  0.99142  1.0000
  C   C117      1.0  0.45191  0.05762  0.18505  1.0000
  C   C118      1.0  0.44923  0.25750  0.07149  1.0000
  C   C119      1.0  0.16097  0.28015  0.00699  1.0000
  H   H85       1.0  0.46320  0.10352  0.14523  1.0000
  H   H86       1.0  0.28663  0.23961  0.39624  1.0000
  H   H87       1.0  0.43817  0.25446  0.05072  1.0000
  H   H88       1.0  0.16588  0.02241  0.29853  1.0000
  C   C120      1.0  0.99259  0.28545  0.37462  1.0000
  C   C121      1.0  0.48367  0.06463  0.18284  1.0000
  H   H89       1.0  0.42600  0.04646  0.47850  1.0000
  H   H90       1.0  0.48768  0.16511  0.11964  1.0000
  C   C122      1.0  0.41740  0.03948  0.46004  1.0000
  H   H91       1.0  0.02239  0.24821  0.38652  1.0000
  H   H92       1.0  0.05903  0.24851  0.34042  1.0000
  H   H93       1.0  0.43057  0.25721  0.14644  1.0000
  H   H94       1.0  0.26439  0.00756  0.99210  1.0000
  H   H95       1.0  0.37771  0.00414  0.13043  1.0000
  H   H96       1.0  0.03713  0.23999  0.29232  1.0000
  H   H97       1.0  0.45319  0.10742  0.04997  1.0000
  H   H98       1.0  0.40924  0.16341  0.03638  1.0000
  H   H99       1.0  0.43012  0.06533  0.18337  1.0000
  C   C123      1.0  0.31485  0.16459  0.41803  1.0000
  H   H100      1.0  0.27087  0.25233  0.99500  1.0000
  H   H101      1.0  0.05329  0.31546  0.31596  1.0000
  H   H102      1.0  0.29028  0.16110  0.42707  1.0000
  C   C124      1.0  0.24752  0.25066  0.98460  1.0000
  C   C125      1.0  0.43223  0.00103  0.18573  1.0000
  C   C126      1.0  0.43547  0.16054  0.03755  1.0000
  H   H103      1.0  0.20347  0.20791  0.41812  1.0000
  C   C127      1.0  0.19209  0.28487  0.01622  1.0000
  C   C128      1.0  0.46230  0.16061  0.12009  1.0000
  C   C129      1.0  0.45460  0.01015  0.25601  1.0000
  H   H104      1.0  0.12685  0.26551  0.07315  1.0000
  C   C130      1.0  0.19067  0.23890  0.08743  1.0000
  C   C131      1.0  0.02336  0.29798  0.22981  1.0000
  H   H105      1.0  0.34511  0.03137  0.42694  1.0000
  C   C132      1.0  0.28375  0.20419  0.43813  1.0000
  C   C133      1.0  0.24999  0.20035  0.43570  1.0000
  C   C134      1.0  0.29705  0.21820  0.42318  1.0000
  H   H106      1.0  0.31912  0.15644  0.47912  1.0000
  C   C135      1.0  0.39272  0.02064  0.41429  1.0000
  H   H107      1.0  0.28242  0.27006  0.44550  1.0000
  H   H108      1.0  0.22708  0.23301  0.39307  1.0000
  H   H109      1.0  0.37315  0.15278  0.36452  1.0000
  C   C136      1.0  0.33107  0.17833  0.42910  1.0000
  C   C137      1.0  0.36217  0.18307  0.41602  1.0000
  C   C138      1.0  0.22995  0.99700  0.18701  1.0000
  C   C139      1.0  0.33013  0.15532  0.39499  1.0000
  C   C140      1.0  0.20548  0.02113  0.26433  1.0000
  H   H110      1.0  0.32315  0.22123  0.42414  1.0000
  H   H111      1.0  0.04997  0.27495  0.22660  1.0000
  C   C141      1.0  0.44498  0.25894  0.12548  1.0000
  C   C142      1.0  0.28889  0.00234  0.18734  1.0000
  C   C143      1.0  0.37737  0.17380  0.39294  1.0000
  C   C144      1.0  0.13740  0.27337  0.02767  1.0000
  H   H112      1.0  0.37451  0.19403  0.42333  1.0000
  C   C145      1.0  0.48216  0.26299  0.07124  1.0000
  H   H113      1.0  0.34447  0.13791  0.02527  1.0000
  P   P6        1.0  0.48219  0.02692  0.45214  1.0000
  C   C146      1.0  0.43910  0.02919  0.44315  1.0000
  C   C147      1.0  0.47786  0.26456  0.12531  1.0000
  C   C148      1.0  0.42638  0.01969  0.42032  1.0000
  C   C149      1.0  0.37144  0.03103  0.43099  1.0000
  H   H114      1.0  0.09948  0.28552  0.25087  1.0000
  C   C150      1.0  0.22711  0.23727  0.99335  1.0000
  H   H115      1.0  0.44125  0.01231  0.30310  1.0000
  H   H116      1.0  0.36685  0.04811  0.46718  1.0000
  C   C151      1.0  0.29907  0.99600  0.42092  1.0000
  C   C152      1.0  0.48453  0.01079  0.48007  1.0000
  H   H117      1.0  0.46537  0.06204  0.02574  1.0000
  H   H118      1.0  0.20642  0.99832  0.17665  1.0000
  H   H119      1.0  0.31753  0.14468  0.38664  1.0000
  H   H120      1.0  0.20451  0.24347  0.06757  1.0000
  H   H121      1.0  0.43665  0.99983  0.47213  1.0000
  H   H122      1.0  0.48850  0.26738  0.14633  1.0000
  H   H123      1.0  0.38277  0.01291  0.39731  1.0000
  H   H124      1.0  0.16857  0.05282  0.30235  1.0000
  C   C153      1.0  0.18379  0.02935  0.28449  1.0000
  H   H125      1.0  0.00288  0.32208  0.23561  1.0000
  C   C154      1.0  0.29013  0.99332  0.21472  1.0000
  H   H126      1.0  0.12899  0.30440  0.46812  1.0000
  H   H127      1.0  0.23930  0.18939  0.44625  1.0000
  H   H128      1.0  0.31333  0.99210  0.22560  1.0000
  H   H129      1.0  0.99308  0.28444  0.39869  1.0000
  H   H130      1.0  0.11155  0.30763  0.19389  1.0000
  H   H131      1.0  0.11359  0.26936  0.02026  1.0000
  C   C155      1.0  0.48138  0.14137  0.03135  1.0000
  C   C156      1.0  0.34047  0.20195  0.47816  1.0000
  C   C157      1.0  0.11670  0.30144  0.14715  1.0000
  H   H132      1.0  0.48648  0.07779  0.17981  1.0000
  C   C158      1.0  0.47910  0.00526  0.23436  1.0000
  C   C159      1.0  0.17195  0.29024  0.47888  1.0000
  C   C160      1.0  0.26985  0.25222  0.48051  1.0000
  H   H133      1.0  0.28575  0.99396  0.40098  1.0000
  H   H134      1.0  0.18068  0.22525  0.98573  1.0000
  H   H135      1.0  0.15551  0.28139  0.98360  1.0000
  C   C161      1.0  0.49102  0.16889  0.04911  1.0000
  Fe  Fe13      1.0  0.09420  0.28004  0.85153  1.0000
  S   S24       1.0  0.11607  0.28948  0.80753  1.0000
  S   S25       1.0  0.03911  0.27334  0.86189  1.0000
  Fe  Fe14      1.0  0.16307  0.27963  0.88007  1.0000
  S   S26       1.0  0.18874  0.28993  0.83726  1.0000
  S   S27       1.0  0.19613  0.27510  0.92057  1.0000
  Fe  Fe15      1.0  0.14456  0.30714  0.83531  1.0000
  Fe  Fe16      1.0  0.15865  0.27166  0.81259  1.0000
  S   S28       1.0  0.17578  0.25263  0.77657  1.0000
  S   S29       1.0  0.12098  0.29827  0.87937  1.0000
  S   S30       1.0  0.13454  0.26085  0.85525  1.0000
  Fe  Fe17      1.0  0.29630  0.22303  0.62911  1.0000
  S   S31       1.0  0.32441  0.23315  0.58747  1.0000
  S   S32       1.0  0.28463  0.24159  0.66724  1.0000
  Fe  Fe18      1.0  0.29412  0.18802  0.60192  1.0000
  S   S33       1.0  0.31973  0.19624  0.55865  1.0000
  S   S34       1.0  0.27632  0.16170  0.61275  1.0000
  Fe  Fe19      1.0  0.35491  0.20963  0.58777  1.0000
  S   S35       1.0  0.41007  0.20190  0.58206  1.0000
  Fe  Fe20      1.0  0.28733  0.21908  0.56140  1.0000
  S   S36       1.0  0.25253  0.22871  0.52532  1.0000
  S   S37       1.0  0.32965  0.20070  0.63118  1.0000
  S   S38       1.0  0.25878  0.20965  0.60308  1.0000
  Fe  Fe21      1.0  0.31191  0.03400  0.60784  1.0000
  S   S39       1.0  0.33416  0.01715  0.57227  1.0000
  S   S40       1.0  0.29733  0.02836  0.65749  1.0000
  Fe  Fe22      1.0  0.32628  0.06577  0.56950  1.0000
  S   S41       1.0  0.34920  0.05093  0.53147  1.0000
  S   S42       1.0  0.33588  0.09355  0.56247  1.0000
  Fe  Fe23      1.0  0.30772  0.03280  0.53918  1.0000
  H   H136      1.0  0.20443  0.23567  0.90190  1.0000
  Fe  Fe24      1.0  0.37403  0.03635  0.56618  1.0000
  S   S43       1.0  0.42713  0.02941  0.55511  1.0000
  S   S44       1.0  0.28188  0.04869  0.57515  1.0000
  S   S45       1.0  0.35451  0.05206  0.60371  1.0000
  C   C162      1.0  0.45683  0.03833  0.57700  1.0000
  C   C163      1.0  0.44813  0.04979  0.59922  1.0000
  C   C164      1.0  0.19685  0.23546  0.97927  1.0000
  C   C165      1.0  0.33192  0.99878  0.94621  1.0000
  H   H137      1.0  0.42279  0.05386  0.60248  1.0000
  C   C166      1.0  0.46343  0.99980  0.77768  1.0000
  C   C167      1.0  0.15950  0.30113  0.53748  1.0000
  C   C168      1.0  0.29639  0.01009  0.68019  1.0000
  C   C169      1.0  0.29898  0.01150  0.71132  1.0000
  C   C170      1.0  0.47227  0.05556  0.61796  1.0000
  H   H138      1.0  0.35852  0.00072  0.94422  1.0000
  H   H139      1.0  0.30277  0.02351  0.72070  1.0000
  C   C171      1.0  0.19442  0.22901  0.88370  1.0000
  H   H140      1.0  0.47216  0.15720  0.66206  1.0000
  C   C172      1.0  0.47418  0.22631  0.66724  1.0000
  H   H141      1.0  0.09312  0.29862  0.61548  1.0000
  H   H142      1.0  0.07509  0.27684  0.58150  1.0000
  C   C173      1.0  0.27823  0.18637  0.93724  1.0000
  C   C174      1.0  0.29786  0.02674  0.84128  1.0000
  C   C175      1.0  0.27116  0.20268  0.94475  1.0000
  C   C176      1.0  0.29328  0.14289  0.59844  1.0000
  C   C177      1.0  0.31983  0.14252  0.57690  1.0000
  C   C178      1.0  0.33223  0.12732  0.56604  1.0000
  C   C179      1.0  0.31849  0.11227  0.57668  1.0000
  C   C180      1.0  0.29202  0.11263  0.59829  1.0000
  C   C181      1.0  0.27949  0.12784  0.60901  1.0000
  H   H143      1.0  0.33081  0.15395  0.56859  1.0000
  H   H144      1.0  0.35284  0.12721  0.54947  1.0000
  H   H145      1.0  0.28109  0.10120  0.60664  1.0000
  H   H146      1.0  0.25888  0.12795  0.62558  1.0000
  C   C182      1.0  0.45019  0.21130  0.57853  1.0000
  C   C183      1.0  0.45473  0.22836  0.57697  1.0000
  C   C184      1.0  0.20230  0.21421  0.83725  1.0000
  C   C185      1.0  0.48461  0.16720  0.52762  1.0000
  H   H147      1.0  0.43331  0.23641  0.57811  1.0000
  H   H148      1.0  0.44099  0.00458  0.91291  1.0000
  C   C186      1.0  0.00154  0.27918  0.84502  1.0000
  H   H149      1.0  0.17719  0.25716  0.53395  1.0000
  C   C187      1.0  0.46935  0.01084  0.80051  1.0000
  H   H150      1.0  0.10720  0.29155  0.66695  1.0000
  H   H151      1.0  0.02448  0.29444  0.81014  1.0000
  C   C188      1.0  0.20751  0.26007  0.94813  1.0000
  C   C189      1.0  0.18701  0.24677  0.95710  1.0000
  H   H152      1.0  0.18042  0.26439  0.67965  1.0000
  C   C190      1.0  0.18756  0.23236  0.59407  1.0000
  C   C191      1.0  0.13867  0.30601  0.51497  1.0000
  H   H153      1.0  0.39606  0.05914  0.86296  1.0000
  H   H154      1.0  0.16339  0.24526  0.94714  1.0000
  H   H155      1.0  0.43890  0.12749  0.51553  1.0000
  C   C192      1.0  0.19680  0.28641  0.69993  1.0000
  H   H156      1.0  0.05555  0.26010  0.80148  1.0000
  C   C193      1.0  0.20761  0.24958  0.74740  1.0000
  C   C194      1.0  0.23325  0.26090  0.74065  1.0000
  C   C195      1.0  0.25653  0.25819  0.71624  1.0000
  C   C196      1.0  0.25482  0.24411  0.69823  1.0000
  C   C197      1.0  0.22986  0.23255  0.70561  1.0000
  C   C198      1.0  0.20673  0.23524  0.73008  1.0000
  H   H157      1.0  0.23476  0.27189  0.75389  1.0000
  H   H158      1.0  0.27592  0.26717  0.71116  1.0000
  H   H159      1.0  0.22847  0.22148  0.69259  1.0000
  H   H160      1.0  0.18786  0.22612  0.73565  1.0000
  H   H161      1.0  0.28447  0.09358  0.93662  1.0000
  C   C199      1.0  0.28247  0.22146  0.82795  1.0000
  C   C200      1.0  0.27312  0.02604  0.89188  1.0000
  C   C201      1.0  0.47207  0.04380  0.73467  1.0000
  C   C202      1.0  0.48992  0.11491  0.60081  1.0000
  C   C203      1.0  0.48988  0.03325  0.57274  1.0000
  C   C204      1.0  0.30142  0.24701  0.89026  1.0000
  H   H162      1.0  0.24468  0.15271  0.55111  1.0000
  H   H163      1.0  0.47099  0.17700  0.51711  1.0000
  H   H164      1.0  0.27518  0.18945  0.86167  1.0000
  H   H165      1.0  0.33248  0.21667  0.75162  1.0000
  H   H166      1.0  0.29763  0.99896  0.75437  1.0000
  H   H167      1.0  0.15435  0.30557  0.55992  1.0000
  H   H168      1.0  0.27259  0.01254  0.80905  1.0000
  H   H169      1.0  0.27920  0.23190  0.75420  1.0000
  H   H170      1.0  0.14383  0.23109  0.90155  1.0000
  C   C205      1.0  0.23221  0.32183  0.61717  1.0000
  H   H171      1.0  0.34764  0.28427  0.50851  1.0000
  H   H172      1.0  0.47541  0.18790  0.57870  1.0000
  C   C206      1.0  0.08119  0.27370  0.60415  1.0000
  C   C207      1.0  0.26878  0.20987  0.89205  1.0000
  H   H173      1.0  0.18261  0.21984  0.60153  1.0000
  H   H174      1.0  0.31729  0.03058  0.82504  1.0000
  C   C208      1.0  0.38461  0.21875  0.51344  1.0000
  C   C209      1.0  0.27489  0.19336  0.88470  1.0000
  C   C210      1.0  0.25418  0.25894  0.86665  1.0000
  H   H175      1.0  0.46774  0.22669  0.78293  1.0000
  P   P7        1.0  0.26010  0.22481  0.86339  1.0000
  C   C211      1.0  0.25636  0.15968  0.53256  1.0000
  H   H176      1.0  0.47220  0.04190  0.51076  1.0000
  H   H177      1.0  0.35157  0.01094  0.86666  1.0000
  C   C212      1.0  0.48475  0.14155  0.55623  1.0000
  C   C213      1.0  0.44643  0.25280  0.66321  1.0000
  C   C214      1.0  0.18527  0.29679  0.61238  1.0000
  H   H178      1.0  0.44633  0.26600  0.66626  1.0000
  H   H179      1.0  0.39796  0.25236  0.64492  1.0000
  H   H180      1.0  0.40131  0.17166  0.62708  1.0000
  C   C215      1.0  0.38905  0.02831  0.79751  1.0000
  C   C216      1.0  0.37459  0.01284  0.79483  1.0000
  C   C217      1.0  0.37015  0.00642  0.76659  1.0000
  C   C218      1.0  0.38085  0.01526  0.74087  1.0000
  C   C219      1.0  0.39611  0.03069  0.74332  1.0000
  C   C220      1.0  0.39959  0.03727  0.77188  1.0000
  P   P8        1.0  0.40985  0.04252  0.71048  1.0000
  C   C221      1.0  0.44918  0.05209  0.71732  1.0000
  C   C222      1.0  0.41529  0.02945  0.67829  1.0000
  C   C223      1.0  0.44705  0.02547  0.66584  1.0000
  C   C224      1.0  0.45033  0.01597  0.63998  1.0000
  C   C225      1.0  0.42205  0.01060  0.62620  1.0000
  C   C226      1.0  0.39045  0.01454  0.63850  1.0000
  C   C227      1.0  0.38713  0.02389  0.66441  1.0000
  C   C228      1.0  0.12819  0.21151  0.71995  1.0000
  H   H181      1.0  0.39852  0.22225  0.63726  1.0000
  C   C229      1.0  0.48831  0.07473  0.71021  1.0000
  C   C230      1.0  0.39691  0.00632  0.88796  1.0000
  C   C231      1.0  0.35545  0.22643  0.50503  1.0000
  C   C232      1.0  0.37877  0.05769  0.70187  1.0000
  C   C233      1.0  0.35200  0.06117  0.72234  1.0000
  C   C234      1.0  0.32732  0.07236  0.71470  1.0000
  C   C235      1.0  0.32921  0.08018  0.68670  1.0000
  C   C236      1.0  0.35577  0.07684  0.66628  1.0000
  C   C237      1.0  0.38028  0.06553  0.67368  1.0000
  H   H182      1.0  0.39240  0.03320  0.81949  1.0000
  H   H183      1.0  0.36701  0.00570  0.81460  1.0000
  H   H184      1.0  0.25958  0.22681  0.92879  1.0000
  H   H185      1.0  0.37704  0.00994  0.71932  1.0000
  H   H186      1.0  0.41061  0.04929  0.77429  1.0000
  C   C238      1.0  0.18470  0.25355  0.55588  1.0000
  C   C239      1.0  0.41919  0.24515  0.65120  1.0000
  H   H187      1.0  0.27321  0.02916  0.91530  1.0000
  H   H188      1.0  0.36838  0.01056  0.62782  1.0000
  H   H189      1.0  0.36251  0.02704  0.67345  1.0000
  H   H190      1.0  0.44103  0.07407  0.69080  1.0000
  C   C240      1.0  0.18887  0.29907  0.71991  1.0000
  C   C241      1.0  0.33329  0.21799  0.48777  1.0000
  H   H191      1.0  0.31625  0.23646  0.89611  1.0000
  H   H192      1.0  0.16282  0.30608  0.65368  1.0000
  H   H193      1.0  0.34947  0.05497  0.74382  1.0000
  H   H194      1.0  0.30617  0.07463  0.73012  1.0000
  H   H195      1.0  0.30966  0.08852  0.68046  1.0000
  H   H196      1.0  0.35668  0.08259  0.64425  1.0000
  H   H197      1.0  0.39999  0.06260  0.65711  1.0000
  C   C242      1.0  0.38725  0.07401  0.82438  1.0000
  C   C243      1.0  0.36373  0.07990  0.80509  1.0000
  C   C244      1.0  0.33028  0.07553  0.80996  1.0000
  C   C245      1.0  0.32038  0.06512  0.83391  1.0000
  C   C246      1.0  0.34403  0.05871  0.85283  1.0000
  C   C247      1.0  0.37745  0.06353  0.84828  1.0000
  P   P9        1.0  0.33116  0.04481  0.88314  1.0000
  C   C248      1.0  0.28862  0.22661  0.77436  1.0000
  C   C249      1.0  0.36592  0.03196  0.89252  1.0000
  C   C250      1.0  0.36978  0.01607  0.88077  1.0000
  C   C251      1.0  0.48490  0.22108  0.73775  1.0000
  H   H198      1.0  0.24983  0.30535  0.51404  1.0000
  C   C252      1.0  0.41647  0.02798  0.91910  1.0000
  C   C253      1.0  0.38950  0.03782  0.91181  1.0000
  C   C254      1.0  0.13317  0.28806  0.72798  1.0000
  C   C255      1.0  0.25663  0.28417  0.54294  1.0000
  C   C256      1.0  0.27970  0.27246  0.55225  1.0000
  C   C257      1.0  0.29965  0.29606  0.50896  1.0000
  H   H199      1.0  0.27256  0.26303  0.56859  1.0000
  C   C258      1.0  0.31681  0.05630  0.91574  1.0000
  C   C259      1.0  0.30498  0.07250  0.91311  1.0000
  H   H200      1.0  0.44938  0.15920  0.59989  1.0000
  C   C260      1.0  0.20629  0.32000  0.63906  1.0000
  H   H201      1.0  0.29999  0.28861  0.89820  1.0000
  C   C261      1.0  0.31695  0.04891  0.94418  1.0000
  H   H202      1.0  0.41311  0.07760  0.82086  1.0000
  H   H203      1.0  0.37132  0.08799  0.78653  1.0000
  H   H204      1.0  0.31192  0.08026  0.79526  1.0000
  H   H205      1.0  0.29427  0.06198  0.83752  1.0000
  C   C262      1.0  0.27903  0.00255  0.97337  1.0000
  C   C263      1.0  0.31246  0.27262  0.54003  1.0000
  C   C264      1.0  0.00129  0.28948  0.81976  1.0000
  P   P10       1.0  0.46189  0.12552  0.57707  1.0000
  H   H206      1.0  0.47285  0.23176  0.72867  1.0000
  H   H207      1.0  0.38684  0.04992  0.92153  1.0000
  C   C265      1.0  0.24653  0.17587  0.52715  1.0000
  C   C266      1.0  0.21575  0.22303  0.86053  1.0000
  H   H208      1.0  0.32562  0.03641  0.94668  1.0000
  H   H209      1.0  0.10100  0.23120  0.74074  1.0000
  C   C267      1.0  0.09951  0.28188  0.65241  1.0000
  H   H210      1.0  0.30420  0.07848  0.89148  1.0000
  C   C268      1.0  0.31345  0.00518  0.97098  1.0000
  C   C269      1.0  0.44682  0.21877  0.65481  1.0000
  H   H211      1.0  0.26904  0.20626  0.96806  1.0000
  H   H212      1.0  0.15753  0.20561  0.81828  1.0000
  C   C270      1.0  0.16788  0.21198  0.83672  1.0000
  H   H213      1.0  0.46544  0.06410  0.63559  1.0000
  C   C271      1.0  0.41941  0.22816  0.64705  1.0000
  C   C272      1.0  0.27258  0.01649  0.83209  1.0000
  C   C273      1.0  0.16015  0.22631  0.88363  1.0000
  C   C274      1.0  0.31874  0.21805  0.77296  1.0000
  C   C275      1.0  0.05174  0.26052  0.77768  1.0000
  C   C276      1.0  0.01946  0.26093  0.76776  1.0000
  H   H214      1.0  0.24976  0.28530  0.86956  1.0000
  C   C277      1.0  0.04180  0.26152  0.71636  1.0000
  C   C278      1.0  0.07436  0.26111  0.72617  1.0000
  C   C279      1.0  0.07909  0.26056  0.75701  1.0000
  P   P11       1.0  0.10992  0.26006  0.69968  1.0000
  C   C280      1.0  0.12632  0.23926  0.69897  1.0000
  C   C281      1.0  0.09768  0.26547  0.66258  1.0000
  C   C282      1.0  0.29828  0.16187  0.49172  1.0000
  C   C283      1.0  0.29817  0.03173  0.87124  1.0000
  H   H215      1.0  0.49040  0.24827  0.57315  1.0000
  H   H216      1.0  0.21817  0.20897  0.81955  1.0000
  C   C284      1.0  0.47377  0.24344  0.67128  1.0000
  C   C285      1.0  0.14733  0.23411  0.67474  1.0000
  C   C286      1.0  0.15881  0.21786  0.67330  1.0000
  C   C287      1.0  0.14920  0.20656  0.69585  1.0000
  H   H217      1.0  0.99829  0.26076  0.78388  1.0000
  C   C288      1.0  0.11691  0.22778  0.72162  1.0000
  C   C289      1.0  0.14128  0.27490  0.70877  1.0000
  H   H218      1.0  0.20750  0.30810  0.72491  1.0000
  H   H219      1.0  0.46929  0.03017  0.67516  1.0000
  H   H220      1.0  0.24784  0.23562  0.80245  1.0000
  C   C290      1.0  0.29612  0.99757  0.73052  1.0000
  H   H221      1.0  0.25391  0.27213  0.95577  1.0000
  H   H222      1.0  0.47395  0.12783  0.64113  1.0000
  C   C291      1.0  0.27993  0.18168  0.90724  1.0000
  C   C292      1.0  0.41525  0.08743  0.51597  1.0000
  H   H223      1.0  0.10397  0.25993  0.76511  1.0000
  H   H224      1.0  0.12011  0.21636  0.85950  1.0000
  P   P12       1.0  0.21448  0.28453  0.55926  1.0000
  H   H225      1.0  0.47477  0.01338  0.62976  1.0000
  H   H226      1.0  0.43870  0.99483  0.77633  1.0000
  H   H227      1.0  0.34635  0.00372  0.49293  1.0000
  H   H228      1.0  0.15460  0.24260  0.65683  1.0000
  H   H229      1.0  0.15838  0.19403  0.69482  1.0000
  C   C293      1.0  0.45767  0.06756  0.70490  1.0000
  C   C294      1.0  0.26444  0.27461  0.87491  1.0000
  H   H230      1.0  0.10855  0.28923  0.73867  1.0000
  H   H231      1.0  0.22160  0.28566  0.68927  1.0000
  C   C295      1.0  0.27237  0.24502  0.87469  1.0000
  C   C296      1.0  0.42444  0.08278  0.54443  1.0000
  C   C297      1.0  0.19274  0.28534  0.50131  1.0000
  C   C298      1.0  0.43550  0.11505  0.52383  1.0000
  C   C299      1.0  0.44496  0.11049  0.55248  1.0000
  C   C300      1.0  0.43899  0.09425  0.56272  1.0000
  H   H232      1.0  0.43419  0.03245  0.93447  1.0000
  C   C301      1.0  0.29374  0.08112  0.93866  1.0000
  H   H233      1.0  0.28178  0.17735  0.95479  1.0000
  C   C302      1.0  0.29410  0.07363  0.96692  1.0000
  H   H234      1.0  0.16699  0.28710  0.61089  1.0000
  H   H235      1.0  0.41339  0.19647  0.51247  1.0000
  C   C303      1.0  0.24773  0.01094  0.85278  1.0000
  H   H236      1.0  0.28860  0.99316  0.64473  1.0000
  H   H237      1.0  0.46652  0.03163  0.74369  1.0000
  H   H238      1.0  0.35846  0.99451  0.76470  1.0000
  C   C304      1.0  0.42800  0.13462  0.59952  1.0000
  C   C305      1.0  0.40059  0.12498  0.60966  1.0000
  C   C306      1.0  0.37396  0.13208  0.62631  1.0000
  C   C307      1.0  0.37410  0.14890  0.63243  1.0000
  C   C308      1.0  0.40149  0.15853  0.62289  1.0000
  C   C309      1.0  0.42856  0.15140  0.60694  1.0000
  H   H239      1.0  0.41929  0.07037  0.55259  1.0000
  C   C310      1.0  0.42026  0.01227  0.90707  1.0000
  H   H240      1.0  0.44489  0.09045  0.58506  1.0000
  H   H241      1.0  0.21532  0.23861  0.63226  1.0000
  H   H242      1.0  0.44051  0.15368  0.54133  1.0000
  H   H243      1.0  0.12102  0.20281  0.73766  1.0000
  H   H244      1.0  0.42459  0.00382  0.60548  1.0000
  C   C311      1.0  0.27077  0.22855  0.80177  1.0000
  H   H245      1.0  0.39909  0.11208  0.60408  1.0000
  H   H246      1.0  0.35233  0.12472  0.63310  1.0000
  H   H247      1.0  0.35254  0.15454  0.64382  1.0000
  H   H248      1.0  0.17555  0.21402  0.65493  1.0000
  H   H249      1.0  0.07028  0.24794  0.59960  1.0000
  H   H250      1.0  0.33002  0.26349  0.54718  1.0000
  C   C312      1.0  0.14680  0.21798  0.85996  1.0000
  C   C313      1.0  0.01449  0.26152  0.73715  1.0000
  H   H251      1.0  0.15099  0.30966  0.74968  1.0000
  C   C314      1.0  0.28202  0.15264  0.51468  1.0000
  C   C315      1.0  0.31342  0.21344  0.82660  1.0000
  C   C316      1.0  0.21363  0.25877  0.60086  1.0000
  H   H252      1.0  0.22922  0.01102  0.89877  1.0000
  H   H253      1.0  0.44645  0.20571  0.65062  1.0000
  C   C317      1.0  0.08646  0.25332  0.64350  1.0000
  C   C318      1.0  0.17689  0.23770  0.56646  1.0000
  C   C319      1.0  0.20596  0.24289  0.61127  1.0000
  C   C320      1.0  0.47851  0.20110  0.57716  1.0000
  H   H254      1.0  0.08400  0.24064  0.65107  1.0000
  C   C321      1.0  0.17328  0.27428  0.69458  1.0000
  C   C322      1.0  0.26613  0.21436  0.92232  1.0000
  C   C323      1.0  0.21133  0.29853  0.59033  1.0000
  C   C324      1.0  0.31132  0.26268  0.89880  1.0000
  C   C325      1.0  0.33128  0.21157  0.79911  1.0000
  H   H255      1.0  0.35501  0.20526  0.79810  1.0000
  C   C326      1.0  0.20315  0.26421  0.57301  1.0000
  H   H256      1.0  0.32395  0.20880  0.84675  1.0000
  C   C327      1.0  0.36938  0.19415  0.48736  1.0000
  H   H257      1.0  0.29369  0.25309  0.49028  1.0000
  C   C328      1.0  0.09144  0.28595  0.62326  1.0000
  C   C329      1.0  0.26702  0.29610  0.52144  1.0000
  H   H258      1.0  0.16382  0.22932  0.55261  1.0000
  C   C330      1.0  0.26227  0.18502  0.50382  1.0000
  C   C331      1.0  0.29274  0.27647  0.89122  1.0000
  H   H259      1.0  0.25505  0.31280  0.57621  1.0000
  C   C332      1.0  0.39148  0.20259  0.50475  1.0000
  H   H260      1.0  0.28464  0.16895  0.90153  1.0000
  C   C333      1.0  0.42079  0.10354  0.50567  1.0000
  H   H261      1.0  0.11780  0.31411  0.52011  1.0000
  H   H262      1.0  0.22868  0.26659  0.61416  1.0000
  C   C334      1.0  0.24794  0.01577  0.88259  1.0000
  C   C335      1.0  0.49054  0.11865  0.63129  1.0000
  H   H263      1.0  0.22873  0.00255  0.84594  1.0000
  C   C336      1.0  0.23779  0.26190  0.96222  1.0000
  H   H264      1.0  0.23185  0.25774  0.85441  1.0000
  H   H265      1.0  0.03732  0.26172  0.69279  1.0000
  C   C337      1.0  0.18681  0.29078  0.53076  1.0000
  C   C338      1.0  0.07851  0.25742  0.61433  1.0000
  C   C339      1.0  0.48965  0.04950  0.49761  1.0000
  C   C340      1.0  0.29111  0.99447  0.66851  1.0000
  C   C341      1.0  0.15703  0.29992  0.73387  1.0000
  H   H266      1.0  0.22727  0.18149  0.54153  1.0000
  C   C342      1.0  0.32239  0.28434  0.51828  1.0000
  H   H267      1.0  0.44931  0.01399  0.81658  1.0000
  C   C343      1.0  0.23474  0.31117  0.59285  1.0000
  C   C344      1.0  0.14492  0.30057  0.48568  1.0000
  H   H268      1.0  0.33323  0.26411  0.91151  1.0000
  C   C345      1.0  0.18277  0.30752  0.63660  1.0000
  C   C346      1.0  0.24564  0.24147  0.49318  1.0000
  H   H269      1.0  0.21358  0.27733  0.49567  1.0000
  H   H270      1.0  0.34949  0.23875  0.51257  1.0000
  C   C347      1.0  0.46745  0.15393  0.54135  1.0000
  H   H271      1.0  0.40141  0.22509  0.52752  1.0000
  S   S46       1.0  0.28414  0.02286  0.49743  1.0000
  H   H272      1.0  0.25480  0.19763  0.50028  1.0000
  C   C348      1.0  0.26355  0.99330  0.95148  1.0000
  H   H273      1.0  0.30725  0.30507  0.49191  1.0000
  H   H274      1.0  0.46938  0.18403  0.68739  1.0000
  C   C349      1.0  0.28812  0.17807  0.48581  1.0000
  C   C350      1.0  0.30563  0.05750  0.96961  1.0000
  C   C351      1.0  0.48719  0.23506  0.57416  1.0000
  H   H275      1.0  0.28990  0.14015  0.51928  1.0000
  H   H276      1.0  0.19572  0.23247  0.48928  1.0000
  H   H277      1.0  0.00323  0.31500  0.74637  1.0000
  C   C352      1.0  0.48958  0.99478  0.75784  1.0000
  H   H278      1.0  0.06490  0.31513  0.74044  1.0000
  H   H279      1.0  0.39941  0.99397  0.87927  1.0000
  H   H280      1.0  0.40298  0.07863  0.50229  1.0000
  H   H281      1.0  0.41289  0.10719  0.48384  1.0000
  C   C353      1.0  0.01739  0.32363  0.75882  1.0000
  C   C354      1.0  0.48194  0.21825  0.76865  1.0000
  H   H282      1.0  0.23698  0.99122  0.95364  1.0000
  C   C355      1.0  0.48972  0.16679  0.65524  1.0000
  C   C356      1.0  0.48814  0.18203  0.66950  1.0000
  C   C357      1.0  0.05211  0.32373  0.75538  1.0000
  C   C358      1.0  0.45862  0.99933  0.48497  1.0000
  H   H283      1.0  0.31018  0.22384  0.48259  1.0000
  Fe  Fe25      1.0  0.13861  0.56132  0.09374  1.0000
  S   S47       1.0  0.10790  0.55687  0.13636  1.0000
  S   S48       1.0  0.15313  0.58633  0.07207  1.0000
  Fe  Fe26      1.0  0.13811  0.52433  0.07760  1.0000
  S   S49       1.0  0.10712  0.51731  0.11922  1.0000
  S   S50       1.0  0.15751  0.50525  0.04356  1.0000
  Fe  Fe27      1.0  0.07785  0.53999  0.10966  1.0000
  S   S51       1.0  0.02251  0.53931  0.11898  1.0000
  Fe  Fe28      1.0  0.13930  0.53440  0.14376  1.0000
  S   S52       1.0  0.15143  0.53025  0.19262  1.0000
  S   S53       1.0  0.10588  0.54567  0.06609  1.0000
  S   S54       1.0  0.17329  0.54010  0.10283  1.0000
  Fe  Fe29      1.0  0.14159  0.47170  0.39410  1.0000
  S   S55       1.0  0.17325  0.45770  0.35910  1.0000
  S   S56       1.0  0.15405  0.49458  0.42139  1.0000
  Fe  Fe30      1.0  0.07909  0.45426  0.37722  1.0000
  S   S57       1.0  0.10435  0.43896  0.34138  1.0000
  S   S58       1.0  0.02450  0.45378  0.39023  1.0000
  Fe  Fe31      1.0  0.14387  0.43495  0.37407  1.0000
  S   S59       1.0  0.16432  0.40929  0.38574  1.0000
  Fe  Fe32      1.0  0.13182  0.46236  0.32785  1.0000
  S   S60       1.0  0.13581  0.46648  0.27698  1.0000
  S   S61       1.0  0.11597  0.44869  0.41137  1.0000
  S   S62       1.0  0.10292  0.47778  0.36124  1.0000
  S   S63       1.0  0.16670  0.33856  0.32274  1.0000
  C   C359      1.0  0.01233  0.44761  0.05608  1.0000
  C   C360      1.0  0.03884  0.50521  0.42441  1.0000
  H   H284      1.0  0.04664  0.46521  0.33128  1.0000
  C   C361      1.0  0.16325  0.38967  0.36800  1.0000
  C   C362      1.0  0.15767  0.38801  0.33758  1.0000
  C   C363      1.0  0.15888  0.37232  0.32426  1.0000
  C   C364      1.0  0.16485  0.35798  0.34116  1.0000
  C   C365      1.0  0.16950  0.35959  0.37172  1.0000
  C   C366      1.0  0.16907  0.37534  0.38491  1.0000
  H   H285      1.0  0.15309  0.39885  0.32419  1.0000
  H   H286      1.0  0.15526  0.37130  0.30063  1.0000
  H   H287      1.0  0.17421  0.34875  0.38506  1.0000
  H   H288      1.0  0.17351  0.37641  0.40841  1.0000
  C   C367      1.0  0.25672  0.44706  0.32396  1.0000
  H   H289      1.0  0.04465  0.55989  0.06841  1.0000
  C   C368      1.0  0.16543  0.54186  0.98893  1.0000
  C   C369      1.0  0.13712  0.49804  0.01196  1.0000
  C   C370      1.0  0.02100  0.53177  0.48070  1.0000
  H   H290      1.0  0.01338  0.52463  0.04379  1.0000
  C   C371      1.0  0.14847  0.49972  0.46013  1.0000
  H   H291      1.0  0.17926  0.48353  0.99623  1.0000
  C   C372      1.0  0.10460  0.50272  0.00627  1.0000
  C   C373      1.0  0.01981  0.46577  0.33336  1.0000
  C   C374      1.0  0.35044  0.49392  0.27929  1.0000
  H   H292      1.0  0.03133  0.43800  0.16320  1.0000
  H   H293      1.0  0.09112  0.51088  0.02153  1.0000
  C   C375      1.0  0.14279  0.51263  0.21575  1.0000
  C   C376      1.0  0.14242  0.51426  0.24704  1.0000
  C   C377      1.0  0.13893  0.50039  0.26621  1.0000
  C   C378      1.0  0.13665  0.48463  0.25426  1.0000
  C   C379      1.0  0.13626  0.48303  0.22300  1.0000
  C   C380      1.0  0.13895  0.49694  0.20385  1.0000
  H   H294      1.0  0.14547  0.52631  0.25648  1.0000
  H   H295      1.0  0.13883  0.50187  0.29016  1.0000
  H   H296      1.0  0.13462  0.47090  0.21352  1.0000
  H   H297      1.0  0.13955  0.49549  0.17987  1.0000
  C   C381      1.0  0.14872  0.60705  0.08491  1.0000
  C   C382      1.0  0.14354  0.61085  0.11521  1.0000
  C   C383      1.0  0.14336  0.62744  0.12448  1.0000
  C   C384      1.0  0.14772  0.64052  0.10366  1.0000
  C   C385      1.0  0.15149  0.63674  0.07324  1.0000
  C   C386      1.0  0.15228  0.62013  0.06401  1.0000
  H   H298      1.0  0.14092  0.60100  0.13161  1.0000
  H   H299      1.0  0.14047  0.63015  0.14807  1.0000
  H   H300      1.0  0.37009  0.45329  0.27398  1.0000
  H   H301      1.0  0.15631  0.61739  0.04052  1.0000
  C   C387      1.0  0.24513  0.43162  0.33389  1.0000
  H   H302      1.0  0.03995  0.37546  0.25313  1.0000
  C   C388      1.0  0.99482  0.45581  0.03409  1.0000
  H   H303      1.0  0.27653  0.45288  0.33538  1.0000
  C   C389      1.0  0.05435  0.42553  0.19925  1.0000
  H   H304      1.0  0.16981  0.35746  0.24511  1.0000
  C   C390      1.0  0.00118  0.54938  0.09113  1.0000
  H   H305      1.0  0.07527  0.36727  0.30634  1.0000
  C   C391      1.0  0.05783  0.51764  0.20929  1.0000
  C   C392      1.0  0.08274  0.35635  0.34929  1.0000
  C   C393      1.0  0.08176  0.34193  0.36656  1.0000
  H   H306      1.0  0.05396  0.62432  0.00053  1.0000
  H   H307      1.0  0.20151  0.51425  0.38504  1.0000
  H   H308      1.0  0.23181  0.50756  0.26774  1.0000
  C   C394      1.0  0.14494  0.35707  0.23693  1.0000
  H   H309      1.0  0.15491  0.64657  0.05690  1.0000
  H   H310      1.0  0.10962  0.52445  0.39693  1.0000
  C   C395      1.0  0.24598  0.50322  0.36507  1.0000
  C   C396      1.0  0.09793  0.47779  0.09129  1.0000
  C   C397      1.0  0.07104  0.51537  0.36994  1.0000
  H   H311      1.0  0.23301  0.46905  0.18259  1.0000
  C   C398      1.0  0.01494  0.49197  0.22743  1.0000
  C   C399      1.0  0.03977  0.51839  0.23682  1.0000
  H   H312      1.0  0.25596  0.42554  0.35270  1.0000
  C   C400      1.0  0.01273  0.40217  0.37472  1.0000
  H   H313      1.0  0.02215  0.62936  0.04832  1.0000
  H   H314      1.0  0.09209  0.36756  0.35859  1.0000
  H   H315      1.0  0.09015  0.34204  0.38913  1.0000
  C   C401      1.0  0.05162  0.64224  0.10595  1.0000
  H   H316      1.0  0.30090  0.50365  0.28542  1.0000
  C   C402      1.0  0.04088  0.50687  0.37002  1.0000
  C   C403      1.0  0.11878  0.35068  0.25533  1.0000
  C   C404      1.0  0.06399  0.45158  0.02636  1.0000
  H   H317      1.0  0.30911  0.45078  0.28072  1.0000
  C   C405      1.0  0.08646  0.35002  0.24520  1.0000
  H   H318      1.0  0.09073  0.45000  0.02324  1.0000
  C   C406      1.0  0.03251  0.47989  0.47274  1.0000
  H   H319      1.0  0.09136  0.60004  0.99542  1.0000
  H   H320      1.0  0.04269  0.52886  0.25118  1.0000
  C   C407      1.0  0.05576  0.47451  0.14322  1.0000
  H   H321      1.0  0.20934  0.41241  0.32855  1.0000
  C   C408      1.0  0.01823  0.55820  0.06808  1.0000
  C   C409      1.0  0.07244  0.44278  0.23888  1.0000
  H   H322      1.0  0.26142  0.50719  0.38268  1.0000
  C   C410      1.0  0.22294  0.50451  0.22150  1.0000
  H   H323      1.0  0.01547  0.47393  0.28788  1.0000
  H   H324      1.0  0.36206  0.50595  0.27837  1.0000
  C   C411      1.0  0.37001  0.47976  0.27612  1.0000
  C   C412      1.0  0.35495  0.46426  0.27683  1.0000
  C   C413      1.0  0.04340  0.39787  0.36043  1.0000
  C   C414      1.0  0.24229  0.47178  0.22924  1.0000
  H   H325      1.0  0.05639  0.35425  0.20728  1.0000
  H   H326      1.0  0.06037  0.43925  0.06919  1.0000
  C   C415      1.0  0.06030  0.45667  0.22436  1.0000
  C   C416      1.0  0.21867  0.42421  0.32031  1.0000
  H   H327      1.0  0.09571  0.41152  0.41188  1.0000
  C   C417      1.0  0.32034  0.46287  0.28093  1.0000
  C   C418      1.0  0.04467  0.45507  0.19724  1.0000
  H   H328      1.0  0.07484  0.52749  0.20232  1.0000
  H   H329      1.0  0.08140  0.51589  0.44458  1.0000
  C   C419      1.0  0.21216  0.50721  0.36643  1.0000
  C   C420      1.0  0.24219  0.45511  0.30002  1.0000
  C   C421      1.0  0.10713  0.36170  0.19752  1.0000
  H   H330      1.0  0.04438  0.39231  0.33855  1.0000
  P   P13       1.0  0.05307  0.34090  0.26835  1.0000
  H   H331      1.0  0.09670  0.39822  0.36260  1.0000
  H   H332      1.0  0.01967  0.44070  0.28377  1.0000
  H   H333      1.0  0.12405  0.34599  0.27726  1.0000
  C   C422      1.0  0.07310  0.40117  0.37393  1.0000
  C   C423      1.0  0.06323  0.34130  0.30710  1.0000
  C   C424      1.0  0.03615  0.53299  0.00172  1.0000
  H   H334      1.0  0.08225  0.48243  0.45197  1.0000
  H   H335      1.0  0.08459  0.44416  0.25973  1.0000
  H   H336      1.0  0.15017  0.56298  0.01481  1.0000
  P   P14       1.0  0.25590  0.47556  0.28913  1.0000
  H   H337      1.0  0.10278  0.36577  0.17496  1.0000
  H   H338      1.0  0.99950  0.44291  0.07629  1.0000
  C   C425      1.0  0.05470  0.50399  0.19093  1.0000
  P   P15       1.0  0.01795  0.49962  0.46000  1.0000
  C   C426      1.0  0.04223  0.41335  0.41589  1.0000
  C   C427      1.0  0.01241  0.41010  0.40248  1.0000
  C   C428      1.0  0.14589  0.51640  0.46827  1.0000
  H   H339      1.0  0.05235  0.41349  0.18942  1.0000
  C   C429      1.0  0.23277  0.47736  0.20130  1.0000
  H   H340      1.0  0.01599  0.47870  0.11323  1.0000
  C   C430      1.0  0.21516  0.44773  0.28688  1.0000
  H   H341      1.0  0.06388  0.46859  0.23428  1.0000
  H   H342      1.0  0.04193  0.41996  0.43677  1.0000
  H   H343      1.0  0.08387  0.51893  0.34895  1.0000
  C   C431      1.0  0.01154  0.52498  0.01976  1.0000
  C   C432      1.0  0.04243  0.47759  0.11534  1.0000
  C   C433      1.0  0.22298  0.49372  0.19748  1.0000
  C   C434      1.0  0.13913  0.36266  0.20807  1.0000
  H   H344      1.0  0.07884  0.41652  0.23786  1.0000
  H   H345      1.0  0.21534  0.51720  0.21844  1.0000
  C   C435      1.0  0.05595  0.61580  0.01908  1.0000
  H   H346      1.0  0.03037  0.50380  0.34904  1.0000
  H   H347      1.0  0.20224  0.45404  0.26959  1.0000
  C   C436      1.0  0.31584  0.49257  0.28341  1.0000
  C   C437      1.0  0.02142  0.63387  0.11223  1.0000
  C   C438      1.0  0.19178  0.50158  0.34447  1.0000
  P   P16       1.0  0.01919  0.61200  0.10590  1.0000
  C   C439      1.0  0.03762  0.60081  0.13593  1.0000
  H   H348      1.0  0.28555  0.49035  0.34143  1.0000
  C   C440      1.0  0.06553  0.47498  0.46629  1.0000
  C   C441      1.0  0.07342  0.35609  0.31968  1.0000
  H   H349      1.0  0.16532  0.50415  0.34627  1.0000
  C   C442      1.0  0.24104  0.48240  0.25378  1.0000
  C   C443      1.0  0.06354  0.47939  0.08957  1.0000
  C   C444      1.0  0.02760  0.58455  0.14264  1.0000
  C   C445      1.0  0.04107  0.57592  0.16626  1.0000
  C   C446      1.0  0.06527  0.58326  0.18290  1.0000
  C   C447      1.0  0.07594  0.59928  0.17594  1.0000
  C   C448      1.0  0.06214  0.60806  0.15261  1.0000
  C   C449      1.0  0.04152  0.60795  0.07073  1.0000
  C   C450      1.0  0.03814  0.61867  0.04624  1.0000
  C   C451      1.0  0.07998  0.59136  0.04028  1.0000
  C   C452      1.0  0.06275  0.59434  0.06761  1.0000
  H   H350      1.0  0.21521  0.49809  0.17599  1.0000
  C   C453      1.0  0.20356  0.43229  0.29693  1.0000
  C   C454      1.0  0.03342  0.49099  0.20001  1.0000
  C   C455      1.0  0.25955  0.49373  0.34155  1.0000
  C   C456      1.0  0.02492  0.50173  0.39707  1.0000
  C   C457      1.0  0.06949  0.51350  0.42399  1.0000
  H   H351      1.0  0.14613  0.52578  0.45095  1.0000
  P   P17       1.0  0.02976  0.47290  0.17746  1.0000
  C   C458      1.0  0.00272  0.46103  0.36012  1.0000
  H   H352      1.0  0.18877  0.54045  0.99968  1.0000
  H   H353      1.0  0.07661  0.57632  0.20047  1.0000
  H   H354      1.0  0.09546  0.60480  0.18821  1.0000
  H   H355      1.0  0.07118  0.62034  0.14748  1.0000
  C   C459      1.0  0.08091  0.35527  0.21592  1.0000
  H   H356      1.0  0.09669  0.58095  0.03829  1.0000
  H   H357      1.0  0.06657  0.58610  0.08627  1.0000
  C   C460      1.0  0.23195  0.49892  0.24954  1.0000
  H   H358      1.0  0.18220  0.42684  0.28718  1.0000
  H   H359      1.0  0.18908  0.48742  0.30449  1.0000
  H   H360      1.0  0.07350  0.63575  0.09704  1.0000
  C   C461      1.0  0.00126  0.42179  0.31431  1.0000
  C   C462      1.0  0.08550  0.51852  0.39692  1.0000
  C   C463      1.0  0.07692  0.60214  0.01613  1.0000
  H   H361      1.0  0.05670  0.53871  0.01224  1.0000
  C   C464      1.0  0.23936  0.48840  0.31898  1.0000
  H   H362      1.0  0.01443  0.57115  0.02613  1.0000
  C   C465      1.0  0.20529  0.49214  0.32089  1.0000
  H   H363      1.0  0.10134  0.47089  0.16597  1.0000
  C   C466      1.0  0.06928  0.42721  0.22648  1.0000
  H   H364      1.0  0.15954  0.36752  0.19381  1.0000
  H   H365      1.0  0.09546  0.56520  0.99275  1.0000
  H   H366      1.0  0.03374  0.56325  0.17079  1.0000
  H   H367      1.0  0.25054  0.45918  0.23170  1.0000
  H   H368      1.0  0.39682  0.48082  0.27285  1.0000
  H   H369      1.0  0.05346  0.48218  0.06818  1.0000
  H   H370      1.0  0.06923  0.50361  0.16997  1.0000
  C   C467      1.0  0.30061  0.47702  0.28481  1.0000
  C   C468      1.0  0.11136  0.47456  0.11883  1.0000
  C   C469      1.0  0.15418  0.48732  0.99193  1.0000
  C   C470      1.0  0.09042  0.47301  0.14470  1.0000
  C   C471      1.0  0.01634  0.36933  0.25781  1.0000
  H   H371      1.0  0.00213  0.49486  0.39620  1.0000
  H   H372      1.0  0.13812  0.47375  0.12020  1.0000
  C   C472      1.0  0.04239  0.43942  0.18451  1.0000
  H   H373      1.0  0.11428  0.47942  0.07137  1.0000
  C   C473      1.0  0.07254  0.40879  0.40171  1.0000
  H   H374      1.0  0.01521  0.36842  0.36313  1.0000
  C   C474      1.0  0.04682  0.44549  0.05216  1.0000
  H   H375      1.0  0.99827  0.48208  0.23475  1.0000
  C   C475      1.0  0.99373  0.64262  0.12415  1.0000
  C   C476      1.0  0.01822  0.50557  0.24585  1.0000
  H   H376      1.0  0.99959  0.46886  0.99149  1.0000
  C   C477      1.0  0.11260  0.55574  0.98494  1.0000
  C   C478      1.0  0.00104  0.56461  0.04418  1.0000
  H   H377      1.0  0.00404  0.50608  0.26712  1.0000
  C   C479      1.0  0.07085  0.32728  0.35443  1.0000
  C   C480      1.0  0.01235  0.46215  0.00850  1.0000
  H   H378      1.0  0.00976  0.57840  0.12936  1.0000
  H   H379      1.0  0.10315  0.45684  0.47414  1.0000
  C   C481      1.0  0.00212  0.47070  0.30875  1.0000
  C   C482      1.0  0.01508  0.35256  0.26579  1.0000
  C   C483      1.0  0.07751  0.46045  0.47884  1.0000
  C   C484      1.0  0.14352  0.55448  0.99758  1.0000
  H   H380      1.0  0.00725  0.53514  0.46147  1.0000
  C   C485      1.0  0.06143  0.32696  0.32487  1.0000
  H   H381      1.0  0.15158  0.47499  0.47717  1.0000
  H   H382      1.0  0.02047  0.42421  0.32965  1.0000
  C   C486      1.0  0.00069  0.43144  0.28833  1.0000
  H   H383      1.0  0.00206  0.33910  0.35910  1.0000
  C   C487      1.0  0.04670  0.45982  0.00454  1.0000
  H   H384      1.0  0.99333  0.48536  0.05983  1.0000
  H   H385      1.0  0.05997  0.46439  0.98443  1.0000
  Fe  Fe33      1.0  0.14798  0.57247  0.61159  1.0000
  S   S64       1.0  0.10848  0.57030  0.64871  1.0000
  S   S65       1.0  0.17912  0.59628  0.61022  1.0000
  Fe  Fe34      1.0  0.13366  0.53730  0.58928  1.0000
  S   S66       1.0  0.09278  0.53326  0.62541  1.0000
  S   S67       1.0  0.14373  0.51432  0.56027  1.0000
  Fe  Fe35      1.0  0.07786  0.55905  0.61432  1.0000
  S   S68       1.0  0.02529  0.56811  0.61273  1.0000
  Fe  Fe36      1.0  0.12675  0.54456  0.65738  1.0000
  S   S69       1.0  0.12660  0.53775  0.70740  1.0000
  S   S70       1.0  0.11581  0.56262  0.57608  1.0000
  S   S71       1.0  0.16919  0.54727  0.62244  1.0000
  Fe  Fe37      1.0  0.09980  0.46151  0.89071  1.0000
  S   S72       1.0  0.14692  0.45400  0.86430  1.0000
  S   S73       1.0  0.08695  0.48012  0.92786  1.0000
  Fe  Fe38      1.0  0.05737  0.44087  0.85079  1.0000
  S   S74       1.0  0.10056  0.43201  0.82210  1.0000
  C   C488      1.0  0.00983  0.53810  0.59006  1.0000
  Fe  Fe39      1.0  0.12513  0.42820  0.86520  1.0000
  S   S75       1.0  0.15087  0.40429  0.87866  1.0000
  Fe  Fe40      1.0  0.11772  0.45842  0.82293  1.0000
  S   S76       1.0  0.13192  0.46838  0.77584  1.0000
  S   S77       1.0  0.08019  0.43558  0.89420  1.0000
  S   S78       1.0  0.07248  0.46735  0.84920  1.0000
  S   S79       1.0  0.14321  0.33364  0.81683  1.0000
  C   C489      1.0  0.01103  0.50423  0.81501  1.0000
  C   C490      1.0  0.00610  0.52665  0.95793  1.0000
  H   H386      1.0  0.02616  0.46074  0.80813  1.0000
  C   C491      1.0  0.14703  0.38466  0.86167  1.0000
  C   C492      1.0  0.13504  0.38293  0.83313  1.0000
  C   C493      1.0  0.13398  0.36725  0.81991  1.0000
  C   C494      1.0  0.14389  0.35300  0.83528  1.0000
  C   C495      1.0  0.15521  0.35469  0.86408  1.0000
  C   C496      1.0  0.15715  0.37043  0.87698  1.0000
  H   H387      1.0  0.12728  0.39371  0.82098  1.0000
  H   H388      1.0  0.12563  0.36618  0.79749  1.0000
  H   H389      1.0  0.16321  0.34392  0.87612  1.0000
  H   H390      1.0  0.16659  0.37159  0.89900  1.0000
  H   H391      1.0  0.02449  0.55679  0.49578  1.0000
  H   H392      1.0  0.03425  0.53417  0.59568  1.0000
  H   H393      1.0  0.00985  0.49248  0.82668  1.0000
  H   H394      1.0  0.99678  0.51447  0.57280  1.0000
  H   H395      1.0  0.09035  0.61674  0.69096  1.0000
  C   C497      1.0  0.02374  0.45549  0.50413  1.0000
  C   C498      1.0  0.10695  0.48648  0.96029  1.0000
  H   H396      1.0  0.14286  0.60182  0.67785  1.0000
  C   C499      1.0  0.12607  0.53209  0.95415  1.0000
  H   H397      1.0  0.09732  0.33496  0.76888  1.0000
  H   H398      1.0  0.15278  0.47340  0.95101  1.0000
  C   C500      1.0  0.03105  0.54408  0.49983  1.0000
  C   C501      1.0  0.07363  0.54249  0.85603  1.0000
  C   C502      1.0  0.12591  0.51819  0.72570  1.0000
  C   C503      1.0  0.13063  0.50349  0.71011  1.0000
  C   C504      1.0  0.13195  0.48838  0.72587  1.0000
  C   C505      1.0  0.12783  0.48771  0.75729  1.0000
  C   C506      1.0  0.12193  0.50236  0.77282  1.0000
  C   C507      1.0  0.12152  0.51751  0.75713  1.0000
  H   H399      1.0  0.13420  0.50380  0.68599  1.0000
  H   H400      1.0  0.13656  0.47714  0.71361  1.0000
  H   H401      1.0  0.11846  0.50208  0.79690  1.0000
  H   H402      1.0  0.11794  0.52881  0.76940  1.0000
  C   C508      1.0  0.16922  0.61662  0.59782  1.0000
  C   C509      1.0  0.14092  0.62006  0.58208  1.0000
  C   C510      1.0  0.13425  0.63631  0.57251  1.0000
  C   C511      1.0  0.15571  0.64942  0.57849  1.0000
  C   C512      1.0  0.18416  0.64596  0.59406  1.0000
  C   C513      1.0  0.19087  0.62969  0.60350  1.0000
  H   H403      1.0  0.12464  0.61011  0.57662  1.0000
  H   H404      1.0  0.11958  0.52305  0.93798  1.0000
  H   H405      1.0  0.06454  0.50071  0.97646  1.0000
  H   H406      1.0  0.21324  0.62718  0.61506  1.0000
  C   C514      1.0  0.07263  0.52552  0.85167  1.0000
  C   C515      1.0  0.10365  0.54457  0.96306  1.0000
  H   H407      1.0  0.09699  0.57660  0.92914  1.0000
  C   C516      1.0  0.05497  0.61216  0.60681  1.0000
  C   C517      1.0  0.05028  0.38702  0.87867  1.0000
  H   H408      1.0  0.99848  0.50087  0.89608  1.0000
  C   C518      1.0  0.14688  0.49253  0.51324  1.0000
  C   C519      1.0  0.07004  0.54883  0.88496  1.0000
  H   H409      1.0  0.01029  0.42898  0.71093  1.0000
  C   C520      1.0  0.14310  0.61504  0.68104  1.0000
  H   H410      1.0  0.09855  0.48465  0.56454  1.0000
  C   C521      1.0  0.99946  0.55424  0.59549  1.0000
  C   C522      1.0  0.04977  0.54000  0.52417  1.0000
  C   C523      1.0  0.05816  0.52361  0.52963  1.0000
  C   C524      1.0  0.06851  0.35881  0.88380  1.0000
  C   C525      1.0  0.14431  0.50921  0.52142  1.0000
  H   H411      1.0  0.04872  0.43858  0.74867  1.0000
  C   C526      1.0  0.06410  0.49041  0.63471  1.0000
  C   C527      1.0  0.02569  0.36561  0.84948  1.0000
  C   C528      1.0  0.33373  0.46844  0.81599  1.0000
  C   C529      1.0  0.34567  0.48369  0.82475  1.0000
  C   C530      1.0  0.32362  0.49680  0.82972  1.0000
  C   C531      1.0  0.28960  0.49463  0.82620  1.0000
  C   C532      1.0  0.27734  0.47924  0.81812  1.0000
  C   C533      1.0  0.29972  0.46624  0.81242  1.0000
  P   P18       1.0  0.23367  0.47685  0.81238  1.0000
  C   C534      1.0  0.22244  0.45529  0.81393  1.0000
  C   C535      1.0  0.20882  0.48592  0.84277  1.0000
  C   C536      1.0  0.22115  0.48713  0.87141  1.0000
  C   C537      1.0  0.20072  0.49297  0.89533  1.0000
  C   C538      1.0  0.16785  0.49751  0.89087  1.0000
  C   C539      1.0  0.15539  0.49622  0.86252  1.0000
  C   C540      1.0  0.17568  0.49029  0.83866  1.0000
  C   C541      1.0  0.20363  0.44825  0.79190  1.0000
  C   C542      1.0  0.19315  0.43188  0.79460  1.0000
  C   C543      1.0  0.20130  0.42239  0.81931  1.0000
  C   C544      1.0  0.21989  0.42928  0.84142  1.0000
  C   C545      1.0  0.23039  0.44567  0.83881  1.0000
  C   C546      1.0  0.22709  0.48654  0.77660  1.0000
  C   C547      1.0  0.23759  0.47862  0.75001  1.0000
  C   C548      1.0  0.23239  0.48596  0.72225  1.0000
  C   C549      1.0  0.21750  0.50147  0.72084  1.0000
  C   C550      1.0  0.20838  0.50976  0.74716  1.0000
  C   C551      1.0  0.21340  0.50242  0.77495  1.0000
  H   H412      1.0  0.35088  0.45833  0.81175  1.0000
  H   H413      1.0  0.37205  0.48539  0.82740  1.0000
  H   H414      1.0  0.33293  0.50869  0.83612  1.0000
  H   H415      1.0  0.27282  0.50496  0.82967  1.0000
  H   H416      1.0  0.29104  0.45443  0.80505  1.0000
  H   H417      1.0  0.24617  0.48317  0.87553  1.0000
  H   H418      1.0  0.21007  0.49361  0.91751  1.0000
  H   H419      1.0  0.15173  0.50156  0.90952  1.0000
  H   H420      1.0  0.12965  0.49918  0.85925  1.0000
  H   H421      1.0  0.16522  0.48855  0.81723  1.0000
  H   H422      1.0  0.19604  0.45543  0.77303  1.0000
  H   H423      1.0  0.17786  0.42669  0.77791  1.0000
  H   H424      1.0  0.19251  0.40980  0.82176  1.0000
  H   H425      1.0  0.22517  0.42199  0.86102  1.0000
  H   H426      1.0  0.24396  0.45094  0.85657  1.0000
  H   H427      1.0  0.24938  0.46665  0.75071  1.0000
  H   H428      1.0  0.23963  0.47960  0.70179  1.0000
  H   H429      1.0  0.21287  0.50707  0.69936  1.0000
  H   H430      1.0  0.19688  0.52181  0.74592  1.0000
  H   H431      1.0  0.20642  0.50920  0.79494  1.0000
  H   H432      1.0  0.01178  0.41194  0.76643  1.0000
  H   H433      1.0  0.00312  0.52743  0.93415  1.0000
  H   H434      1.0  0.08916  0.37924  0.90681  1.0000
  H   H435      1.0  0.07771  0.55071  0.83694  1.0000
  C   C552      1.0  0.02337  0.60992  0.59613  1.0000
  C   C553      1.0  0.14382  0.64943  0.68661  1.0000
  P   P19       1.0  0.99781  0.35913  0.82156  1.0000
  C   C554      1.0  0.07086  0.37537  0.89146  1.0000
  H   H436      1.0  0.07026  0.49584  0.65569  1.0000
  C   C555      1.0  0.01431  0.53382  0.78254  1.0000
  H   H437      1.0  0.03156  0.38824  0.79526  1.0000
  H   H438      1.0  0.17347  0.52070  0.96103  1.0000
  H   H439      1.0  0.00470  0.62450  0.53778  1.0000
  S   S80       1.0  0.00746  0.43074  0.84146  1.0000
  C   C556      1.0  0.05018  0.46347  0.73189  1.0000
  H   H440      1.0  0.99364  0.54462  0.86106  1.0000
  C   C557      1.0  0.01186  0.47019  0.49220  1.0000
  C   C558      1.0  0.00495  0.63540  0.61920  1.0000
  C   C559      1.0  0.03979  0.44708  0.73209  1.0000
  C   C560      1.0  0.00094  0.33439  0.77887  1.0000
  H   H441      1.0  0.00237  0.46999  0.60135  1.0000
  H   H442      1.0  0.02215  0.61309  0.94963  1.0000
  C   C561      1.0  0.17302  0.62367  0.67704  1.0000
  H   H443      1.0  0.04711  0.48722  0.71101  1.0000
  H   H444      1.0  0.05031  0.49596  0.78400  1.0000
  C   C562      1.0  0.06189  0.62618  0.62307  1.0000
  H   H445      1.0  0.02063  0.51696  0.64016  1.0000
  H   H446      1.0  0.05315  0.52223  0.75515  1.0000
  C   C563      1.0  0.02880  0.51521  0.48631  1.0000
  H   H447      1.0  0.01851  0.59897  0.58350  1.0000
  C   C564      1.0  0.08781  0.49071  0.61067  1.0000
  H   H448      1.0  0.11192  0.49635  0.61307  1.0000
  C   C565      1.0  0.08032  0.48405  0.58325  1.0000
  C   C566      1.0  0.01921  0.34526  0.79576  1.0000
  C   C567      1.0  0.03401  0.50609  0.79059  1.0000
  C   C568      1.0  0.03568  0.52088  0.77438  1.0000
  C   C569      1.0  0.06753  0.51487  0.87617  1.0000
  C   C570      1.0  0.06429  0.52115  0.90507  1.0000
  C   C571      1.0  0.06541  0.53818  0.90980  1.0000
  H   H449      1.0  0.07624  0.52062  0.82935  1.0000
  P   P20       1.0  0.06318  0.54592  0.94763  1.0000
  H   H450      1.0  0.05251  0.39990  0.88426  1.0000
  C   C572      1.0  0.05660  0.45063  0.49748  1.0000
  H   H451      1.0  0.09060  0.64707  0.69569  1.0000
  C   C573      1.0  0.11355  0.62349  0.68826  1.0000
  H   H452      1.0  0.06735  0.46753  0.74807  1.0000
  C   C574      1.0  0.01808  0.44173  0.71092  1.0000
  H   H453      1.0  0.25047  0.33151  0.61911  1.0000
  H   H454      1.0  0.04201  0.64847  0.64251  1.0000
  C   C575      1.0  0.13924  0.48156  0.96625  1.0000
  C   C576      1.0  0.00656  0.45280  0.68967  1.0000
  C   C577      1.0  0.00823  0.58806  0.96037  1.0000
  H   H455      1.0  0.06601  0.43933  0.50691  1.0000
  C   C578      1.0  0.05002  0.56721  0.94818  1.0000
  H   H456      1.0  0.19687  0.64721  0.67564  1.0000
  C   C579      1.0  0.03352  0.53397  0.97063  1.0000
  C   C580      1.0  0.14334  0.52112  0.49864  1.0000
  C   C581      1.0  0.06186  0.59613  0.93781  1.0000
  C   C582      1.0  0.07198  0.57966  0.93756  1.0000
  H   H457      1.0  0.08673  0.62803  0.63063  1.0000
  C   C583      1.0  0.11384  0.64063  0.69093  1.0000
  H   H458      1.0  0.06677  0.50168  0.87295  1.0000
  H   H459      1.0  0.06130  0.51266  0.92382  1.0000
  C   C584      1.0  0.02582  0.47610  0.60416  1.0000
  C   C585      1.0  0.00931  0.51796  0.66253  1.0000
  H   H460      1.0  0.07892  0.60566  0.92952  1.0000
  H   H461      1.0  0.14155  0.53398  0.50440  1.0000
  H   H462      1.0  0.04390  0.47137  0.55881  1.0000
  C   C586      1.0  0.17348  0.64080  0.67978  1.0000
  C   C587      1.0  0.01821  0.57158  0.95993  1.0000
  H   H463      1.0  0.19570  0.61706  0.67064  1.0000
  H   H464      1.0  0.01196  0.39146  0.84857  1.0000
  H   H465      1.0  0.01285  0.61200  0.48809  1.0000
  H   H466      1.0  0.06875  0.35426  0.80335  1.0000
  H   H467      1.0  0.99420  0.47810  0.77389  1.0000
  C   C588      1.0  0.04769  0.51124  0.51088  1.0000
  H   H468      1.0  0.11240  0.63870  0.56015  1.0000
  C   C589      1.0  0.03259  0.48347  0.63140  1.0000
  C   C590      1.0  0.05401  0.34574  0.79125  1.0000
  C   C591      1.0  0.01582  0.46944  0.69012  1.0000
  C   C592      1.0  0.00201  0.45680  0.80200  1.0000
  C   C593      1.0  0.04587  0.35392  0.86307  1.0000
  C   C594      1.0  0.04946  0.47664  0.58005  1.0000
  H   H469      1.0  0.05504  0.49871  0.51546  1.0000
  C   C595      1.0  0.02751  0.38216  0.85803  1.0000
  P   P21       1.0  0.00184  0.48377  0.66237  1.0000
  C   C596      1.0  0.02994  0.60033  0.94916  1.0000
  C   C597      1.0  0.03841  0.47461  0.71094  1.0000
  H   H470      1.0  0.07127  0.56198  0.88767  1.0000
  H   H471      1.0  0.07398  0.60287  0.60262  1.0000
  H   H472      1.0  0.01326  0.54437  0.66218  1.0000
  H   H473      1.0  0.14832  0.48319  0.53049  1.0000
  H   H474      1.0  0.00108  0.56235  0.96916  1.0000
  H   H475      1.0  0.08491  0.34982  0.89331  1.0000
  H   H476      1.0  0.00757  0.44798  0.51883  1.0000
  H   H477      1.0  0.05762  0.54953  0.53900  1.0000
  H   H478      1.0  0.20449  0.32822  0.65797  1.0000
  H   H479      1.0  0.12320  0.65592  0.74530  1.0000
  C   C598      1.0  0.00581  0.38860  0.78935  1.0000
  C   C599      1.0  0.03680  0.63773  0.62950  1.0000
  H   H480      1.0  0.07291  0.52050  0.54843  1.0000
  H   H481      1.0  0.04478  0.34104  0.85711  1.0000
  H   H482      1.0  0.01550  0.54519  0.76965  1.0000
  C   C600      1.0  0.08967  0.49698  0.98059  1.0000
  C   C601      1.0  0.99484  0.40194  0.77254  1.0000
  H   H483      1.0  0.00941  0.47267  0.91399  1.0000
  C   C602      1.0  0.99814  0.62152  0.60215  1.0000
  H   H484      1.0  0.20163  0.65566  0.59799  1.0000
  C   C603      1.0  0.07037  0.33487  0.77141  1.0000
  C   C604      1.0  0.15680  0.53074  0.96710  1.0000
  C   C605      1.0  0.00476  0.53357  0.67486  1.0000
  C   C606      1.0  0.99873  0.50388  0.67881  1.0000
  C   C607      1.0  0.14864  0.48780  0.48292  1.0000
  C   C608      1.0  0.99268  0.60781  0.50331  1.0000
  Fe  Fe41      1.0  0.37083  0.95746  0.29038  1.0000
  S   S81       1.0  0.36762  0.94472  0.33469  1.0000
  S   S82       1.0  0.41917  0.95818  0.26301  1.0000
  Fe  Fe42      1.0  0.29817  0.96422  0.29192  1.0000
  S   S83       1.0  0.28858  0.95104  0.33699  1.0000
  C   C609      1.0  0.99272  0.73074  0.42042  1.0000
  Fe  Fe43      1.0  0.33363  0.96519  0.35069  1.0000
  S   S84       1.0  0.34851  0.97501  0.39634  1.0000
  Fe  Fe44      1.0  0.32364  0.93123  0.31819  1.0000
  S   S85       1.0  0.33517  0.90364  0.32531  1.0000
  S   S86       1.0  0.34107  0.97917  0.30683  1.0000
  S   S87       1.0  0.32881  0.94339  0.27274  1.0000
  Fe  Fe45      1.0  0.14718  0.68753  0.09773  1.0000
  S   S88       1.0  0.11921  0.70438  0.12984  1.0000
  C   C610      1.0  0.41161  0.91140  0.25293  1.0000
  Fe  Fe46      1.0  0.15774  0.71593  0.05143  1.0000
  S   S89       1.0  0.12876  0.73404  0.08081  1.0000
  S   S90       1.0  0.18346  0.72011  0.00413  1.0000
  Fe  Fe47      1.0  0.15792  0.72365  0.11866  1.0000
  S   S91       1.0  0.17428  0.74240  0.15359  1.0000
  Fe  Fe48      1.0  0.09171  0.71340  0.09044  1.0000
  S   S92       1.0  0.03556  0.71241  0.10371  1.0000
  S   S93       1.0  0.18840  0.70636  0.08901  1.0000
  S   S94       1.0  0.11844  0.69583  0.05866  1.0000
  Fe  Fe49      1.0  0.29748  0.80716  0.31046  1.0000
  S   S95       1.0  0.33307  0.80108  0.34563  1.0000
  S   S96       1.0  0.27305  0.83234  0.30419  1.0000
  Fe  Fe50      1.0  0.29853  0.77190  0.28614  1.0000
  S   S97       1.0  0.33564  0.76371  0.31969  1.0000
  S   S98       1.0  0.28207  0.75244  0.25264  1.0000
  Fe  Fe51      1.0  0.30327  0.77767  0.35371  1.0000
  S   S99       1.0  0.29449  0.76729  0.40176  1.0000
  Fe  Fe52      1.0  0.36280  0.78755  0.30966  1.0000
  S   S100      1.0  0.41793  0.79488  0.30127  1.0000
  S   S101      1.0  0.26531  0.78470  0.32084  1.0000
  S   S102      1.0  0.32817  0.79479  0.27364  1.0000
  C   C611      1.0  0.45747  0.78611  0.30846  1.0000
  C   C612      1.0  0.46082  0.77179  0.32567  1.0000
  C   C613      1.0  0.40845  0.85594  0.38467  1.0000
  H   H485      1.0  0.06435  0.79201  0.41664  1.0000
  H   H486      1.0  0.43883  0.76532  0.33427  1.0000
  H   H487      1.0  0.31694  0.86422  0.42045  1.0000
  C   C614      1.0  0.44229  0.85339  0.38880  1.0000
  H   H488      1.0  0.19296  0.78454  0.28948  1.0000
  C   C615      1.0  0.18694  0.74836  0.32868  1.0000
  H   H489      1.0  0.01901  0.73243  0.05148  1.0000
  H   H490      1.0  0.34642  0.97033  0.10606  1.0000
  C   C616      1.0  0.02646  0.66765  0.12349  1.0000
  C   C617      1.0  0.26663  0.75191  0.45258  1.0000
  C   C618      1.0  0.26019  0.75992  0.42543  1.0000
  C   C619      1.0  0.22701  0.76207  0.41837  1.0000
  C   C620      1.0  0.20079  0.75647  0.43834  1.0000
  C   C621      1.0  0.17352  0.75443  0.35600  1.0000
  H   H491      1.0  0.29211  0.75019  0.45844  1.0000
  H   H492      1.0  0.22167  0.76827  0.39773  1.0000
  H   H493      1.0  0.40999  0.80910  0.45773  1.0000
  C   C622      1.0  0.20289  0.74417  0.18268  1.0000
  C   C623      1.0  0.22705  0.73226  0.18801  1.0000
  C   C624      1.0  0.25015  0.73478  0.21022  1.0000
  C   C625      1.0  0.25003  0.74934  0.22703  1.0000
  C   C626      1.0  0.22515  0.76098  0.22242  1.0000
  C   C627      1.0  0.20176  0.75837  0.20054  1.0000
  H   H494      1.0  0.22821  0.72120  0.17481  1.0000
  H   H495      1.0  0.26885  0.72552  0.21387  1.0000
  H   H496      1.0  0.22409  0.77207  0.23552  1.0000
  H   H497      1.0  0.18298  0.76761  0.19700  1.0000
  C   C628      1.0  0.44962  0.96243  0.28794  1.0000
  H   H498      1.0  0.00768  0.73601  0.17628  1.0000
  C   C629      1.0  0.46406  0.97125  0.33690  1.0000
  C   C630      1.0  0.44028  0.96900  0.31581  1.0000
  H   H499      1.0  0.39770  0.90941  0.27415  1.0000
  H   H500      1.0  0.41466  0.97232  0.32124  1.0000
  H   H501      1.0  0.15748  0.77591  0.38057  1.0000
  H   H502      1.0  0.11496  0.68843  0.40619  1.0000
  H   H503      1.0  0.02861  0.68065  0.12806  1.0000
  C   C631      1.0  0.05521  0.76802  0.43637  1.0000
  C   C632      1.0  0.24061  0.77819  0.03545  1.0000
  P   P22       1.0  0.46234  0.89248  0.27623  1.0000
  C   C633      1.0  0.31743  0.88409  0.31789  1.0000
  C   C634      1.0  0.28465  0.88222  0.30957  1.0000
  C   C635      1.0  0.27153  0.86634  0.30529  1.0000
  C   C636      1.0  0.29099  0.85213  0.30903  1.0000
  C   C637      1.0  0.32394  0.85401  0.31673  1.0000
  C   C638      1.0  0.33696  0.86987  0.32133  1.0000
  H   H504      1.0  0.26924  0.89299  0.30690  1.0000
  H   H505      1.0  0.24601  0.86506  0.29926  1.0000
  H   H506      1.0  0.33931  0.84322  0.31911  1.0000
  H   H507      1.0  0.36242  0.87117  0.32748  1.0000
  H   H508      1.0  0.17623  0.68506  0.40540  1.0000
  H   H509      1.0  0.44003  0.88257  0.46872  1.0000
  C   C639      1.0  0.45639  0.89158  0.47784  1.0000
  C   C640      1.0  0.46094  0.90783  0.22006  1.0000
  C   C641      1.0  0.13726  0.71630  0.35132  1.0000
  C   C642      1.0  0.05407  0.65905  0.11160  1.0000
  H   H510      1.0  0.46434  0.83214  0.29323  1.0000
  H   H511      1.0  0.37841  0.75180  0.42801  1.0000
  C   C643      1.0  0.39722  0.77051  0.39713  1.0000
  C   C644      1.0  0.19583  0.75292  0.98589  1.0000
  P   P23       1.0  0.30056  0.73730  0.03038  1.0000
  C   C645      1.0  0.26690  0.75139  0.04004  1.0000
  C   C646      1.0  0.24050  0.74641  0.05997  1.0000
  C   C647      1.0  0.21462  0.75729  0.06777  1.0000
  C   C648      1.0  0.21453  0.77312  0.05533  1.0000
  H   H512      1.0  0.32929  0.95439  0.00166  1.0000
  C   C649      1.0  0.32021  0.74255  0.99415  1.0000
  C   C650      1.0  0.33121  0.73894  0.05818  1.0000
  C   C651      1.0  0.35170  0.72548  0.06450  1.0000
  C   C652      1.0  0.37530  0.72675  0.08613  1.0000
  C   C653      1.0  0.35921  0.75507  0.09463  1.0000
  C   C654      1.0  0.33556  0.75383  0.07304  1.0000
  H   H513      1.0  0.43619  0.92120  0.39060  1.0000
  C   C655      1.0  0.45035  0.91864  0.31530  1.0000
  H   H514      1.0  0.28996  0.73059  0.39305  1.0000
  H   H515      1.0  0.23956  0.73412  0.06944  1.0000
  H   H516      1.0  0.19435  0.75332  0.08316  1.0000
  H   H517      1.0  0.19391  0.78133  0.06070  1.0000
  C   C656      1.0  0.37588  0.96752  0.00399  1.0000
  C   C657      1.0  0.48655  0.79408  0.29684  1.0000
  H   H518      1.0  0.34951  0.71401  0.05267  1.0000
  H   H519      1.0  0.45707  0.80914  0.40678  1.0000
  C   C658      1.0  0.05924  0.75096  0.43306  1.0000
  H   H520      1.0  0.04274  0.77302  0.45631  1.0000
  H   H521      1.0  0.24014  0.79034  0.02530  1.0000
  H   H522      1.0  0.16846  0.79510  0.33756  1.0000
  H   H523      1.0  0.48856  0.85999  0.29262  1.0000
  C   C659      1.0  0.45857  0.83949  0.37668  1.0000
  H   H524      1.0  0.39703  0.74243  0.11825  1.0000
  C   C660      1.0  0.18684  0.77609  0.30787  1.0000
  C   C661      1.0  0.28843  0.82958  0.38881  1.0000
  C   C662      1.0  0.30814  0.72590  0.34782  1.0000
  P   P24       1.0  0.33650  0.80709  0.45644  1.0000
  S   S103      1.0  0.25867  0.97602  0.26383  1.0000
  C   C663      1.0  0.42340  0.97814  0.08173  1.0000
  C   C664      1.0  0.44105  0.82876  0.35889  1.0000
  H   H525      1.0  0.37207  0.97364  0.20977  1.0000
  C   C665      1.0  0.35481  0.74102  0.98868  1.0000
  C   C666      1.0  0.40367  0.98257  0.05798  1.0000
  C   C667      1.0  0.08701  0.75577  0.38412  1.0000
  H   H526      1.0  0.41081  0.76189  0.38281  1.0000
  S   S104      1.0  0.14976  0.66114  0.11716  1.0000
  H   H527      1.0  0.07755  0.66541  0.10700  1.0000
  H   H528      1.0  0.45335  0.81827  0.34830  1.0000
  C   C668      1.0  0.12531  0.70827  0.46563  1.0000
  H   H529      1.0  0.26034  0.72312  0.28808  1.0000
  H   H530      1.0  0.29186  0.97946  0.12847  1.0000
  C   C669      1.0  0.17310  0.78203  0.33500  1.0000
  P   P25       1.0  0.37350  0.96845  0.04443  1.0000
  C   C670      1.0  0.33354  0.97499  0.06042  1.0000
  C   C671      1.0  0.25608  0.69494  0.00392  1.0000
  C   C672      1.0  0.27138  0.71039  0.00370  1.0000
  H   H531      1.0  0.46033  0.92015  0.17717  1.0000
  C   C673      1.0  0.47113  0.90377  0.45922  1.0000
  C   C674      1.0  0.39722  0.78725  0.38973  1.0000
  H   H532      1.0  0.48444  0.80494  0.28297  1.0000
  H   H533      1.0  0.37265  0.92590  0.23485  1.0000
  C   C675      1.0  0.42295  0.95645  0.43442  1.0000
  H   H534      1.0  0.34606  0.77105  0.45992  1.0000
  H   H535      1.0  0.27435  0.82575  0.37013  1.0000
  C   C676      1.0  0.30895  0.98120  0.04236  1.0000
  C   C677      1.0  0.38275  0.94771  0.05615  1.0000
  C   C678      1.0  0.41470  0.94127  0.04973  1.0000
  C   C679      1.0  0.42225  0.92514  0.05821  1.0000
  C   C680      1.0  0.39786  0.91528  0.07289  1.0000
  C   C681      1.0  0.36581  0.92151  0.07885  1.0000
  C   C682      1.0  0.35816  0.93762  0.07032  1.0000
  C   C683      1.0  0.20723  0.74861  0.46569  1.0000
  C   C684      1.0  0.08311  0.77273  0.38767  1.0000
  C   C685      1.0  0.25274  0.68567  0.03037  1.0000
  H   H536      1.0  0.21266  0.68597  0.24466  1.0000
  C   C686      1.0  0.24985  0.72874  0.36336  1.0000
  C   C687      1.0  0.44656  0.98927  0.09203  1.0000
  H   H537      1.0  0.26134  0.68479  0.07731  1.0000
  C   C688      1.0  0.10380  0.72138  0.46038  1.0000
  H   H538      1.0  0.42437  0.97916  0.99799  1.0000
  H   H539      1.0  0.39637  0.95403  0.43617  1.0000
  C   C689      1.0  0.26094  0.98632  0.22834  1.0000
  C   C690      1.0  0.36071  0.77585  0.44081  1.0000
  H   H540      1.0  0.28708  0.77172  0.01297  1.0000
  H   H541      1.0  0.43373  0.94874  0.03808  1.0000
  C   C691      1.0  0.13081  0.69570  0.39074  1.0000
  H   H542      1.0  0.00995  0.73558  0.40317  1.0000
  H   H543      1.0  0.34675  0.91382  0.08989  1.0000
  H   H544      1.0  0.33298  0.94204  0.07454  1.0000
  C   C692      1.0  0.29960  0.72386  0.31828  1.0000
  H   H545      1.0  0.33407  0.72611  0.35314  1.0000
  C   C693      1.0  0.16534  0.69381  0.39033  1.0000
  H   H546      1.0  0.21248  0.70106  0.36988  1.0000
  C   C694      1.0  0.40731  0.83139  0.35473  1.0000
  C   C695      1.0  0.39089  0.84479  0.36806  1.0000
  H   H547      1.0  0.36996  0.98507  0.45365  1.0000
  H   H548      1.0  0.28460  0.85536  0.37798  1.0000
  C   C696      1.0  0.44434  0.92562  0.34344  1.0000
  H   H549      1.0  0.39392  0.82300  0.34106  1.0000
  H   H550      1.0  0.36460  0.84664  0.36528  1.0000
  C   C697      1.0  0.44566  0.94434  0.44241  1.0000
  C   C698      1.0  0.19455  0.75939  0.30497  1.0000
  H   H551      1.0  0.08996  0.70791  0.37079  1.0000
  H   H552      1.0  0.20711  0.75514  0.28446  1.0000
  C   C699      1.0  0.29676  0.83302  0.19250  1.0000
  C   C700      1.0  0.28469  0.82770  0.22084  1.0000
  C   C701      1.0  0.27155  0.81188  0.22477  1.0000
  C   C702      1.0  0.27085  0.80127  0.20045  1.0000
  C   C703      1.0  0.28360  0.80636  0.17204  1.0000
  C   C704      1.0  0.29591  0.82246  0.16808  1.0000
  P   P26       1.0  0.27982  0.79309  0.14037  1.0000
  C   C705      1.0  0.28991  0.77197  0.14890  1.0000
  C   C706      1.0  0.23779  0.79584  0.12902  1.0000
  C   C707      1.0  0.21348  0.78374  0.13522  1.0000
  C   C708      1.0  0.18073  0.78627  0.12736  1.0000
  C   C709      1.0  0.17189  0.80099  0.11350  1.0000
  C   C710      1.0  0.19584  0.81323  0.10760  1.0000
  C   C711      1.0  0.22863  0.81073  0.11553  1.0000
  C   C712      1.0  0.27964  0.75935  0.13036  1.0000
  C   C713      1.0  0.28897  0.74305  0.13563  1.0000
  C   C714      1.0  0.30940  0.73929  0.15897  1.0000
  C   C715      1.0  0.32022  0.75180  0.17721  1.0000
  C   C716      1.0  0.31067  0.76810  0.17216  1.0000
  C   C717      1.0  0.30994  0.79854  0.11062  1.0000
  C   C718      1.0  0.34322  0.80124  0.11704  1.0000
  C   C719      1.0  0.36723  0.80443  0.09390  1.0000
  C   C720      1.0  0.35822  0.80476  0.06420  1.0000
  C   C721      1.0  0.32519  0.80189  0.05763  1.0000
  C   C722      1.0  0.30115  0.79872  0.08074  1.0000
  H   H553      1.0  0.30644  0.84540  0.18951  1.0000
  H   H554      1.0  0.28520  0.83589  0.23977  1.0000
  H   H555      1.0  0.26190  0.80787  0.24676  1.0000
  H   H556      1.0  0.26037  0.78910  0.20378  1.0000
  H   H557      1.0  0.30455  0.82695  0.14618  1.0000
  H   H558      1.0  0.21951  0.77238  0.14637  1.0000
  H   H559      1.0  0.16219  0.77677  0.13224  1.0000
  H   H560      1.0  0.14642  0.80293  0.10757  1.0000
  H   H561      1.0  0.18887  0.82474  0.09721  1.0000
  H   H562      1.0  0.24677  0.82044  0.11137  1.0000
  H   H563      1.0  0.26439  0.76209  0.11182  1.0000
  H   H564      1.0  0.28008  0.73333  0.12181  1.0000
  H   H565      1.0  0.31615  0.72663  0.16343  1.0000
  H   H566      1.0  0.33519  0.74883  0.19594  1.0000
  H   H567      1.0  0.31948  0.77755  0.18661  1.0000
  H   H568      1.0  0.35065  0.80068  0.13994  1.0000
  H   H569      1.0  0.39290  0.80650  0.09900  1.0000
  H   H570      1.0  0.37687  0.80713  0.04626  1.0000
  H   H571      1.0  0.31825  0.80199  0.03458  1.0000
  H   H572      1.0  0.27588  0.79617  0.07524  1.0000
  C   C723      1.0  0.24099  0.72611  0.33390  1.0000
  C   C724      1.0  0.19109  0.71882  0.28846  1.0000
  C   C725      1.0  0.20579  0.70382  0.27975  1.0000
  C   C726      1.0  0.18589  0.70310  0.37034  1.0000
  H   H573      1.0  0.40367  0.90277  0.07939  1.0000
  C   C727      1.0  0.11262  0.69328  0.47673  1.0000
  C   C728      1.0  0.16991  0.72684  0.26904  1.0000
  H   H574      1.0  0.16931  0.74633  0.37522  1.0000
  C   C729      1.0  0.26619  0.72406  0.31128  1.0000
  C   C730      1.0  0.48290  0.95844  0.28082  1.0000
  H   H575      1.0  0.24833  0.98960  0.09609  1.0000
  H   H576      1.0  0.15200  0.71002  0.46237  1.0000
  H   H577      1.0  0.48995  0.95356  0.25909  1.0000
  H   H578      1.0  0.15718  0.73807  0.27543  1.0000
  C   C731      1.0  0.39725  0.92082  0.23075  1.0000
  C   C732      1.0  0.44562  0.89865  0.36655  1.0000
  C   C733      1.0  0.45184  0.89158  0.33845  1.0000
  C   C734      1.0  0.44161  0.91566  0.36900  1.0000
  C   C735      1.0  0.44462  0.87198  0.27687  1.0000
  C   C736      1.0  0.46342  0.85840  0.28587  1.0000
  C   C737      1.0  0.44975  0.84258  0.28641  1.0000
  C   C738      1.0  0.41706  0.84019  0.27846  1.0000
  C   C739      1.0  0.39791  0.85364  0.27021  1.0000
  C   C740      1.0  0.41150  0.86948  0.26955  1.0000
  H   H579      1.0  0.29666  0.80485  0.40420  1.0000
  H   H580      1.0  0.44340  0.89098  0.38640  1.0000
  H   H581      1.0  0.45464  0.87837  0.33700  1.0000
  C   C741      1.0  0.32517  0.83947  0.43662  1.0000
  H   H582      1.0  0.24007  0.67390  0.03066  1.0000
  H   H583      1.0  0.40643  0.82792  0.27901  1.0000
  H   H584      1.0  0.37229  0.85182  0.26466  1.0000
  H   H585      1.0  0.39577  0.87967  0.26372  1.0000
  C   C742      1.0  0.17200  0.71474  0.35123  1.0000
  C   C743      1.0  0.28347  0.71672  0.03003  1.0000
  H   H586      1.0  0.48548  0.90283  0.21525  1.0000
  H   H587      1.0  0.17528  0.75841  0.43275  1.0000
  H   H588      1.0  0.37044  0.73666  0.00595  1.0000
  H   H589      1.0  0.40382  0.93182  0.18696  1.0000
  H   H590      1.0  0.11446  0.73311  0.45325  1.0000
  H   H591      1.0  0.18333  0.75647  0.00681  1.0000
  H   H592      1.0  0.33938  0.84365  0.45484  1.0000
  C   C744      1.0  0.43438  0.97167  0.42330  1.0000
  C   C745      1.0  0.46848  0.97488  0.42050  1.0000
  H   H593      1.0  0.44698  0.92026  0.05319  1.0000
  H   H594      1.0  0.28768  0.71215  0.07749  1.0000
  C   C746      1.0  0.16674  0.77122  0.35913  1.0000
  H   H595      1.0  0.14958  0.72689  0.22542  1.0000
  H   H596      1.0  0.45563  0.86228  0.40129  1.0000
  H   H597      1.0  0.07800  0.73181  0.40361  1.0000
  H   H598      1.0  0.31353  0.98248  0.01848  1.0000
  C   C747      1.0  0.29660  0.97962  0.10439  1.0000
  H   H599      1.0  0.26389  0.80206  0.44998  1.0000
  C   C748      1.0  0.27982  0.70734  0.05660  1.0000
  H   H600      1.0  0.32050  0.76445  0.06825  1.0000
  H   H601      1.0  0.36196  0.76647  0.10649  1.0000
  C   C749      1.0  0.28327  0.72841  0.37032  1.0000
  H   H602      1.0  0.45664  0.97637  0.35840  1.0000
  C   C750      1.0  0.41486  0.92410  0.20362  1.0000
  C   C751      1.0  0.32737  0.97453  0.09162  1.0000
  H   H603      1.0  0.39573  0.86661  0.39407  1.0000
  H   H604      1.0  0.42091  0.96619  0.09247  1.0000
  H   H605      1.0  0.41085  0.79157  0.36957  1.0000
  H   H606      1.0  0.39079  0.71627  0.09114  1.0000
  C   C752      1.0  0.31950  0.82261  0.43227  1.0000
  P   P27       1.0  0.19778  0.72691  0.32512  1.0000
  H   H607      1.0  0.45194  0.92663  0.29576  1.0000
  H   H608      1.0  0.37863  0.81120  0.40155  1.0000
  H   H609      1.0  0.00202  0.67941  0.00292  1.0000
  H   H610      1.0  0.12611  0.72479  0.33598  1.0000
  C   C753      1.0  0.26699  0.76748  0.02820  1.0000
  C   C754      1.0  0.11676  0.70679  0.37098  1.0000
  C   C755      1.0  0.06732  0.77885  0.41383  1.0000
  C   C756      1.0  0.16501  0.72039  0.24080  1.0000
  H   H611      1.0  0.17703  0.70090  0.20988  1.0000
  P   P28       1.0  0.04164  0.73686  0.46115  1.0000
  H   H612      1.0  0.22143  0.69718  0.29468  1.0000
  C   C757      1.0  0.07510  0.74492  0.40670  1.0000
  C   C758      1.0  0.37892  0.74151  0.10131  1.0000
  C   C759      1.0  0.30109  0.81779  0.40816  1.0000
  H   H613      1.0  0.31891  0.72265  0.30058  1.0000
  H   H614      1.0  0.09230  0.78115  0.37017  1.0000
  C   C760      1.0  0.45368  0.90151  0.31252  1.0000
  H   H615      1.0  0.09920  0.75104  0.36381  1.0000
  H   H616      1.0  0.44116  0.93879  0.34544  1.0000
  C   C761      1.0  0.44360  0.90475  0.24771  1.0000
  C   C762      1.0  0.29424  0.84628  0.39322  1.0000
  C   C763      1.0  0.20074  0.69738  0.25152  1.0000
  C   C764      1.0  0.37880  0.79831  0.40778  1.0000
  H   H617      1.0  0.46607  0.90405  0.43572  1.0000
  H   H618      1.0  0.23103  0.73120  0.38099  1.0000
  C   C765      1.0  0.44670  0.91758  0.19823  1.0000
  C   C766      1.0  0.31257  0.85123  0.41713  1.0000
  C   C767      1.0  0.18054  0.70572  0.23198  1.0000
  C   C768      1.0  0.48160  0.80404  0.40215  1.0000
  H   H619      1.0  0.43616  0.93260  0.45056  1.0000
  C   C769      1.0  0.99753  0.71729  0.08718  1.0000
  C   C770      1.0  0.06926  0.71955  0.46589  1.0000
  H   H620      1.0  0.24567  0.69043  0.98378  1.0000
  C   C771      1.0  0.26475  0.69184  0.05667  1.0000
  C   C772      1.0  0.39888  0.81560  0.47672  1.0000
  C   C773      1.0  0.36016  0.79267  0.43332  1.0000
  C   C774      1.0  0.37911  0.76484  0.42270  1.0000
  C   C775      1.0  0.48005  0.94740  0.43916  1.0000
  H   H621      1.0  0.47198  0.84182  0.44268  1.0000
  C   C776      1.0  0.35087  0.95939  0.98919  1.0000
  H   H622      1.0  0.20843  0.98293  0.22413  1.0000
  H   H623      1.0  0.27257  0.71752  0.98316  1.0000
  H   H624      1.0  0.41673  0.98082  0.41627  1.0000
  H   H625      1.0  0.47745  0.98645  0.41097  1.0000
  C   C777      1.0  0.40411  0.97336  0.98722  1.0000
  C   C778      1.0  0.00136  0.72979  0.45038  1.0000
  C   C779      1.0  0.27826  0.98632  0.05519  1.0000
  C   C780      1.0  0.99620  0.72755  0.06202  1.0000
  C   C781      1.0  0.48649  0.78721  0.40719  1.0000
  C   C782      1.0  0.49184  0.91570  0.47095  1.0000
  H   H626      1.0  0.46586  0.77947  0.41505  1.0000
  H   H627      1.0  0.46191  0.98581  0.11019  1.0000
  C   C783      1.0  0.49124  0.96285  0.42844  1.0000
  C   C784      1.0  0.05673  0.70444  0.47714  1.0000
  C   C785      1.0  0.99628  0.65948  0.12965  1.0000
  H   H628      1.0  0.12946  0.68336  0.48203  1.0000
  C   C786      1.0  0.38503  0.98274  0.19549  1.0000
  C   C787      1.0  0.37132  0.98818  0.16914  1.0000
  C   C788      1.0  0.41551  0.98904  0.20361  1.0000
  H   H629      1.0  0.34756  0.98338  0.16297  1.0000
  C   C789      1.0  0.32964  0.98817  0.42428  1.0000
  C   C790      1.0  0.23110  0.98822  0.21404  1.0000
  H   H630      1.0  0.42602  0.98452  0.22380  1.0000
  C   C791      1.0  0.27199  0.98541  0.08614  1.0000
  C   C792      1.0  0.27102  0.79616  0.47033  1.0000
  C   C793      1.0  0.24044  0.74624  0.47250  1.0000
  C   C794      1.0  0.30408  0.79650  0.47891  1.0000
  C   C795      1.0  0.36413  0.81661  0.48162  1.0000
  H   H631      1.0  0.22127  0.78712  0.48067  1.0000
  C   C796      1.0  0.34639  0.99103  0.45057  1.0000
  Fe  Fe53      1.0  0.35844  0.96299  0.82735  1.0000
  S   S105      1.0  0.33601  0.94934  0.86703  1.0000
  S   S106      1.0  0.40776  0.97545  0.82619  1.0000
  Fe  Fe54      1.0  0.29910  0.95978  0.79047  1.0000
  S   S107      1.0  0.27011  0.94585  0.82768  1.0000
  S   S108      1.0  0.28438  0.96406  0.74223  1.0000
  Fe  Fe55      1.0  0.29085  0.96441  0.85909  1.0000
  H   H632      1.0  0.36161  0.75409  0.91592  1.0000
  Fe  Fe56      1.0  0.31720  0.93134  0.83379  1.0000
  S   S109      1.0  0.32359  0.90448  0.84941  1.0000
  S   S110      1.0  0.31486  0.97948  0.82135  1.0000
  S   S111      1.0  0.34461  0.94392  0.79478  1.0000
  Fe  Fe57      1.0  0.15604  0.69712  0.57349  1.0000
  S   S112      1.0  0.13925  0.71043  0.61583  1.0000
  C   C797      1.0  0.31207  0.78822  0.50531  1.0000
  Fe  Fe58      1.0  0.16587  0.72997  0.53732  1.0000
  S   S113      1.0  0.14843  0.74477  0.57758  1.0000
  C   C798      1.0  0.40095  0.97908  0.68074  1.0000
  Fe  Fe59      1.0  0.18119  0.72827  0.60440  1.0000
  S   S114      1.0  0.21541  0.74228  0.63560  1.0000
  Fe  Fe60      1.0  0.10793  0.72581  0.58619  1.0000
  S   S115      1.0  0.05420  0.73216  0.60214  1.0000
  S   S116      1.0  0.20035  0.71405  0.56330  1.0000
  S   S117      1.0  0.12295  0.71219  0.54462  1.0000
  Fe  Fe61      1.0  0.29379  0.80659  0.82084  1.0000
  S   S118      1.0  0.31365  0.79920  0.86476  1.0000
  S   S119      1.0  0.28680  0.83282  0.80221  1.0000
  Fe  Fe62      1.0  0.28486  0.77041  0.80197  1.0000
  S   S120      1.0  0.30600  0.76075  0.84501  1.0000
  S   S121      1.0  0.26170  0.75152  0.77039  1.0000
  Fe  Fe63      1.0  0.27362  0.77961  0.86889  1.0000
  S   S122      1.0  0.24223  0.77696  0.91384  1.0000
  Fe  Fe64      1.0  0.34500  0.78081  0.83823  1.0000
  S   S123      1.0  0.39853  0.78068  0.85422  1.0000
  S   S124      1.0  0.25107  0.78855  0.82658  1.0000
  S   S125      1.0  0.32652  0.78901  0.79370  1.0000
  C   C799      1.0  0.43925  0.77756  0.83715  1.0000
  H   H633      1.0  0.39502  0.98180  0.65793  1.0000
  C   C800      1.0  0.47950  0.94490  0.73552  1.0000
  C   C801      1.0  0.44459  0.77198  0.80784  1.0000
  H   H634      1.0  0.46344  0.78459  0.87683  1.0000
  H   H635      1.0  0.42351  0.76960  0.79456  1.0000
  C   C802      1.0  0.01672  0.72567  0.58618  1.0000
  H   H636      1.0  0.38334  0.96245  0.91746  1.0000
  H   H637      1.0  0.04015  0.70974  0.55327  1.0000
  H   H638      1.0  0.45159  0.92062  0.84783  1.0000
  H   H639      1.0  0.21739  0.71910  0.94569  1.0000
  C   C803      1.0  0.01676  0.71456  0.56252  1.0000
  C   C804      1.0  0.20881  0.76510  0.96554  1.0000
  C   C805      1.0  0.22509  0.76087  0.93797  1.0000
  C   C806      1.0  0.22784  0.74413  0.93100  1.0000
  C   C807      1.0  0.21486  0.73195  0.95139  1.0000
  H   H640      1.0  0.35161  0.97046  0.69343  1.0000
  C   C808      1.0  0.31645  0.98972  0.92418  1.0000
  H   H641      1.0  0.24035  0.74054  0.91009  1.0000
  C   C809      1.0  0.18270  0.67960  0.67159  1.0000
  C   C810      1.0  0.22734  0.74461  0.67349  1.0000
  C   C811      1.0  0.21887  0.73319  0.69634  1.0000
  C   C812      1.0  0.22966  0.73549  0.72561  1.0000
  C   C813      1.0  0.24837  0.74944  0.73289  1.0000
  C   C814      1.0  0.25612  0.76105  0.71021  1.0000
  C   C815      1.0  0.24599  0.75855  0.68080  1.0000
  H   H642      1.0  0.20440  0.72247  0.69133  1.0000
  H   H643      1.0  0.22360  0.72633  0.74274  1.0000
  H   H644      1.0  0.27050  0.77182  0.71516  1.0000
  H   H645      1.0  0.25267  0.76754  0.66351  1.0000
  C   C816      1.0  0.43806  0.96158  0.83701  1.0000
  C   C817      1.0  0.48599  0.82901  0.91623  1.0000
  C   C818      1.0  0.45632  0.93371  0.84706  1.0000
  C   C819      1.0  0.43147  0.94467  0.83864  1.0000
  C   C820      1.0  0.31570  0.75201  0.94280  1.0000
  H   H646      1.0  0.40744  0.94001  0.83312  1.0000
  H   H647      1.0  0.28226  0.96871  0.67849  1.0000
  C   C821      1.0  0.06297  0.75699  0.54121  1.0000
  H   H648      1.0  0.36114  0.83861  0.54612  1.0000
  H   H649      1.0  0.45076  0.88181  0.52280  1.0000
  H   H650      1.0  0.30051  0.75624  0.92499  1.0000
  H   H651      1.0  0.46356  0.94541  0.71685  1.0000
  C   C822      1.0  0.31401  0.88466  0.83539  1.0000
  C   C823      1.0  0.30022  0.88256  0.80774  1.0000
  C   C824      1.0  0.29259  0.86661  0.79785  1.0000
  C   C825      1.0  0.29840  0.85254  0.81548  1.0000
  C   C826      1.0  0.31264  0.85464  0.84298  1.0000
  C   C827      1.0  0.32042  0.87058  0.85280  1.0000
  H   H652      1.0  0.29548  0.89323  0.79399  1.0000
  H   H653      1.0  0.28201  0.86514  0.77639  1.0000
  H   H654      1.0  0.31739  0.84399  0.85680  1.0000
  H   H655      1.0  0.33131  0.87203  0.87415  1.0000
  C   C828      1.0  0.36968  0.74520  0.96058  1.0000
  C   C829      1.0  0.47305  0.82480  0.86471  1.0000
  H   H656      1.0  0.33741  0.78804  0.51224  1.0000
  H   H657      1.0  0.04194  0.69337  0.61174  1.0000
  H   H658      1.0  0.44692  0.82279  0.94935  1.0000
  H   H659      1.0  0.47394  0.98063  0.84363  1.0000
  C   C830      1.0  0.12340  0.67507  0.77777  1.0000
  H   H660      1.0  0.17034  0.67722  0.62545  1.0000
  C   C831      1.0  0.37640  0.97264  0.70071  1.0000
  C   C832      1.0  0.19887  0.73619  0.97911  1.0000
  H   H661      1.0  0.44000  0.97867  0.51128  1.0000
  H   H662      1.0  0.45170  0.98647  0.67386  1.0000
  H   H663      1.0  0.15008  0.70447  0.71191  1.0000
  C   C833      1.0  0.41605  0.97130  0.73938  1.0000
  C   C834      1.0  0.21903  0.68734  0.62857  1.0000
  H   H664      1.0  0.01286  0.79002  0.80831  1.0000
  H   H665      1.0  0.42161  0.96781  0.76201  1.0000
  H   H666      1.0  0.22348  0.68836  0.60455  1.0000
  C   C835      1.0  0.18357  0.92770  0.90445  1.0000
  C   C836      1.0  0.21657  0.93244  0.90761  1.0000
  C   C837      1.0  0.24218  0.92501  0.89030  1.0000
  C   C838      1.0  0.23478  0.91315  0.86932  1.0000
  C   C839      1.0  0.20178  0.90834  0.86585  1.0000
  C   C840      1.0  0.17614  0.91564  0.88374  1.0000
  P   P29       1.0  0.19303  0.89353  0.83750  1.0000
  C   C841      1.0  0.21285  0.90063  0.80242  1.0000
  C   C842      1.0  0.20739  0.87316  0.84747  1.0000
  C   C843      1.0  0.19580  0.85933  0.83259  1.0000
  C   C844      1.0  0.20656  0.84353  0.84017  1.0000
  C   C845      1.0  0.22856  0.84136  0.86290  1.0000
  C   C846      1.0  0.23978  0.85499  0.87813  1.0000
  C   C847      1.0  0.22946  0.87084  0.87038  1.0000
  C   C848      1.0  0.21640  0.91759  0.79660  1.0000
  C   C849      1.0  0.23179  0.92323  0.76963  1.0000
  C   C850      1.0  0.24346  0.91202  0.74813  1.0000
  C   C851      1.0  0.23951  0.89514  0.75346  1.0000
  C   C852      1.0  0.22421  0.88944  0.78047  1.0000
  C   C853      1.0  0.14867  0.89243  0.83361  1.0000
  C   C854      1.0  0.12886  0.88258  0.85346  1.0000
  C   C855      1.0  0.09441  0.88183  0.85097  1.0000
  C   C856      1.0  0.07948  0.89097  0.82873  1.0000
  C   C857      1.0  0.09900  0.90088  0.80901  1.0000
  C   C858      1.0  0.13347  0.90166  0.81143  1.0000
  H   H667      1.0  0.16375  0.93355  0.91782  1.0000
  H   H668      1.0  0.22237  0.94204  0.92314  1.0000
  H   H669      1.0  0.26778  0.92874  0.89256  1.0000
  H   H670      1.0  0.25475  0.90785  0.85540  1.0000
  H   H671      1.0  0.15040  0.91233  0.88148  1.0000
  H   H672      1.0  0.17878  0.86078  0.81489  1.0000
  H   H673      1.0  0.19849  0.83292  0.82810  1.0000
  H   H674      1.0  0.23756  0.82915  0.86819  1.0000
  H   H675      1.0  0.25738  0.85331  0.89534  1.0000
  H   H676      1.0  0.23917  0.88112  0.88221  1.0000
  H   H677      1.0  0.20741  0.92651  0.81290  1.0000
  H   H678      1.0  0.23498  0.93634  0.76546  1.0000
  H   H679      1.0  0.25564  0.91648  0.72739  1.0000
  H   H680      1.0  0.24873  0.88643  0.73683  1.0000
  H   H681      1.0  0.22195  0.87634  0.78423  1.0000
  H   H682      1.0  0.14003  0.87556  0.87102  1.0000
  H   H683      1.0  0.07926  0.87423  0.86639  1.0000
  H   H684      1.0  0.05277  0.89045  0.82687  1.0000
  H   H685      1.0  0.08742  0.90805  0.79187  1.0000
  H   H686      1.0  0.14803  0.90952  0.79606  1.0000
  C   C859      1.0  0.28988  0.98201  0.71893  1.0000
  C   C860      1.0  0.38141  0.96373  0.94158  1.0000
  C   C861      1.0  0.35014  0.75078  0.93769  1.0000
  C   C862      1.0  0.37172  0.83227  0.52666  1.0000
  H   H687      1.0  0.04993  0.70778  0.65901  1.0000
  C   C863      1.0  0.08010  0.67536  0.61879  1.0000
  C   C864      1.0  0.46045  0.98721  0.50724  1.0000
  H   H688      1.0  0.27408  0.74877  0.97440  1.0000
  H   H689      1.0  0.49175  0.85704  0.48576  1.0000
  C   C865      1.0  0.06482  0.69700  0.65348  1.0000
  H   H690      1.0  0.08949  0.74348  0.50682  1.0000
  C   C866      1.0  0.28733  0.98061  0.68780  1.0000
  H   H691      1.0  0.36452  0.96396  0.74532  1.0000
  S   S126      1.0  0.14605  0.66961  0.56509  1.0000
  H   H692      1.0  0.11998  0.65958  0.63077  1.0000
  C   C867      1.0  0.48567  0.92970  0.74900  1.0000
  C   C868      1.0  0.25472  0.77955  0.51399  1.0000
  C   C869      1.0  0.47998  0.88027  0.80145  1.0000
  H   H693      1.0  0.25681  0.69469  0.69305  1.0000
  H   H694      1.0  0.49018  0.88842  0.84608  1.0000
  H   H695      1.0  0.47823  0.84738  0.78551  1.0000
  C   C870      1.0  0.41981  0.82281  0.49678  1.0000
  H   H696      1.0  0.39636  0.74408  0.95645  1.0000
  H   H697      1.0  0.12656  0.69645  0.80555  1.0000
  C   C871      1.0  0.13859  0.70227  0.75917  1.0000
  C   C872      1.0  0.44097  0.97782  0.71943  1.0000
  C   C873      1.0  0.00781  0.75489  0.50629  1.0000
  C   C874      1.0  0.35072  0.82506  0.50668  1.0000
  H   H698      1.0  0.24598  0.74024  0.49333  1.0000
  C   C875      1.0  0.15624  0.76249  0.68427  1.0000
  C   C876      1.0  0.13629  0.74848  0.68322  1.0000
  C   C877      1.0  0.12020  0.74230  0.70943  1.0000
  C   C878      1.0  0.12415  0.75011  0.73668  1.0000
  C   C879      1.0  0.14465  0.76405  0.73797  1.0000
  C   C880      1.0  0.16070  0.77019  0.71151  1.0000
  P   P30       1.0  0.14746  0.77458  0.77309  1.0000
  C   C881      1.0  0.16724  0.76200  0.80052  1.0000
  C   C882      1.0  0.17265  0.79292  0.76825  1.0000
  C   C883      1.0  0.20709  0.79134  0.76222  1.0000
  C   C884      1.0  0.22736  0.80529  0.75939  1.0000
  C   C885      1.0  0.21343  0.82095  0.76261  1.0000
  C   C886      1.0  0.17912  0.82267  0.76844  1.0000
  C   C887      1.0  0.15875  0.80872  0.77139  1.0000
  C   C888      1.0  0.17335  0.76861  0.82854  1.0000
  C   C889      1.0  0.18932  0.75919  0.84979  1.0000
  C   C890      1.0  0.20000  0.74325  0.84298  1.0000
  C   C891      1.0  0.19456  0.73669  0.81497  1.0000
  C   C892      1.0  0.17831  0.74603  0.79377  1.0000
  C   C893      1.0  0.10512  0.77973  0.78500  1.0000
  C   C894      1.0  0.08444  0.78712  0.76445  1.0000
  C   C895      1.0  0.05133  0.79086  0.77286  1.0000
  C   C896      1.0  0.03856  0.78718  0.80182  1.0000
  C   C897      1.0  0.05886  0.77969  0.82234  1.0000
  C   C898      1.0  0.09197  0.77590  0.81397  1.0000
  H   H699      1.0  0.16900  0.76713  0.66391  1.0000
  H   H700      1.0  0.13356  0.74242  0.66204  1.0000
  H   H701      1.0  0.10449  0.73153  0.70845  1.0000
  H   H702      1.0  0.11111  0.74537  0.75676  1.0000
  H   H703      1.0  0.17667  0.78088  0.71159  1.0000
  H   H704      1.0  0.21837  0.77928  0.76014  1.0000
  H   H705      1.0  0.25405  0.80394  0.75535  1.0000
  H   H706      1.0  0.22942  0.83170  0.76100  1.0000
  H   H707      1.0  0.16842  0.83483  0.77100  1.0000
  H   H708      1.0  0.13241  0.81036  0.77643  1.0000
  H   H709      1.0  0.16625  0.78114  0.83384  1.0000
  H   H710      1.0  0.19433  0.76440  0.87127  1.0000
  H   H711      1.0  0.21333  0.73618  0.85912  1.0000
  H   H712      1.0  0.20432  0.72465  0.80918  1.0000
  H   H713      1.0  0.17591  0.74100  0.77179  1.0000
  H   H714      1.0  0.09394  0.78993  0.74182  1.0000
  H   H715      1.0  0.03553  0.79652  0.75683  1.0000
  H   H716      1.0  0.26632  0.69784  0.63812  1.0000
  H   H717      1.0  0.04888  0.77671  0.84473  1.0000
  H   H718      1.0  0.10688  0.76983  0.83013  1.0000
  C   C899      1.0  0.39036  0.83036  0.80835  1.0000
  C   C900      1.0  0.41496  0.81998  0.79591  1.0000
  C   C901      1.0  0.44650  0.82627  0.78759  1.0000
  C   C902      1.0  0.45342  0.84297  0.79152  1.0000
  C   C903      1.0  0.42866  0.85354  0.80375  1.0000
  C   C904      1.0  0.39731  0.84700  0.81256  1.0000
  P   P31       1.0  0.43674  0.87513  0.81001  1.0000
  C   C905      1.0  0.42539  0.87886  0.84893  1.0000
  C   C906      1.0  0.44124  0.81936  0.87430  1.0000
  C   C907      1.0  0.38388  0.96882  0.73000  1.0000
  H   H719      1.0  0.06871  0.67992  0.49207  1.0000
  H   H720      1.0  0.42852  0.97606  0.94332  1.0000
  H   H721      1.0  0.47991  0.82485  0.84107  1.0000
  C   C908      1.0  0.08947  0.69171  0.67226  1.0000
  C   C909      1.0  0.40635  0.89263  0.85774  1.0000
  C   C910      1.0  0.39689  0.89499  0.88788  1.0000
  C   C911      1.0  0.40615  0.88359  0.90945  1.0000
  C   C912      1.0  0.42501  0.86981  0.90088  1.0000
  C   C913      1.0  0.43473  0.86750  0.87075  1.0000
  C   C914      1.0  0.41279  0.88843  0.78672  1.0000
  C   C915      1.0  0.38485  0.88265  0.77258  1.0000
  C   C916      1.0  0.36612  0.89340  0.75562  1.0000
  C   C917      1.0  0.37515  0.90996  0.75255  1.0000
  C   C918      1.0  0.40297  0.91579  0.76645  1.0000
  C   C919      1.0  0.42167  0.90510  0.78350  1.0000
  H   H722      1.0  0.36587  0.82549  0.81491  1.0000
  H   H723      1.0  0.40970  0.80699  0.79322  1.0000
  H   H724      1.0  0.32398  0.82598  0.51084  1.0000
  C   C920      1.0  0.20792  0.68410  0.69045  1.0000
  H   H725      1.0  0.37816  0.85483  0.82264  1.0000
  H   H726      1.0  0.29382  0.77324  0.54285  1.0000
  C   C921      1.0  0.18884  0.68097  0.64055  1.0000
  C   C922      1.0  0.10974  0.67816  0.66436  1.0000
  H   H727      1.0  0.42245  0.83649  0.53753  1.0000
  H   H728      1.0  0.46575  0.81808  0.77853  1.0000
  H   H729      1.0  0.39808  0.90148  0.84155  1.0000
  H   H730      1.0  0.38172  0.90555  0.89427  1.0000
  H   H731      1.0  0.39838  0.88539  0.93273  1.0000
  H   H732      1.0  0.40728  0.81408  0.91189  1.0000
  C   C923      1.0  0.06571  0.74880  0.51394  1.0000
  H   H733      1.0  0.37694  0.86998  0.77482  1.0000
  H   H734      1.0  0.34414  0.88894  0.74538  1.0000
  H   H735      1.0  0.36019  0.91834  0.73991  1.0000
  H   H736      1.0  0.40957  0.92871  0.76468  1.0000
  H   H737      1.0  0.44255  0.90996  0.79486  1.0000
  S   S127      1.0  0.17285  0.74229  0.49039  1.0000
  H   H738      1.0  0.20454  0.68263  0.71446  1.0000
  H   H739      1.0  0.09284  0.69846  0.69244  1.0000
  C   C924      1.0  0.28748  0.77979  0.52274  1.0000
  C   C925      1.0  0.45413  0.82354  0.92572  1.0000
  H   H740      1.0  0.47463  0.91861  0.74080  1.0000
  H   H741      1.0  0.23577  0.77271  0.52709  1.0000
  C   C926      1.0  0.14229  0.69617  0.73013  1.0000
  P   P32       1.0  0.14333  0.67167  0.68710  1.0000
  H   H742      1.0  0.42412  0.81515  0.85817  1.0000
  C   C927      1.0  0.43177  0.81869  0.90473  1.0000
  C   C928      1.0  0.40625  0.83111  0.52176  1.0000
  C   C929      1.0  0.48333  0.90286  0.52004  1.0000
  C   C930      1.0  0.03258  0.76375  0.55141  1.0000
  H   H743      1.0  0.44924  0.85679  0.86433  1.0000
  C   C931      1.0  0.06027  0.68888  0.62670  1.0000
  C   C932      1.0  0.12914  0.69173  0.78300  1.0000
  H   H744      1.0  0.08416  0.75760  0.55502  1.0000
  C   C933      1.0  0.43307  0.98176  0.69002  1.0000
  H   H745      1.0  0.48914  0.97731  0.54245  1.0000
  C   C934      1.0  0.03797  0.74745  0.49644  1.0000
  H   H746      1.0  0.20631  0.77794  0.97131  1.0000
  C   C935      1.0  0.46899  0.96756  0.84444  1.0000
  H   H747      1.0  0.43182  0.86085  0.91752  1.0000
  C   C936      1.0  0.24332  0.69248  0.64747  1.0000
  H   H748      1.0  0.03031  0.76943  0.57319  1.0000
  C   C937      1.0  0.47730  0.76896  0.79593  1.0000
  C   C938      1.0  0.46716  0.78042  0.85405  1.0000
  H   H749      1.0  0.48797  0.90255  0.54365  1.0000
  C   C939      1.0  0.40675  0.97151  0.95615  1.0000
  S   S128      1.0  0.26195  0.97509  0.89971  1.0000
  H   H750      1.0  0.14346  0.71514  0.76320  1.0000
  C   C940      1.0  0.24652  0.78774  0.48784  1.0000
  H   H751      1.0  0.44658  0.82172  0.49317  1.0000
  C   C941      1.0  0.46244  0.89114  0.50827  1.0000
  C   C942      1.0  0.12719  0.66890  0.74872  1.0000
  H   H752      1.0  0.48097  0.76426  0.77349  1.0000
  H   H753      1.0  0.33364  0.95184  0.94668  1.0000
  C   C943      1.0  0.13662  0.67943  0.72465  1.0000
  C   C944      1.0  0.23789  0.69073  0.67840  1.0000
  C   C945      1.0  0.35347  0.95769  0.95809  1.0000
  P   P33       1.0  0.48344  0.97907  0.73047  1.0000
  C   C946      1.0  0.10453  0.66994  0.63760  1.0000
  H   H754      1.0  0.47789  0.87472  0.75446  1.0000
  H   H755      1.0  0.33112  0.98486  0.90533  1.0000
  H   H756      1.0  0.07728  0.66931  0.59762  1.0000
  C   C947      1.0  0.28219  0.98677  0.92681  1.0000
  C   C948      1.0  0.48754  0.93969  0.85397  1.0000
  C   C949      1.0  0.30079  0.74782  0.97081  1.0000
  H   H757      1.0  0.11640  0.66687  0.79630  1.0000
  C   C950      1.0  0.00504  0.76277  0.53390  1.0000
  C   C951      1.0  0.48809  0.98645  0.52477  1.0000
  H   H758      1.0  0.03045  0.70282  0.48268  1.0000
  C   C952      1.0  0.07836  0.69137  0.48249  1.0000
  Fe  Fe65      1.0  0.80278  0.28156  0.36419  1.0000
  S   S129      1.0  0.83479  0.26633  0.33179  1.0000
  S   S130      1.0  0.77906  0.27612  0.41189  1.0000
  Fe  Fe66      1.0  0.80530  0.31135  0.32027  1.0000
  S   S131      1.0  0.83571  0.29757  0.28496  1.0000
  Fe  Fe67      1.0  0.80205  0.27578  0.29566  1.0000
  S   S132      1.0  0.78479  0.25595  0.26285  1.0000
  Fe  Fe68      1.0  0.86621  0.28912  0.32325  1.0000
  S   S133      1.0  0.92272  0.29081  0.31178  1.0000
  S   S134      1.0  0.76936  0.29013  0.32841  1.0000
  S   S135      1.0  0.83680  0.30380  0.35800  1.0000
  Fe  Fe69      1.0  0.60515  0.21592  0.08752  1.0000
  S   S136      1.0  0.63245  0.20719  0.04540  1.0000
  S   S137      1.0  0.54957  0.21252  0.10212  1.0000
  Fe  Fe70      1.0  0.67117  0.22539  0.11722  1.0000
  S   S138      1.0  0.70256  0.21643  0.07707  1.0000
  S   S139      1.0  0.68619  0.24136  0.15729  1.0000
  Fe  Fe71      1.0  0.66629  0.22930  0.04807  1.0000
  C   C953      1.0  0.68212  0.27936  0.32595  1.0000
  Fe  Fe72      1.0  0.66696  0.19464  0.07658  1.0000
  S   S140      1.0  0.68290  0.16854  0.06212  1.0000
  S   S141      1.0  0.63593  0.23910  0.08821  1.0000
  S   S142      1.0  0.63862  0.20263  0.11875  1.0000
  Fe  Fe73      1.0  0.61104  0.03610  0.11736  1.0000
  S   S143      1.0  0.66200  0.04411  0.09976  1.0000
  S   S144      1.0  0.59435  0.02466  0.16300  1.0000
  Fe  Fe74      1.0  0.57947  0.05117  0.06195  1.0000
  S   S145      1.0  0.62804  0.05998  0.04093  1.0000
  S   S146      1.0  0.53422  0.05715  0.03684  1.0000
  Fe  Fe75      1.0  0.64602  0.03486  0.05482  1.0000
  S   S147      1.0  0.67558  0.01704  0.02405  1.0000
  Fe  Fe76      1.0  0.63851  0.06859  0.08725  1.0000
  S   S148      1.0  0.64715  0.09467  0.10515  1.0000
  S   S149      1.0  0.59639  0.02573  0.07343  1.0000
  S   S150      1.0  0.58847  0.06076  0.10724  1.0000
  C   C954      1.0  0.69409  0.30208  0.35829  1.0000
  C   C955      1.0  0.93421  0.17159  0.33841  1.0000
  H   H759      1.0  0.91675  0.26076  0.36119  1.0000
  C   C956      1.0  0.56154  0.26429  0.12779  1.0000
  C   C957      1.0  0.75746  0.18530  0.02797  1.0000
  H   H760      1.0  0.93695  0.25706  0.29725  1.0000
  C   C958      1.0  0.61405  0.01164  0.18912  1.0000
  C   C959      1.0  0.59707  0.00806  0.21677  1.0000
  H   H761      1.0  0.52910  0.99565  0.22731  1.0000
  H   H762      1.0  0.57358  0.01404  0.22219  1.0000
  H   H763      1.0  0.61632  0.24149  0.18397  1.0000
  P   P34       1.0  0.53928  0.27365  0.09817  1.0000
  C   C960      1.0  0.53558  0.29561  0.10240  1.0000
  H   H764      1.0  0.49596  0.26455  0.04997  1.0000
  H   H765      1.0  0.52386  0.04545  0.09755  1.0000
  C   C961      1.0  0.66997  0.14826  0.07356  1.0000
  C   C962      1.0  0.65260  0.14497  0.10093  1.0000
  C   C963      1.0  0.64538  0.12855  0.10990  1.0000
  C   C964      1.0  0.65451  0.11519  0.09137  1.0000
  C   C965      1.0  0.67051  0.11854  0.06341  1.0000
  C   C966      1.0  0.67852  0.13492  0.05478  1.0000
  H   H766      1.0  0.64575  0.15502  0.11565  1.0000
  H   H767      1.0  0.63298  0.12618  0.13157  1.0000
  H   H768      1.0  0.67786  0.10847  0.04892  1.0000
  H   H769      1.0  0.69189  0.13726  0.03354  1.0000
  C   C967      1.0  0.75846  0.26021  0.43425  1.0000
  C   C968      1.0  0.76218  0.24345  0.42794  1.0000
  C   C969      1.0  0.74667  0.23138  0.44703  1.0000
  H   H770      1.0  0.50775  0.09397  0.04135  1.0000
  H   H771      1.0  0.93703  0.15833  0.33898  1.0000
  C   C970      1.0  0.73853  0.26458  0.45987  1.0000
  H   H772      1.0  0.77753  0.23974  0.40869  1.0000
  H   H773      1.0  0.75012  0.21850  0.44188  1.0000
  C   C971      1.0  0.57267  0.16315  0.01979  1.0000
  P   P35       1.0  0.68519  0.24614  0.34344  1.0000
  C   C972      1.0  0.75737  0.25241  0.23324  1.0000
  C   C973      1.0  0.73378  0.26395  0.22458  1.0000
  C   C974      1.0  0.71242  0.26034  0.20140  1.0000
  C   C975      1.0  0.71432  0.24521  0.18624  1.0000
  C   C976      1.0  0.73802  0.23371  0.19480  1.0000
  C   C977      1.0  0.75915  0.23725  0.21816  1.0000
  H   H774      1.0  0.73190  0.27565  0.23582  1.0000
  H   H775      1.0  0.69433  0.26940  0.19511  1.0000
  H   H776      1.0  0.73989  0.22200  0.18357  1.0000
  H   H777      1.0  0.77712  0.22816  0.22457  1.0000
  C   C978      1.0  0.50931  0.21404  0.08734  1.0000
  C   C979      1.0  0.68428  0.29630  0.33086  1.0000
  H   H778      1.0  0.52610  0.21724  0.04119  1.0000
  H   H779      1.0  0.71031  0.29532  0.40184  1.0000
  C   C980      1.0  0.96179  0.28740  0.36131  1.0000
  C   C981      1.0  0.96070  0.28849  0.33018  1.0000
  C   C982      1.0  0.59636  0.04368  0.40764  1.0000
  H   H780      1.0  0.93896  0.28809  0.37516  1.0000
  H   H781      1.0  0.86328  0.21538  0.01402  1.0000
  H   H782      1.0  0.83704  0.25438  0.42808  1.0000
  H   H783      1.0  0.76718  0.10789  0.38575  1.0000
  H   H784      1.0  0.65890  0.00717  0.16203  1.0000
  C   C983      1.0  0.68242  0.22438  0.39264  1.0000
  C   C984      1.0  0.93227  0.19772  0.36396  1.0000
  H   H785      1.0  0.69753  0.24792  0.27857  1.0000
  C   C985      1.0  0.51942  0.02503  0.36529  1.0000
  C   C986      1.0  0.54297  0.01242  0.36601  1.0000
  H   H786      1.0  0.87875  0.27230  0.40081  1.0000
  H   H787      1.0  0.52923  0.05260  0.42853  1.0000
  H   H788      1.0  0.53543  0.13044  0.98900  1.0000
  H   H789      1.0  0.51064  0.01730  0.13913  1.0000
  H   H790      1.0  0.68307  0.20926  0.43255  1.0000
  H   H791      1.0  0.50740  0.17828  0.05705  1.0000
  C   C987      1.0  0.86135  0.24671  0.06406  1.0000
  C   C988      1.0  0.78346  0.23319  0.34475  1.0000
  C   C989      1.0  0.62439  0.04909  0.45294  1.0000
  H   H792      1.0  0.61892  0.15308  0.03422  1.0000
  C   C990      1.0  0.64470  0.22763  0.43627  1.0000
  C   C991      1.0  0.65886  0.24226  0.31286  1.0000
  H   H793      1.0  0.54473  0.24315  0.06554  1.0000
  H   H794      1.0  0.51849  0.09041  0.13575  1.0000
  C   C992      1.0  0.92692  0.20594  0.33692  1.0000
  H   H795      1.0  0.54586  0.13227  0.14930  1.0000
  H   H796      1.0  0.90678  0.26892  0.25595  1.0000
  H   H797      1.0  0.83368  0.22483  0.41576  1.0000
  C   C993      1.0  0.49694  0.26627  0.09822  1.0000
  H   H798      1.0  0.55653  0.00864  0.34562  1.0000
  H   H799      1.0  0.62925  0.04553  0.47571  1.0000
  H   H800      1.0  0.97846  0.23125  0.29026  1.0000
  C   C994      1.0  0.75984  0.21422  0.01451  1.0000
  P   P36       1.0  0.54745  0.14914  0.04288  1.0000
  C   C995      1.0  0.65852  0.99332  0.20372  1.0000
  C   C996      1.0  0.67049  0.00075  0.45980  1.0000
  C   C997      1.0  0.50391  0.09417  0.11725  1.0000
  H   H801      1.0  0.61480  0.23594  0.34068  1.0000
  H   H802      1.0  0.69702  0.00177  0.45480  1.0000
  H   H803      1.0  0.57761  0.23477  0.02000  1.0000
  H   H804      1.0  0.59134  0.12369  0.06761  1.0000
  H   H805      1.0  0.70566  0.26559  0.39384  1.0000
  H   H806      1.0  0.93968  0.17430  0.38568  1.0000
  C   C998      1.0  0.58958  0.10313  0.03853  1.0000
  C   C999      1.0  0.63254  0.10507  0.46878  1.0000
  C   C1000     1.0  0.85437  0.24919  0.41131  1.0000
  H   H807      1.0  0.83682  0.28316  0.45584  1.0000
  C   C1001     1.0  0.52170  0.05541  0.45142  1.0000
  C   C1002     1.0  0.87612  0.22809  0.29370  1.0000
  H   H808      1.0  0.60349  0.23394  0.24610  1.0000
  C   C1003     1.0  0.72684  0.23574  0.47270  1.0000
  C   C1004     1.0  0.69789  0.08610  0.43575  1.0000
  C   C1005     1.0  0.62958  0.24093  0.42237  1.0000
  C   C1006     1.0  0.50812  0.03763  0.18839  1.0000
  H   H809      1.0  0.51491  0.03118  0.34430  1.0000
  C   C1007     1.0  0.73616  0.10896  0.42650  1.0000
  C   C1008     1.0  0.71147  0.10107  0.44463  1.0000
  H   H810      1.0  0.92926  0.17279  0.29079  1.0000
  H   H811      1.0  0.64672  0.99717  0.07620  1.0000
  H   H812      1.0  0.70340  0.21799  0.38202  1.0000
  C   C1009     1.0  0.60741  0.16199  0.01990  1.0000
  C   C1010     1.0  0.54665  0.13967  0.10292  1.0000
  C   C1011     1.0  0.51178  0.05464  0.18457  1.0000
  H   H813      1.0  0.56418  0.22861  0.16832  1.0000
  H   H814      1.0  0.59689  0.99433  0.25859  1.0000
  H   H815      1.0  0.74643  0.12055  0.43342  1.0000
  H   H816      1.0  0.70335  0.10654  0.46576  1.0000
  C   C1012     1.0  0.49996  0.04822  0.08886  1.0000
  C   C1013     1.0  0.75352  0.24185  0.34876  1.0000
  C   C1014     1.0  0.51654  0.09160  0.08801  1.0000
  H   H817      1.0  0.62190  0.28274  0.01314  1.0000
  C   C1015     1.0  0.57917  0.24728  0.02790  1.0000
  H   H818      1.0  0.62973  0.25672  0.38361  1.0000
  H   H819      1.0  0.54050  0.08569  0.08390  1.0000
  H   H820      1.0  0.60682  0.12807  0.47649  1.0000
  H   H821      1.0  0.65446  0.17162  0.00250  1.0000
  C   C1016     1.0  0.87047  0.24945  0.25618  1.0000
  C   C1017     1.0  0.60406  0.27436  0.02411  1.0000
  C   C1018     1.0  0.81318  0.26391  0.99594  1.0000
  H   H822      1.0  0.85654  0.25499  0.23862  1.0000
  H   H823      1.0  0.53659  0.12806  0.09597  1.0000
  C   C1019     1.0  0.58096  0.11903  0.04762  1.0000
  C   C1020     1.0  0.72495  0.23634  0.33537  1.0000
  C   C1021     1.0  0.57125  0.24079  0.16020  1.0000
  C   C1022     1.0  0.59148  0.27129  0.13614  1.0000
  C   C1023     1.0  0.67092  0.21931  0.42133  1.0000
  C   C1024     1.0  0.65195  0.24110  0.25928  1.0000
  C   C1025     1.0  0.53610  0.06895  0.46480  1.0000
  H   H824      1.0  0.93412  0.20457  0.38442  1.0000
  C   C1026     1.0  0.73105  0.26389  0.06997  1.0000
  C   C1027     1.0  0.73396  0.26136  0.10060  1.0000
  C   C1028     1.0  0.75943  0.25140  0.11068  1.0000
  C   C1029     1.0  0.78206  0.24400  0.09016  1.0000
  C   C1030     1.0  0.78000  0.24697  0.05937  1.0000
  C   C1031     1.0  0.75389  0.25667  0.04941  1.0000
  P   P37       1.0  0.80712  0.23617  0.03287  1.0000
  C   C1032     1.0  0.84948  0.23528  0.04395  1.0000
  C   C1033     1.0  0.82524  0.28169  0.47816  1.0000
  C   C1034     1.0  0.80134  0.20247  0.04559  1.0000
  C   C1035     1.0  0.78580  0.18712  0.04429  1.0000
  C   C1036     1.0  0.92641  0.19687  0.31045  1.0000
  C   C1037     1.0  0.85240  0.23253  0.40424  1.0000
  C   C1038     1.0  0.53825  0.30288  0.13046  1.0000
  C   C1039     1.0  0.87166  0.22386  0.03051  1.0000
  C   C1040     1.0  0.90492  0.22345  0.03803  1.0000
  C   C1041     1.0  0.91636  0.23458  0.05867  1.0000
  C   C1042     1.0  0.54889  0.00450  0.39304  1.0000
  C   C1043     1.0  0.50354  0.15339  0.04055  1.0000
  P   P38       1.0  0.92411  0.22807  0.33603  1.0000
  H   H825      1.0  0.86640  0.21712  0.30492  1.0000
  C   C1044     1.0  0.50471  0.21649  0.05686  1.0000
  P   P39       1.0  0.66722  0.07555  0.45981  1.0000
  C   C1045     1.0  0.51510  0.00450  0.14450  1.0000
  C   C1046     1.0  0.80996  0.24671  0.99716  1.0000
  C   C1047     1.0  0.89800  0.23594  0.36671  1.0000
  H   H826      1.0  0.71583  0.26665  0.11653  1.0000
  H   H827      1.0  0.76085  0.24899  0.13442  1.0000
  H   H828      1.0  0.80069  0.23573  0.09830  1.0000
  H   H829      1.0  0.75036  0.25827  0.02577  1.0000
  H   H830      1.0  0.82255  0.20375  0.05917  1.0000
  H   H831      1.0  0.79518  0.17667  0.05647  1.0000
  C   C1048     1.0  0.56273  0.26812  0.06428  1.0000
  H   H832      1.0  0.57282  0.17722  0.07593  1.0000
  H   H833      1.0  0.64255  0.10885  0.44683  1.0000
  H   H834      1.0  0.90361  0.25505  0.08724  1.0000
  C   C1049     1.0  0.87792  0.25927  0.39604  1.0000
  H   H835      1.0  0.52442  0.30001  0.05628  1.0000
  H   H836      1.0  0.53166  0.17591  0.00008  1.0000
  C   C1050     1.0  0.99086  0.28786  0.31269  1.0000
  C   C1051     1.0  0.63132  0.06776  0.41043  1.0000
  C   C1052     1.0  0.64038  0.08959  0.48074  1.0000
  H   H837      1.0  0.78731  0.29965  0.47069  1.0000
  C   C1053     1.0  0.78880  0.21605  0.03015  1.0000
  C   C1054     1.0  0.85919  0.23485  0.27005  1.0000
  C   C1055     1.0  0.60236  0.99796  0.47324  1.0000
  H   H838      1.0  0.61574  0.25470  0.99342  1.0000
  C   C1056     1.0  0.52774  0.30548  0.07787  1.0000
  H   H839      1.0  0.58897  0.29134  0.05857  1.0000
  C   C1057     1.0  0.58528  0.27917  0.04979  1.0000
  C   C1058     1.0  0.89878  0.25725  0.26585  1.0000
  H   H840      1.0  0.73507  0.27745  0.46504  1.0000
  H   H841      1.0  0.60052  0.28269  0.12592  1.0000
  C   C1059     1.0  0.92975  0.17974  0.31128  1.0000
  C   C1060     1.0  0.73532  0.08665  0.39122  1.0000
  H   H842      1.0  0.54293  0.29544  0.14999  1.0000
  C   C1061     1.0  0.93563  0.18059  0.36472  1.0000
  H   H843      1.0  0.67915  0.30495  0.31313  1.0000
  H   H844      1.0  0.74494  0.08093  0.37076  1.0000
  H   H845      1.0  0.81298  0.27096  0.01631  1.0000
  H   H846      1.0  0.83653  0.22919  0.26312  1.0000
  H   H847      1.0  0.66230  0.24240  0.23649  1.0000
  H   H848      1.0  0.63663  0.22394  0.45889  1.0000
  H   H849      1.0  0.70521  0.21738  0.30756  1.0000
  C   C1062     1.0  0.50661  0.02134  0.41867  1.0000
  C   C1063     1.0  0.55184  0.24886  0.13965  1.0000
  S   S151      1.0  0.68298  0.24840  0.01119  1.0000
  H   H850      1.0  0.53653  0.05997  0.18283  1.0000
  C   C1064     1.0  0.63941  0.06310  0.43943  1.0000
  C   C1065     1.0  0.78540  0.21933  0.32664  1.0000
  H   H851      1.0  0.58005  0.18145  0.12936  1.0000
  H   H852      1.0  0.80872  0.21283  0.32321  1.0000
  C   C1066     1.0  0.87388  0.22594  0.38179  1.0000
  H   H853      1.0  0.72165  0.19760  0.00158  1.0000
  C   C1067     1.0  0.66772  0.23792  0.37865  1.0000
  H   H854      1.0  0.60546  0.09567  0.05201  1.0000
  C   C1068     1.0  0.56049  0.25205  0.05358  1.0000
  C   C1069     1.0  0.71063  0.07872  0.40931  1.0000
  H   H855      1.0  0.55453  0.07634  0.45223  1.0000
  C   C1070     1.0  0.69944  0.27401  0.37608  1.0000
  C   C1071     1.0  0.56702  0.16721  0.09156  1.0000
  C   C1072     1.0  0.64104  0.24608  0.39371  1.0000
  H   H856      1.0  0.60947  0.24747  0.43416  1.0000
  C   C1073     1.0  0.57120  0.16968  0.12195  1.0000
  H   H857      1.0  0.71038  0.27094  0.06202  1.0000
  C   C1074     1.0  0.60061  0.24801  0.16891  1.0000
  C   C1075     1.0  0.90479  0.23577  0.30332  1.0000
  C   C1076     1.0  0.68966  0.26806  0.34858  1.0000
  H   H858      1.0  0.70186  0.06675  0.40284  1.0000
  H   H859      1.0  0.63425  0.26845  0.16273  1.0000
  C   C1077     1.0  0.70173  0.29092  0.38086  1.0000
  H   H860      1.0  0.75270  0.25267  0.36265  1.0000
  C   C1078     1.0  0.70189  0.04725  0.47524  1.0000
  H   H861      1.0  0.67485  0.27526  0.30442  1.0000
  H   H862      1.0  0.80521  0.23728  0.35569  1.0000
  H   H863      1.0  0.75867  0.20315  0.29876  1.0000
  H   H864      1.0  0.56764  0.15900  0.16619  1.0000
  C   C1079     1.0  0.56383  0.15708  0.14273  1.0000
  C   C1080     1.0  0.55152  0.14207  0.13322  1.0000
  C   C1081     1.0  0.61883  0.23631  0.26472  1.0000
  C   C1082     1.0  0.91587  0.25046  0.28936  1.0000
  C   C1083     1.0  0.72697  0.22215  0.31766  1.0000
  H   H865      1.0  0.53009  0.03007  0.19015  1.0000
  C   C1084     1.0  0.74793  0.10181  0.39971  1.0000
  C   C1085     1.0  0.60559  0.23454  0.29412  1.0000
  H   H866      1.0  0.59188  0.02847  0.44733  1.0000
  H   H867      1.0  0.64153  0.07888  0.40002  1.0000
  C   C1086     1.0  0.75720  0.21386  0.31296  1.0000
  C   C1087     1.0  0.62762  0.17242  0.00175  1.0000
  H   H868      1.0  0.49566  0.00213  0.31892  1.0000
  H   H869      1.0  0.87104  0.21317  0.37588  1.0000
  H   H870      1.0  0.94218  0.23429  0.06436  1.0000
  C   C1088     1.0  0.62550  0.23749  0.31815  1.0000
  C   C1089     1.0  0.67186  0.24416  0.28321  1.0000
  H   H871      1.0  0.57989  0.23082  0.29828  1.0000
  C   C1090     1.0  0.61070  0.26326  0.15691  1.0000
  C   C1091     1.0  0.53090  0.00894  0.41932  1.0000
  C   C1092     1.0  0.55958  0.12868  0.03090  1.0000
  C   C1093     1.0  0.55503  0.15210  0.08178  1.0000
  C   C1094     1.0  0.60305  0.03939  0.43697  1.0000
  H   H872      1.0  0.58038  0.03598  0.39515  1.0000
  C   C1095     1.0  0.49805  0.09636  0.06394  1.0000
  C   C1096     1.0  0.64520  0.00439  0.18294  1.0000
  C   C1097     1.0  0.89954  0.25269  0.37371  1.0000
  H   H873      1.0  0.54620  0.00102  0.10441  1.0000
  C   C1098     1.0  0.89462  0.24625  0.07159  1.0000
  C   C1099     1.0  0.60072  0.25849  0.01301  1.0000
  H   H874      1.0  0.60462  0.06133  0.37182  1.0000
  H   H875      1.0  0.53562  0.00240  0.43979  1.0000
  C   C1100     1.0  0.61037  0.99701  0.23756  1.0000
  C   C1101     1.0  0.53511  0.99523  0.12449  1.0000
  C   C1102     1.0  0.51574  0.99841  0.27395  1.0000
  C   C1103     1.0  0.65090  0.99214  0.44004  1.0000
  C   C1104     1.0  0.61014  0.05795  0.39448  1.0000
  H   H876      1.0  0.61035  0.99795  0.12271  1.0000
  H   H877      1.0  0.53928  0.99373  0.28106  1.0000
  H   H878      1.0  0.92392  0.20300  0.28909  1.0000
  C   C1105     1.0  0.57782  0.09689  0.01220  1.0000
  H   H879      1.0  0.69443  0.04207  0.45447  1.0000
  C   C1106     1.0  0.54989  0.12277  0.00335  1.0000
  C   C1107     1.0  0.53443  0.31989  0.13361  1.0000
  H   H880      1.0  0.84515  0.25613  0.07367  1.0000
  C   C1108     1.0  0.49797  0.05402  0.05954  1.0000
  C   C1109     1.0  0.96636  0.23532  0.33732  1.0000
  H   H881      1.0  0.74878  0.22478  0.00401  1.0000
  C   C1110     1.0  0.72274  0.25251  0.47883  1.0000
  H   H882      1.0  0.53005  0.24267  0.13218  1.0000
  H   H883      1.0  0.96369  0.23960  0.38511  1.0000
  C   C1111     1.0  0.50105  0.99722  0.17085  1.0000
  C   C1112     1.0  0.74438  0.19887  0.01322  1.0000
  H   H884      1.0  0.74506  0.17348  0.02748  1.0000
  C   C1113     1.0  0.50140  0.02954  0.39154  1.0000
  C   C1114     1.0  0.97926  0.23969  0.36462  1.0000
  H   H885      1.0  0.69674  0.31518  0.36170  1.0000
  H   H886      1.0  0.57599  0.99665  0.47841  1.0000
  H   H887      1.0  0.92189  0.21459  0.02761  1.0000
  C   C1115     1.0  0.50971  0.99935  0.24354  1.0000
  H   H888      1.0  0.58397  0.08441  0.00558  1.0000
  C   C1116     1.0  0.55835  0.17484  0.00103  1.0000
  C   C1117     1.0  0.65889  0.00642  0.99354  1.0000
  H   H889      1.0  0.56701  0.99463  0.39339  1.0000
  C   C1118     1.0  0.55844  0.10681  0.99433  1.0000
  H   H890      1.0  0.61453  0.02110  0.99171  1.0000
  C   C1119     1.0  0.98763  0.23506  0.31137  1.0000
  C   C1120     1.0  0.52393  0.32249  0.08107  1.0000
  C   C1121     1.0  0.49848  0.04549  0.46783  1.0000
  C   C1122     1.0  0.57866  0.18538  0.98310  1.0000
  C   C1123     1.0  0.61328  0.18417  0.98345  1.0000
  H   H891      1.0  0.99039  0.28867  0.28861  1.0000
  Fe  Fe77      1.0  0.78311  0.27711  0.84805  1.0000
  S   S152      1.0  0.81218  0.26712  0.80695  1.0000
  S   S153      1.0  0.76292  0.25759  0.88281  1.0000
  Fe  Fe78      1.0  0.78952  0.31286  0.82416  1.0000
  S   S154      1.0  0.81717  0.30477  0.78216  1.0000
  Fe  Fe79      1.0  0.78030  0.28388  0.77984  1.0000
  S   S155      1.0  0.75633  0.28036  0.73404  1.0000
  Fe  Fe80      1.0  0.84704  0.28868  0.81218  1.0000
  S   S156      1.0  0.90330  0.29176  0.80025  1.0000
  S   S157      1.0  0.75022  0.29311  0.82048  1.0000
  S   S158      1.0  0.82033  0.29755  0.85468  1.0000
  Fe  Fe81      1.0  0.60628  0.22081  0.57237  1.0000
  S   S159      1.0  0.62553  0.20273  0.53805  1.0000
  S   S160      1.0  0.55596  0.23388  0.56906  1.0000
  Fe  Fe82      1.0  0.66944  0.21805  0.60880  1.0000
  S   S161      1.0  0.69173  0.19902  0.57678  1.0000
  S   S162      1.0  0.69534  0.22370  0.65267  1.0000
  Fe  Fe83      1.0  0.67497  0.21595  0.53975  1.0000
  C   C1124     1.0  0.58196  0.24366  0.63988  1.0000
  Fe  Fe84      1.0  0.64084  0.18728  0.57722  1.0000
  S   S163      1.0  0.61954  0.16096  0.58375  1.0000
  S   S164      1.0  0.65465  0.23523  0.57179  1.0000
  S   S165      1.0  0.61966  0.20513  0.61150  1.0000
  Fe  Fe85      1.0  0.64828  0.03061  0.62787  1.0000
  S   S166      1.0  0.67018  0.03740  0.58152  1.0000
  S   S167      1.0  0.67496  0.01718  0.66497  1.0000
  Fe  Fe86      1.0  0.58406  0.04832  0.61706  1.0000
  S   S168      1.0  0.59955  0.05629  0.57040  1.0000
  S   S169      1.0  0.53501  0.05592  0.63865  1.0000
  Fe  Fe87      1.0  0.61997  0.03053  0.56489  1.0000
  S   S170      1.0  0.60200  0.01570  0.52533  1.0000
  Fe  Fe88      1.0  0.64796  0.06277  0.58985  1.0000
  S   S171      1.0  0.67555  0.08701  0.57941  1.0000
  S   S172      1.0  0.60002  0.02217  0.61079  1.0000
  S   S173      1.0  0.63073  0.05643  0.63693  1.0000
  H   H892      1.0  0.53716  0.01517  0.65247  1.0000
  C   C1125     1.0  0.78136  0.28888  0.51497  1.0000
  H   H893      1.0  0.65672  0.07660  0.82898  1.0000
  H   H894      1.0  0.55001  0.10207  0.97357  1.0000
  C   C1126     1.0  0.60230  0.11328  0.67413  1.0000
  C   C1127     1.0  0.70274  0.06965  0.51039  1.0000
  C   C1128     1.0  0.65557  0.00365  0.69230  1.0000
  C   C1129     1.0  0.51056  0.06661  0.72811  1.0000
  H   H895      1.0  0.55230  0.01704  0.78591  1.0000
  H   H896      1.0  0.69656  0.07905  0.90427  1.0000
  C   C1130     1.0  0.62597  0.05923  0.72178  1.0000
  C   C1131     1.0  0.51486  0.99940  0.68712  1.0000
  C   C1132     1.0  0.51397  0.03909  0.59118  1.0000
  C   C1133     1.0  0.76971  0.25150  0.57751  1.0000
  H   H897      1.0  0.53927  0.03481  0.58788  1.0000
  C   C1134     1.0  0.63607  0.14057  0.58281  1.0000
  C   C1135     1.0  0.66920  0.13717  0.57381  1.0000
  C   C1136     1.0  0.68080  0.12075  0.57297  1.0000
  C   C1137     1.0  0.65960  0.10750  0.58131  1.0000
  C   C1138     1.0  0.62657  0.11090  0.59069  1.0000
  C   C1139     1.0  0.61483  0.12730  0.59111  1.0000
  H   H898      1.0  0.68585  0.14719  0.56732  1.0000
  H   H899      1.0  0.70641  0.11831  0.56575  1.0000
  H   H900      1.0  0.61005  0.10089  0.59746  1.0000
  H   H901      1.0  0.58917  0.12974  0.59811  1.0000
  C   C1140     1.0  0.73978  0.25548  0.91822  1.0000
  C   C1141     1.0  0.73152  0.23957  0.92922  1.0000
  H   H902      1.0  0.83137  0.25883  0.54162  1.0000
  H   H903      1.0  0.52885  0.18355  0.77257  1.0000
  C   C1142     1.0  0.71299  0.26650  0.96418  1.0000
  C   C1143     1.0  0.73026  0.26895  0.93600  1.0000
  C   C1144     1.0  0.51268  0.11047  0.64934  1.0000
  C   C1145     1.0  0.61900  0.09875  0.68101  1.0000
  H   H904      1.0  0.60931  0.00173  0.67096  1.0000
  H   H905      1.0  0.73641  0.28126  0.92813  1.0000
  C   C1146     1.0  0.73868  0.26432  0.71238  1.0000
  C   C1147     1.0  0.74144  0.24757  0.71953  1.0000
  C   C1148     1.0  0.72801  0.23546  0.70108  1.0000
  C   C1149     1.0  0.71162  0.23977  0.67506  1.0000
  C   C1150     1.0  0.70872  0.25654  0.66794  1.0000
  C   C1151     1.0  0.72193  0.26864  0.68654  1.0000
  H   H906      1.0  0.75410  0.24391  0.73922  1.0000
  H   H907      1.0  0.73047  0.22260  0.70704  1.0000
  H   H908      1.0  0.69616  0.26018  0.64819  1.0000
  H   H909      1.0  0.71900  0.28151  0.68095  1.0000
  C   C1152     1.0  0.51550  0.22483  0.57263  1.0000
  C   C1153     1.0  0.51089  0.20778  0.57390  1.0000
  C   C1154     1.0  0.81112  0.23783  0.97042  1.0000
  H   H910      1.0  0.53233  0.19976  0.57233  1.0000
  C   C1155     1.0  0.94060  0.27670  0.84405  1.0000
  C   C1156     1.0  0.94046  0.28673  0.81846  1.0000
  C   C1157     1.0  0.67225  0.08010  0.75343  1.0000
  H   H911      1.0  0.91742  0.27169  0.85359  1.0000
  H   H912      1.0  0.73866  0.22902  0.91583  1.0000
  H   H913      1.0  0.73080  0.06538  0.54923  1.0000
  H   H914      1.0  0.71865  0.08916  0.73241  1.0000
  C   C1158     1.0  0.77122  0.24483  0.60649  1.0000
  S   S174      1.0  0.70822  0.21970  0.49605  1.0000
  H   H915      1.0  0.57409  0.01885  0.72314  1.0000
  H   H916      1.0  0.55093  0.20149  0.62902  1.0000
  C   C1159     1.0  0.63561  0.04552  0.73871  1.0000
  C   C1160     1.0  0.68174  0.03321  0.92593  1.0000
  H   H917      1.0  0.50584  0.02559  0.82128  1.0000
  C   C1161     1.0  0.76631  0.24084  0.55337  1.0000
  C   C1162     1.0  0.72472  0.04339  0.78829  1.0000
  C   C1163     1.0  0.68363  0.07430  0.68897  1.0000
  C   C1164     1.0  0.69581  0.05845  0.68262  1.0000
  C   C1165     1.0  0.71853  0.05594  0.65832  1.0000
  C   C1166     1.0  0.72954  0.06922  0.64036  1.0000
  C   C1167     1.0  0.71849  0.08511  0.64713  1.0000
  C   C1168     1.0  0.69597  0.08769  0.67154  1.0000
  H   H918      1.0  0.65850  0.04566  0.75021  1.0000
  H   H919      1.0  0.68710  0.04788  0.69566  1.0000
  H   H920      1.0  0.72676  0.04356  0.65292  1.0000
  H   H921      1.0  0.74624  0.06719  0.62093  1.0000
  H   H922      1.0  0.72662  0.09537  0.63285  1.0000
  H   H923      1.0  0.59447  0.00706  0.94711  1.0000
  H   H924      1.0  0.49676  0.02452  0.55552  1.0000
  H   H925      1.0  0.67753  0.02048  0.93243  1.0000
  C   C1169     1.0  0.60129  0.12115  0.72606  1.0000
  H   H926      1.0  0.56669  0.00096  0.83301  1.0000
  H   H927      1.0  0.70739  0.25619  0.49817  1.0000
  C   C1170     1.0  0.65304  0.01631  0.85595  1.0000
  H   H928      1.0  0.81437  0.23931  0.92219  1.0000
  H   H929      1.0  0.62455  0.02046  0.75212  1.0000
  C   C1171     1.0  0.73810  0.00572  0.90458  1.0000
  C   C1172     1.0  0.58796  0.03023  0.72354  1.0000
  C   C1173     1.0  0.79332  0.27717  0.53504  1.0000
  C   C1174     1.0  0.94002  0.32306  0.86263  1.0000
  C   C1175     1.0  0.50124  0.01724  0.80330  1.0000
  C   C1176     1.0  0.59348  0.12448  0.69659  1.0000
  H   H930      1.0  0.53543  0.99735  0.53358  1.0000
  C   C1177     1.0  0.62764  0.09545  0.71048  1.0000
  C   C1178     1.0  0.67022  0.07919  0.80782  1.0000
  C   C1179     1.0  0.70424  0.27197  0.56063  1.0000
  C   C1180     1.0  0.59051  0.00580  0.83886  1.0000
  H   H931      1.0  0.54986  0.08518  0.59751  1.0000
  H   H932      1.0  0.62905  0.19249  0.96991  1.0000
  C   C1181     1.0  0.71289  0.00373  0.88442  1.0000
  C   C1182     1.0  0.51180  0.10296  0.58863  1.0000
  C   C1183     1.0  0.50339  0.21025  0.71908  1.0000
  C   C1184     1.0  0.51039  0.19468  0.66043  1.0000
  H   H933      1.0  0.71365  0.05027  0.77057  1.0000
  H   H934      1.0  0.80926  0.22455  0.97066  1.0000
  H   H935      1.0  0.62619  0.02395  0.89682  1.0000
  H   H936      1.0  0.62474  0.10460  0.75587  1.0000
  H   H937      1.0  0.75929  0.29603  0.52068  1.0000
  H   H938      1.0  0.76526  0.01830  0.85080  1.0000
  C   C1185     1.0  0.69144  0.30439  0.57806  1.0000
  C   C1186     1.0  0.68429  0.06182  0.94001  1.0000
  C   C1187     1.0  0.62448  0.01876  0.87485  1.0000
  H   H939      1.0  0.52003  0.04468  0.75367  1.0000
  C   C1188     1.0  0.62188  0.00663  0.49292  1.0000
  H   H940      1.0  0.62935  0.07251  0.78162  1.0000
  H   H941      1.0  0.58111  0.13588  0.69100  1.0000
  C   C1189     1.0  0.76711  0.21730  0.58694  1.0000
  C   C1190     1.0  0.82181  0.26798  0.52653  1.0000
  C   C1191     1.0  0.77308  0.03073  0.80861  1.0000
  C   C1192     1.0  0.71936  0.02889  0.83614  1.0000
  C   C1193     1.0  0.62879  0.01110  0.98168  1.0000
  C   C1194     1.0  0.75310  0.99198  0.91722  1.0000
  C   C1195     1.0  0.51629  0.19393  0.76281  1.0000
  C   C1196     1.0  0.69231  0.06624  0.91020  1.0000
  H   H942      1.0  0.58907  0.06838  0.69220  1.0000
  H   H943      1.0  0.71485  0.08688  0.82824  1.0000
  H   H944      1.0  0.98935  0.26184  0.72964  1.0000
  C   C1197     1.0  0.59335  0.01354  0.86626  1.0000
  H   H945      1.0  0.76414  0.24561  0.53087  1.0000
  H   H946      1.0  0.74547  0.09319  0.77989  1.0000
  C   C1198     1.0  0.73261  0.04444  0.52002  1.0000
  C   C1199     1.0  0.65484  0.07683  0.78094  1.0000
  H   H947      1.0  0.63096  0.07274  0.51792  1.0000
  H   H948      1.0  0.56348  0.15693  0.54416  1.0000
  H   H949      1.0  0.55665  0.04278  0.69335  1.0000
  C   C1200     1.0  0.50384  0.06309  0.51089  1.0000
  H   H950      1.0  0.85913  0.26283  0.49143  1.0000
  H   H951      1.0  0.61665  0.99689  0.79903  1.0000
  H   H952      1.0  0.77290  0.25259  0.62577  1.0000
  H   H953      1.0  0.97071  0.26494  0.87663  1.0000
  C   C1201     1.0  0.70484  0.25058  0.97519  1.0000
  C   C1202     1.0  0.72021  0.08853  0.78017  1.0000
  C   C1203     1.0  0.70293  0.08499  0.80743  1.0000
  C   C1204     1.0  0.51410  0.99770  0.51981  1.0000
  H   H954      1.0  0.51183  0.09992  0.56514  1.0000
  H   H955      1.0  0.49496  0.08650  0.70005  1.0000
  H   H956      1.0  0.77377  0.04373  0.76638  1.0000
  C   C1205     1.0  0.75355  0.02534  0.83364  1.0000
  H   H957      1.0  0.67291  0.04183  0.97100  1.0000
  C   C1206     1.0  0.53668  0.15594  0.54301  1.0000
  C   C1207     1.0  0.75866  0.03970  0.78590  1.0000
  C   C1208     1.0  0.54775  0.22512  0.67157  1.0000
  C   C1209     1.0  0.55155  0.23578  0.64673  1.0000
  C   C1210     1.0  0.60896  0.24084  0.65753  1.0000
  C   C1211     1.0  0.60553  0.23016  0.68215  1.0000
  C   C1212     1.0  0.57509  0.22233  0.68920  1.0000
  C   C1213     1.0  0.72240  0.03799  0.49324  1.0000
  H   H958      1.0  0.67884  0.04104  0.81484  1.0000
  C   C1214     1.0  0.61749  0.00311  0.95629  1.0000
  H   H959      1.0  0.49559  0.20263  0.80517  1.0000
  C   C1215     1.0  0.50248  0.05112  0.74029  1.0000
  P   P40       1.0  0.50892  0.21423  0.67930  1.0000
  C   C1216     1.0  0.53594  0.17655  0.62298  1.0000
  C   C1217     1.0  0.53411  0.19184  0.63695  1.0000
  H   H960      1.0  0.53236  0.17881  0.51878  1.0000
  C   C1218     1.0  0.70491  0.08619  0.75326  1.0000
  C   C1219     1.0  0.51918  0.16827  0.52863  1.0000
  H   H961      1.0  0.69610  0.08205  0.51703  1.0000
  H   H962      1.0  0.50313  0.00953  0.69909  1.0000
  C   C1220     1.0  0.81454  0.24610  0.94288  1.0000
  H   H963      1.0  0.62687  0.22773  0.69531  1.0000
  H   H964      1.0  0.57334  0.21392  0.70807  1.0000
  C   C1221     1.0  0.52736  0.01242  0.78344  1.0000
  C   C1222     1.0  0.70512  0.03808  0.81335  1.0000
  C   C1223     1.0  0.76510  0.22382  0.55810  1.0000
  H   H965      1.0  0.68640  0.31694  0.58481  1.0000
  C   C1224     1.0  0.72292  0.06030  0.52850  1.0000
  H   H966      1.0  0.73014  0.02574  0.48651  1.0000
  H   H967      1.0  0.53434  0.18842  0.71803  1.0000
  H   H968      1.0  0.77030  0.22276  0.63361  1.0000
  C   C1225     1.0  0.57824  0.04372  0.70663  1.0000
  C   C1226     1.0  0.51233  0.00984  0.49761  1.0000
  H   H969      1.0  0.97113  0.30070  0.78666  1.0000
  C   C1227     1.0  0.82734  0.28715  0.59712  1.0000
  C   C1228     1.0  0.65610  0.00792  0.48609  1.0000
  H   H970      1.0  0.49704  0.06587  0.53407  1.0000
  H   H971      1.0  0.79940  0.02782  0.80671  1.0000
  C   C1229     1.0  0.81638  0.27215  0.96834  1.0000
  C   C1230     1.0  0.67702  0.99339  0.98000  1.0000
  H   H972      1.0  0.53257  0.01860  0.49448  1.0000
  C   C1231     1.0  0.81702  0.26324  0.94183  1.0000
  H   H973      1.0  0.67143  0.01432  0.50122  1.0000
  H   H974      1.0  0.74603  0.01789  0.91073  1.0000
  H   H975      1.0  0.53133  0.23771  0.63212  1.0000
  H   H976      1.0  0.51318  0.11339  0.67282  1.0000
  H   H977      1.0  0.76186  0.21569  0.53945  1.0000
  H   H978      1.0  0.70150  0.05779  0.86532  1.0000
  C   C1232     1.0  0.49763  0.20469  0.78118  1.0000
  H   H979      1.0  0.51517  0.15230  0.62090  1.0000
  H   H980      1.0  0.49452  0.24955  0.68083  1.0000
  C   C1233     1.0  0.61874  0.00340  0.81982  1.0000
  H   H981      1.0  0.94161  0.30988  0.86635  1.0000
  H   H982      1.0  0.59441  0.09184  0.54676  1.0000
  H   H983      1.0  0.70773  0.22481  0.96497  1.0000
  H   H984      1.0  0.53855  0.08317  0.50495  1.0000
  C   C1234     1.0  0.71409  0.23713  0.95729  1.0000
  C   C1235     1.0  0.64994  0.00852  0.82837  1.0000
  C   C1236     1.0  0.51375  0.16404  0.63206  1.0000
  H   H985      1.0  0.53432  0.07219  0.73208  1.0000
  C   C1237     1.0  0.97094  0.27291  0.85710  1.0000
  H   H986      1.0  0.53391  0.13352  0.56823  1.0000
  H   H987      1.0  0.70865  0.25942  0.55363  1.0000
  H   H988      1.0  0.58312  0.11976  0.52672  1.0000
  H   H989      1.0  0.76552  0.20413  0.59073  1.0000
  C   C1238     1.0  0.77001  0.22780  0.61109  1.0000
  H   H990      1.0  0.70599  0.27705  0.97759  1.0000
  C   C1239     1.0  0.66566  0.29461  0.56845  1.0000
  C   C1240     1.0  0.59686  0.05825  0.70602  1.0000
  C   C1241     1.0  0.50507  0.04994  0.61422  1.0000
  H   H991      1.0  0.58484  0.25158  0.62026  1.0000
  H   H992      1.0  0.74341  0.30579  0.58599  1.0000
  H   H993      1.0  0.75058  0.28227  0.63219  1.0000
  C   C1242     1.0  0.52167  0.00107  0.76109  1.0000
  C   C1243     1.0  0.68991  0.03750  0.89594  1.0000
  H   H994      1.0  0.56757  0.19458  0.96906  1.0000
  C   C1244     1.0  0.83762  0.27021  0.49815  1.0000
  C   C1245     1.0  0.51924  0.19670  0.73190  1.0000
  H   H995      1.0  0.68227  0.07115  0.95715  1.0000
  P   P41       1.0  0.77198  0.27350  0.57112  1.0000
  C   C1246     1.0  0.53361  0.09471  0.60679  1.0000
  C   C1247     1.0  0.79348  0.28301  0.60087  1.0000
  C   C1248     1.0  0.77653  0.28564  0.62867  1.0000
  C   C1249     1.0  0.79323  0.29206  0.65248  1.0000
  C   C1250     1.0  0.82696  0.29602  0.64868  1.0000
  C   C1251     1.0  0.60490  0.09554  0.52494  1.0000
  C   C1252     1.0  0.79728  0.29108  0.48663  1.0000
  C   C1253     1.0  0.53395  0.09839  0.63714  1.0000
  P   P42       1.0  0.69377  0.02159  0.86806  1.0000
  H   H996      1.0  0.59480  0.12995  0.74341  1.0000
  C   C1254     1.0  0.73021  0.28164  0.57055  1.0000
  H   H997      1.0  0.59682  0.11602  0.65120  1.0000
  C   C1255     1.0  0.72365  0.29799  0.57890  1.0000
  H   H998      1.0  0.55046  0.09166  0.65118  1.0000
  H   H999      1.0  0.78019  0.29362  0.67415  1.0000
  H   H1000     1.0  0.83989  0.30075  0.66737  1.0000
  C   C1256     1.0  0.59839  0.11122  0.51356  1.0000
  H   H1001     1.0  0.84112  0.28516  0.57606  1.0000
  C   C1257     1.0  0.67211  0.27845  0.55958  1.0000
  C   C1258     1.0  0.97101  0.29304  0.80646  1.0000
  H   H1002     1.0  0.81877  0.26959  0.92036  1.0000
  H   H1003     1.0  0.69838  0.00276  0.71915  1.0000
  H   H1004     1.0  0.62604  0.09036  0.66310  1.0000
  H   H1005     1.0  0.63282  0.24657  0.65177  1.0000
  C   C1259     1.0  0.61646  0.03116  0.73982  1.0000
  H   H1006     1.0  0.67171  0.00589  0.81389  1.0000
  C   C1260     1.0  0.62578  0.08476  0.50861  1.0000
  P   P43       1.0  0.65205  0.07740  0.71879  1.0000
  C   C1261     1.0  0.84397  0.29365  0.62097  1.0000
  C   C1262     1.0  0.61834  0.10671  0.73302  1.0000
  H   H1007     1.0  0.68774  0.10013  0.67620  1.0000
  H   H1008     1.0  0.65215  0.27089  0.55194  1.0000
  C   C1263     1.0  0.67319  0.99848  0.71707  1.0000
  C   C1264     1.0  0.67900  0.04531  0.94784  1.0000
  C   C1265     1.0  0.69510  0.05413  0.88819  1.0000
  C   C1266     1.0  0.62311  0.99791  0.68985  1.0000
  H   H1009     1.0  0.57178  0.01466  0.88168  1.0000
  H   H1010     1.0  0.64066  0.29952  0.56782  1.0000
  C   C1267     1.0  0.51963  0.14262  0.55669  1.0000
  C   C1268     1.0  0.53401  0.00261  0.66069  1.0000
  H   H1011     1.0  0.73704  0.31232  0.75464  1.0000
  H   H1012     1.0  0.74801  0.03715  0.53421  1.0000
  H   H1013     1.0  0.81807  0.28544  0.96739  1.0000
  H   H1014     1.0  0.55447  0.17451  0.60485  1.0000
  H   H1015     1.0  0.77867  0.32410  0.71813  1.0000
  H   H1016     1.0  0.87021  0.29659  0.61817  1.0000
  H   H1017     1.0  0.77207  0.99361  0.93316  1.0000
  H   H1018     1.0  0.54258  0.99665  0.74711  1.0000
  C   C1269     1.0  0.69124  0.06301  0.48411  1.0000
  C   C1270     1.0  0.61196  0.11593  0.48535  1.0000
  C   C1271     1.0  0.52718  0.07279  0.49453  1.0000
  H   H1019     1.0  0.56380  0.99205  0.62422  1.0000
  Fe  Fe89      1.0  0.89378  0.46422  0.28298  1.0000
  S   S175      1.0  0.86971  0.44941  0.32089  1.0000
  S   S176      1.0  0.94562  0.47444  0.27864  1.0000
  Fe  Fe90      1.0  0.83413  0.46315  0.24517  1.0000
  S   S177      1.0  0.80434  0.44804  0.28024  1.0000
  S   S178      1.0  0.81640  0.46986  0.19884  1.0000
  Fe  Fe91      1.0  0.82533  0.46547  0.31364  1.0000
  S   S179      1.0  0.79343  0.47547  0.35325  1.0000
  Fe  Fe92      1.0  0.85086  0.43293  0.28541  1.0000
  S   S180      1.0  0.86317  0.40530  0.28918  1.0000
  S   S181      1.0  0.85107  0.48145  0.27818  1.0000
  S   S182      1.0  0.87879  0.44679  0.24796  1.0000
  Fe  Fe93      1.0  0.89439  0.55755  0.01853  1.0000
  S   S183      1.0  0.85953  0.56545  0.05604  1.0000
  S   S184      1.0  0.94547  0.56839  0.01219  1.0000
  C   C1272     1.0  0.91229  0.63394  0.47627  1.0000
  S   S185      1.0  0.80726  0.53840  0.03171  1.0000
  C   C1273     1.0  0.95619  0.37091  0.26266  1.0000
  Fe  Fe94      1.0  0.82115  0.56521  0.02209  1.0000
  S   S186      1.0  0.78600  0.58738  0.02199  1.0000
  Fe  Fe95      1.0  0.84876  0.53848  0.06388  1.0000
  S   S187      1.0  0.85408  0.53181  0.11357  1.0000
  C   C1274     1.0  0.91329  0.64010  0.08260  1.0000
  S   S188      1.0  0.88701  0.53079  0.02821  1.0000
  S   S189      1.0  0.78464  0.33764  0.31643  1.0000
  C   C1275     1.0  0.79845  0.60783  0.03028  1.0000
  C   C1276     1.0  0.77433  0.62032  0.03422  1.0000
  C   C1277     1.0  0.78348  0.63659  0.04114  1.0000
  C   C1278     1.0  0.81699  0.64060  0.04383  1.0000
  C   C1279     1.0  0.84105  0.62817  0.03922  1.0000
  C   C1280     1.0  0.83189  0.61188  0.03299  1.0000
  H   H1020     1.0  0.74836  0.61734  0.03220  1.0000
  C   C1281     1.0  0.78678  0.43431  0.44505  1.0000
  H   H1021     1.0  0.86707  0.63120  0.04006  1.0000
  H   H1022     1.0  0.85071  0.60247  0.03007  1.0000
  C   C1282     1.0  0.80736  0.48945  0.38019  1.0000
  C   C1283     1.0  0.78758  0.49223  0.40660  1.0000
  C   C1284     1.0  0.79070  0.36814  0.38243  1.0000
  H   H1023     1.0  0.88695  0.58738  0.10349  1.0000
  C   C1285     1.0  0.84601  0.51014  0.39610  1.0000
  C   C1286     1.0  0.83719  0.49813  0.37552  1.0000
  H   H1024     1.0  0.98268  0.33282  0.28259  1.0000
  C   C1287     1.0  0.93259  0.45717  0.18039  1.0000
  H   H1025     1.0  0.86839  0.51720  0.39168  1.0000
  H   H1026     1.0  0.85290  0.49601  0.35553  1.0000
  C   C1288     1.0  0.82768  0.48711  0.17547  1.0000
  C   C1289     1.0  0.84952  0.49935  0.18415  1.0000
  C   C1290     1.0  0.85736  0.51287  0.16491  1.0000
  C   C1291     1.0  0.84376  0.51429  0.13665  1.0000
  C   C1292     1.0  0.82235  0.50192  0.12783  1.0000
  C   C1293     1.0  0.81437  0.48846  0.14713  1.0000
  H   H1027     1.0  0.86025  0.49841  0.20571  1.0000
  H   H1028     1.0  0.87411  0.52229  0.17197  1.0000
  H   H1029     1.0  0.81151  0.50284  0.10631  1.0000
  H   H1030     1.0  0.79747  0.47909  0.14016  1.0000
  C   C1294     1.0  0.84041  0.38668  0.29611  1.0000
  C   C1295     1.0  0.85803  0.37172  0.29718  1.0000
  C   C1296     1.0  0.84138  0.35662  0.30284  1.0000
  C   C1297     1.0  0.80674  0.35627  0.30770  1.0000
  C   C1298     1.0  0.78906  0.37122  0.30642  1.0000
  C   C1299     1.0  0.80576  0.38632  0.30062  1.0000
  H   H1031     1.0  0.88475  0.37181  0.29356  1.0000
  H   H1032     1.0  0.85528  0.34524  0.30351  1.0000
  H   H1033     1.0  0.76227  0.37111  0.31006  1.0000
  H   H1034     1.0  0.79191  0.39768  0.29952  1.0000
  C   C1300     1.0  0.70504  0.39634  0.46648  1.0000
  C   C1301     1.0  0.95029  0.46640  0.33781  1.0000
  C   C1302     1.0  0.92482  0.59671  0.13097  1.0000
  H   H1035     1.0  0.76457  0.48548  0.41058  1.0000
  C   C1303     1.0  0.72856  0.41130  0.42294  1.0000
  H   H1036     1.0  0.92352  0.46697  0.33981  1.0000
  H   H1037     1.0  0.77283  0.59284  0.40258  1.0000
  H   H1038     1.0  0.95332  0.54160  0.10967  1.0000
  H   H1039     1.0  0.97370  0.51691  0.18173  1.0000
  C   C1304     1.0  0.96680  0.56198  0.04327  1.0000
  C   C1305     1.0  0.94958  0.55390  0.06717  1.0000
  S   S190      1.0  0.83630  0.53017  0.44489  1.0000
  C   C1306     1.0  0.79070  0.61397  0.42567  1.0000
  H   H1040     1.0  0.92306  0.55218  0.06719  1.0000
  H   H1041     1.0  0.78109  0.50624  0.44745  1.0000
  C   C1307     1.0  0.92805  0.42281  0.37353  1.0000
  C   C1308     1.0  0.96696  0.45780  0.18345  1.0000
  H   H1042     1.0  0.89058  0.39728  0.44097  1.0000
  C   C1309     1.0  0.90103  0.40440  0.42212  1.0000
  H   H1043     1.0  0.85463  0.42864  0.03502  1.0000
  H   H1044     1.0  0.92012  0.59181  0.05615  1.0000
  H   H1045     1.0  0.89340  0.63700  0.17560  1.0000
  H   H1046     1.0  0.89380  0.44173  0.38791  1.0000
  H   H1047     1.0  0.88975  0.46956  0.16414  1.0000
  H   H1048     1.0  0.83573  0.44790  0.99615  1.0000
  C   C1310     1.0  0.67083  0.41552  0.44012  1.0000
  H   H1049     1.0  0.89777  0.58983  0.98648  1.0000
  C   C1311     1.0  0.85705  0.40775  0.00567  1.0000
  C   C1312     1.0  0.73205  0.39994  0.44646  1.0000
  C   C1313     1.0  0.97632  0.40996  0.32090  1.0000
  P   P44       1.0  0.95037  0.45863  0.03890  1.0000
  C   C1314     1.0  0.93277  0.44228  0.06264  1.0000
  C   C1315     1.0  0.85118  0.42426  0.01263  1.0000
  H   H1050     1.0  0.94102  0.63741  0.99661  1.0000
  H   H1051     1.0  0.92127  0.51900  0.09822  1.0000
  H   H1052     1.0  0.98811  0.39129  0.24958  1.0000
  C   C1316     1.0  0.95115  0.50922  0.47020  1.0000
  H   H1053     1.0  0.96412  0.51257  0.02087  1.0000
  C   C1317     1.0  0.92472  0.44504  0.09316  1.0000
  C   C1318     1.0  0.91108  0.43243  0.11146  1.0000
  C   C1319     1.0  0.90606  0.41685  0.09972  1.0000
  C   C1320     1.0  0.98699  0.37840  0.25601  1.0000
  C   C1321     1.0  0.79405  0.58581  0.44386  1.0000
  C   C1322     1.0  0.94170  0.47799  0.05727  1.0000
  H   H1054     1.0  0.91135  0.40167  0.06070  1.0000
  C   C1323     1.0  0.80911  0.59131  0.46923  1.0000
  C   C1324     1.0  0.92721  0.50753  0.08705  1.0000
  H   H1055     1.0  0.78968  0.57274  0.44111  1.0000
  C   C1325     1.0  0.90864  0.48231  0.06525  1.0000
  C   C1326     1.0  0.88071  0.63173  0.46536  1.0000
  C   C1327     1.0  0.95044  0.40840  0.30137  1.0000
  C   C1328     1.0  0.91479  0.41385  0.06964  1.0000
  H   H1056     1.0  0.93835  0.43024  0.35504  1.0000
  H   H1057     1.0  0.93093  0.34869  0.27766  1.0000
  C   C1329     1.0  0.92658  0.39777  0.40348  1.0000
  C   C1330     1.0  0.67443  0.40411  0.46329  1.0000
  C   C1331     1.0  0.96029  0.50302  0.08054  1.0000
  C   C1332     1.0  0.96289  0.60127  0.07734  1.0000
  H   H1058     1.0  0.83915  0.35830  0.37029  1.0000
  H   H1059     1.0  0.92891  0.45690  0.10306  1.0000
  H   H1060     1.0  0.90431  0.43475  0.13480  1.0000
  H   H1061     1.0  0.89554  0.40709  0.11400  1.0000
  H   H1062     1.0  0.92870  0.41747  0.26156  1.0000
  H   H1063     1.0  0.98313  0.49449  0.14791  1.0000
  H   H1064     1.0  0.93343  0.37795  0.26106  1.0000
  H   H1065     1.0  0.97742  0.60233  0.05637  1.0000
  C   C1333     1.0  0.93307  0.45797  0.00230  1.0000
  H   H1066     1.0  0.86956  0.42542  0.43116  1.0000
  C   C1334     1.0  0.98417  0.34540  0.27425  1.0000
  C   C1335     1.0  0.90864  0.46925  0.99395  1.0000
  H   H1067     1.0  0.91038  0.59453  0.15174  1.0000
  C   C1336     1.0  0.96643  0.37700  0.35141  1.0000
  C   C1337     1.0  0.79700  0.50392  0.42767  1.0000
  H   H1068     1.0  0.95483  0.45836  0.38345  1.0000
  C   C1338     1.0  0.94021  0.40694  0.37899  1.0000
  C   C1339     1.0  0.81389  0.65205  0.42032  1.0000
  H   H1069     1.0  0.76305  0.62465  0.14713  1.0000
  H   H1070     1.0  0.76461  0.64597  0.04456  1.0000
  C   C1340     1.0  0.96072  0.48500  0.43987  1.0000
  C   C1341     1.0  0.82597  0.51325  0.42216  1.0000
  C   C1342     1.0  0.96670  0.54784  0.09126  1.0000
  H   H1071     1.0  0.75572  0.39396  0.44942  1.0000
  P   P45       1.0  0.97459  0.39877  0.35615  1.0000
  C   C1343     1.0  0.98326  0.34826  0.35486  1.0000
  H   H1072     1.0  0.87818  0.49438  0.44666  1.0000
  C   C1344     1.0  0.91657  0.46986  0.16566  1.0000
  C   C1345     1.0  0.81302  0.64224  0.20219  1.0000
  C   C1346     1.0  0.93043  0.59516  0.07708  1.0000
  C   C1347     1.0  0.86811  0.64379  0.12031  1.0000
  P   P46       1.0  0.81510  0.64121  0.45567  1.0000
  H   H1073     1.0  0.88825  0.47427  0.06029  1.0000
  C   C1348     1.0  0.83014  0.45351  0.40836  1.0000
  H   H1074     1.0  0.76017  0.65438  0.42252  1.0000
  H   H1075     1.0  0.77840  0.35632  0.38097  1.0000
  H   H1076     1.0  0.84096  0.46633  0.44846  1.0000
  C   C1349     1.0  0.96734  0.47041  0.31065  1.0000
  H   H1077     1.0  0.80537  0.61671  0.09481  1.0000
  C   C1350     1.0  0.87811  0.64248  0.22108  1.0000
  C   C1351     1.0  0.80615  0.61957  0.45103  1.0000
  C   C1352     1.0  0.92436  0.65609  0.08728  1.0000
  C   C1353     1.0  0.88918  0.42025  0.41660  1.0000
  C   C1354     1.0  0.94953  0.41838  0.27579  1.0000
  H   H1078     1.0  0.92217  0.49331  0.14341  1.0000
  H   H1079     1.0  0.86700  0.38556  0.37030  1.0000
  C   C1355     1.0  0.96942  0.48380  0.15648  1.0000
  H   H1080     1.0  0.83477  0.41052  0.38137  1.0000
  C   C1356     1.0  0.82711  0.45640  0.43905  1.0000
  C   C1357     1.0  0.78471  0.59714  0.42215  1.0000
  C   C1358     1.0  0.93449  0.37178  0.34452  1.0000
  C   C1359     1.0  0.91164  0.59263  0.10386  1.0000
  C   C1360     1.0  0.92278  0.62981  0.98656  1.0000
  H   H1081     1.0  0.91508  0.38064  0.34082  1.0000
  H   H1082     1.0  0.87668  0.62173  0.09440  1.0000
  H   H1083     1.0  0.91699  0.47392  0.42301  1.0000
  C   C1361     1.0  0.91289  0.58588  0.29384  1.0000
  C   C1362     1.0  0.88451  0.59310  0.28272  1.0000
  C   C1363     1.0  0.85928  0.58319  0.27245  1.0000
  C   C1364     1.0  0.86232  0.56605  0.27341  1.0000
  C   C1365     1.0  0.89055  0.55869  0.28494  1.0000
  C   C1366     1.0  0.91600  0.56874  0.29483  1.0000
  P   P47       1.0  0.89542  0.53658  0.28518  1.0000
  C   C1367     1.0  0.92080  0.53042  0.25261  1.0000
  C   C1368     1.0  0.91423  0.53016  0.31927  1.0000
  C   C1369     1.0  0.93513  0.51631  0.31978  1.0000
  C   C1370     1.0  0.94932  0.51143  0.34630  1.0000
  C   C1371     1.0  0.94286  0.52031  0.37250  1.0000
  C   C1372     1.0  0.92220  0.53412  0.37221  1.0000
  C   C1373     1.0  0.90763  0.53893  0.34584  1.0000
  C   C1374     1.0  0.94011  0.54195  0.23566  1.0000
  C   C1375     1.0  0.95895  0.53704  0.21011  1.0000
  C   C1376     1.0  0.95871  0.52063  0.20133  1.0000
  C   C1377     1.0  0.93965  0.50908  0.21811  1.0000
  C   C1378     1.0  0.92074  0.51394  0.24356  1.0000
  C   C1379     1.0  0.85480  0.52720  0.28393  1.0000
  C   C1380     1.0  0.84125  0.52411  0.25626  1.0000
  C   C1381     1.0  0.80987  0.51681  0.25521  1.0000
  C   C1382     1.0  0.79166  0.51269  0.28172  1.0000
  C   C1383     1.0  0.80468  0.51600  0.30929  1.0000
  C   C1384     1.0  0.83606  0.52328  0.31045  1.0000
  H   H1084     1.0  0.93256  0.59354  0.30170  1.0000
  H   H1085     1.0  0.88206  0.60637  0.28204  1.0000
  H   H1086     1.0  0.83728  0.58876  0.26376  1.0000
  H   H1087     1.0  0.84256  0.55861  0.26517  1.0000
  H   H1088     1.0  0.93832  0.56331  0.30319  1.0000
  H   H1089     1.0  0.94031  0.50907  0.29998  1.0000
  H   H1090     1.0  0.96505  0.50062  0.34658  1.0000
  H   H1091     1.0  0.95336  0.51635  0.39316  1.0000
  H   H1092     1.0  0.91644  0.54072  0.39278  1.0000
  H   H1093     1.0  0.89076  0.54931  0.34641  1.0000
  H   H1094     1.0  0.94069  0.55474  0.24190  1.0000
  C   C1385     1.0  0.52742  0.32970  0.10891  1.0000
  H   H1095     1.0  0.69446  0.42812  0.40243  1.0000
  H   H1096     1.0  0.90224  0.35109  0.33792  1.0000
  H   H1097     1.0  0.90621  0.50478  0.25627  1.0000
  H   H1098     1.0  0.85495  0.52715  0.23543  1.0000
  H   H1099     1.0  0.80001  0.51398  0.23381  1.0000
  H   H1100     1.0  0.76773  0.50665  0.28093  1.0000
  H   H1101     1.0  0.79072  0.51255  0.32984  1.0000
  H   H1102     1.0  0.84563  0.52563  0.33207  1.0000
  C   C1386     1.0  0.81131  0.44116  0.39588  1.0000
  P   P48       1.0  0.76374  0.41612  0.39749  1.0000
  C   C1387     1.0  0.78786  0.39774  0.38965  1.0000
  C   C1388     1.0  0.77212  0.38231  0.38904  1.0000
  Fe  Fe96      1.0  0.84689  0.53238  0.99494  1.0000
  C   C1389     1.0  0.93495  0.48319  0.15376  1.0000
  C   C1390     1.0  0.74841  0.42401  0.36298  1.0000
  C   C1391     1.0  0.74238  0.41333  0.33946  1.0000
  C   C1392     1.0  0.73078  0.41950  0.31268  1.0000
  C   C1393     1.0  0.72487  0.43634  0.30928  1.0000
  C   C1394     1.0  0.73038  0.44701  0.33274  1.0000
  C   C1395     1.0  0.74189  0.44088  0.35955  1.0000
  H   H1103     1.0  0.84624  0.46123  0.39395  1.0000
  H   H1104     1.0  0.81339  0.43945  0.37187  1.0000
  H   H1105     1.0  0.96714  0.60595  0.15258  1.0000
  H   H1106     1.0  0.74541  0.38125  0.39291  1.0000
  C   C1396     1.0  0.78908  0.43160  0.41405  1.0000
  H   H1107     1.0  0.74694  0.40026  0.34150  1.0000
  H   H1108     1.0  0.72690  0.41124  0.29437  1.0000
  H   H1109     1.0  0.71660  0.44118  0.28831  1.0000
  H   H1110     1.0  0.72655  0.46014  0.32997  1.0000
  H   H1111     1.0  0.74611  0.44940  0.37736  1.0000
  H   H1112     1.0  0.87588  0.50070  0.08454  1.0000
  C   C1397     1.0  0.90268  0.42942  0.39228  1.0000
  C   C1398     1.0  0.95145  0.34324  0.34797  1.0000
  C   C1399     1.0  0.92654  0.48379  0.43611  1.0000
  H   H1113     1.0  0.97589  0.58937  0.47333  1.0000
  H   H1114     1.0  0.97387  0.54591  0.19700  1.0000
  H   H1115     1.0  0.86501  0.39928  0.02268  1.0000
  H   H1116     1.0  0.93975  0.49625  0.21187  1.0000
  H   H1117     1.0  0.97330  0.43811  0.25014  1.0000
  H   H1118     1.0  0.97016  0.63655  0.12916  1.0000
  H   H1119     1.0  0.91812  0.44706  0.19026  1.0000
  C   C1400     1.0  0.84069  0.38457  0.37621  1.0000
  C   C1401     1.0  0.97463  0.42992  0.26928  1.0000
  C   C1402     1.0  0.69778  0.41914  0.42004  1.0000
  C   C1403     1.0  0.80564  0.44671  0.45742  1.0000
  H   H1120     1.0  0.90333  0.64253  0.22839  1.0000
  C   C1404     1.0  0.96800  0.46176  0.36260  1.0000
  C   C1405     1.0  0.90470  0.49529  0.44935  1.0000
  H   H1121     1.0  0.98019  0.51106  0.08684  1.0000
  C   C1406     1.0  0.82501  0.36925  0.37624  1.0000
  H   H1122     1.0  0.52436  0.34288  0.11139  1.0000
  C   C1407     1.0  0.82221  0.39878  0.38265  1.0000
  C   C1408     1.0  0.81018  0.59122  0.10678  1.0000
  C   C1409     1.0  0.82096  0.57988  0.12781  1.0000
  C   C1410     1.0  0.83545  0.58543  0.15349  1.0000
  C   C1411     1.0  0.83915  0.60233  0.15817  1.0000
  C   C1412     1.0  0.82825  0.61380  0.13713  1.0000
  C   C1413     1.0  0.81393  0.60809  0.11133  1.0000
  P   P49       1.0  0.83267  0.63570  0.14257  1.0000
  C   C1414     1.0  0.81884  0.64533  0.23210  1.0000
  H   H1123     1.0  0.79804  0.64764  0.24796  1.0000
  H   H1124     1.0  0.85578  0.64794  0.26472  1.0000
  C   C1415     1.0  0.92701  0.35500  0.34302  1.0000
  C   C1416     1.0  0.98584  0.47103  0.17113  1.0000
  H   H1125     1.0  0.96345  0.43732  0.98711  1.0000
  C   C1417     1.0  0.88528  0.63398  0.09900  1.0000
  C   C1418     1.0  0.76362  0.63723  0.13891  1.0000
  S   S191      1.0  0.85721  0.55906  0.98341  1.0000
  C   C1419     1.0  0.81499  0.60809  0.47284  1.0000
  H   H1126     1.0  0.71022  0.63843  0.13720  1.0000
  C   C1420     1.0  0.83980  0.63946  0.18138  1.0000
  H   H1127     1.0  0.79895  0.58693  0.08681  1.0000
  H   H1128     1.0  0.81834  0.56677  0.12403  1.0000
  H   H1129     1.0  0.84391  0.57653  0.16961  1.0000
  H   H1130     1.0  0.85045  0.60632  0.17818  1.0000
  H   H1131     1.0  0.78330  0.62249  0.40857  1.0000
  C   C1421     1.0  0.73350  0.64503  0.13354  1.0000
  H   H1132     1.0  0.92590  0.63256  0.06572  1.0000
  C   C1422     1.0  0.85588  0.64374  0.47016  1.0000
  C   C1423     1.0  0.95700  0.60312  0.13133  1.0000
  C   C1424     1.0  0.90148  0.49716  0.07947  1.0000
  H   H1133     1.0  0.93599  0.38560  0.40835  1.0000
  C   C1425     1.0  0.87239  0.63942  0.19113  1.0000
  H   H1134     1.0  0.97827  0.44821  0.19630  1.0000
  H   H1135     1.0  0.90010  0.47909  0.00840  1.0000
  H   H1136     1.0  0.64715  0.42162  0.43775  1.0000
  H   H1137     1.0  0.93013  0.40000  0.30638  1.0000
  C   C1426     1.0  0.97346  0.49803  0.45620  1.0000
  H   H1138     1.0  0.78763  0.64214  0.19542  1.0000
  C   C1427     1.0  0.79400  0.64564  0.13383  1.0000
  C   C1428     1.0  0.97646  0.60529  0.10454  1.0000
  H   H1139     1.0  0.51806  0.33006  0.06200  1.0000
  C   C1429     1.0  0.92225  0.61294  0.99311  1.0000
  C   C1430     1.0  0.85136  0.64550  0.24154  1.0000
  C   C1431     1.0  0.92800  0.42650  0.05114  1.0000
  C   C1432     1.0  0.96758  0.48838  0.06534  1.0000
  H   H1140     1.0  0.83606  0.64784  0.98638  1.0000
  H   H1141     1.0  0.87576  0.62056  0.45348  1.0000
  H   H1142     1.0  0.76998  0.42718  0.45973  1.0000
  C   C1433     1.0  0.95480  0.35443  0.27191  1.0000
  C   C1434     1.0  0.84045  0.43511  0.99076  1.0000
  H   H1143     1.0  0.93457  0.42383  0.02799  1.0000
  H   H1144     1.0  0.94573  0.33022  0.34651  1.0000
  C   C1435     1.0  0.78325  0.65715  0.40982  1.0000
  H   H1145     1.0  0.53667  0.32545  0.15528  1.0000
  H   H1146     1.0  0.97731  0.47578  0.42996  1.0000
  H   H1147     1.0  0.93989  0.60764  0.00790  1.0000
  C   C1436     1.0  0.91698  0.50789  0.46655  1.0000
  H   H1148     1.0  0.86731  0.65200  0.41101  1.0000
  H   H1149     1.0  0.93092  0.62439  0.47338  1.0000
  H   H1150     1.0  0.89987  0.51657  0.47735  1.0000
  C   C1437     1.0  0.98402  0.51807  0.00694  1.0000
  C   C1438     1.0  0.84340  0.65581  0.40342  1.0000
  H   H1151     1.0  0.98945  0.41433  0.41351  1.0000
  C   C1439     1.0  0.78430  0.65023  0.48160  1.0000
  C   C1440     1.0  0.99070  0.36503  0.35681  1.0000
  H   H1152     1.0  0.65351  0.40134  0.47884  1.0000
  H   H1153     1.0  0.80311  0.44906  0.48122  1.0000
  Fe  Fe97      1.0  0.87583  0.46520  0.76528  1.0000
  S   S192      1.0  0.85997  0.45443  0.81025  1.0000
  S   S193      1.0  0.92741  0.47460  0.75451  1.0000
  Fe  Fe98      1.0  0.80895  0.46106  0.73950  1.0000
  S   S194      1.0  0.78671  0.44979  0.78261  1.0000
  S   S195      1.0  0.77976  0.46364  0.69762  1.0000
  Fe  Fe99      1.0  0.81435  0.46997  0.80570  1.0000
  S   S196      1.0  0.79150  0.48723  0.84139  1.0000
  Fe  Fe100     1.0  0.83422  0.43494  0.78406  1.0000
  S   S197      1.0  0.84638  0.40731  0.78966  1.0000
  S   S198      1.0  0.83230  0.48205  0.76232  1.0000
  S   S199      1.0  0.85416  0.44497  0.73934  1.0000
  Fe  Fe101     1.0  0.88244  0.53043  0.54450  1.0000
  S   S200      1.0  0.85251  0.54520  0.57836  1.0000
  S   S201      1.0  0.93082  0.51811  0.55282  1.0000
  C   C1441     1.0  0.95069  0.65011  0.56633  1.0000
  S   S202      1.0  0.79787  0.54895  0.52595  1.0000
  H   H1154     1.0  0.75812  0.40696  0.65510  1.0000
  Fe  Fe102     1.0  0.84283  0.56277  0.54038  1.0000
  S   S203      1.0  0.85476  0.59052  0.54041  1.0000
  Fe  Fe103     1.0  0.81019  0.53038  0.56227  1.0000
  S   S204      1.0  0.77210  0.51921  0.59607  1.0000
  S   S205      1.0  0.87705  0.54892  0.50801  1.0000
  S   S206      1.0  0.84100  0.51446  0.53070  1.0000
  S   S207      1.0  0.77534  0.33984  0.83411  1.0000
  C   C1442     1.0  0.83661  0.60970  0.55161  1.0000
  C   C1443     1.0  0.85490  0.62427  0.54573  1.0000
  C   C1444     1.0  0.84151  0.63982  0.55343  1.0000
  C   C1445     1.0  0.80982  0.64105  0.56767  1.0000
  C   C1446     1.0  0.79165  0.62645  0.57386  1.0000
  C   C1447     1.0  0.80475  0.61090  0.56557  1.0000
  H   H1155     1.0  0.87962  0.62354  0.53505  1.0000
  C   C1448     1.0  0.98981  0.47485  0.89874  1.0000
  H   H1156     1.0  0.76708  0.62721  0.58483  1.0000
  H   H1157     1.0  0.79020  0.59987  0.56984  1.0000
  C   C1449     1.0  0.81082  0.49445  0.87366  1.0000
  C   C1450     1.0  0.79375  0.50578  0.89248  1.0000
  C   C1451     1.0  0.85650  0.49497  0.90713  1.0000
  C   C1452     1.0  0.98158  0.51865  0.97603  1.0000
  C   C1453     1.0  0.78718  0.58657  0.66797  1.0000
  C   C1454     1.0  0.84250  0.48920  0.88101  1.0000
  H   H1158     1.0  0.76926  0.50995  0.88704  1.0000
  C   C1455     1.0  0.83548  0.42948  0.96195  1.0000
  H   H1159     1.0  0.74355  0.32968  0.62807  1.0000
  H   H1160     1.0  0.85619  0.48068  0.86660  1.0000
  C   C1456     1.0  0.78141  0.47883  0.66851  1.0000
  C   C1457     1.0  0.75438  0.47959  0.65018  1.0000
  C   C1458     1.0  0.75280  0.49164  0.62765  1.0000
  C   C1459     1.0  0.77874  0.50291  0.62207  1.0000
  C   C1460     1.0  0.80677  0.50186  0.63949  1.0000
  C   C1461     1.0  0.80790  0.48996  0.66298  1.0000
  H   H1161     1.0  0.73387  0.47110  0.65405  1.0000
  H   H1162     1.0  0.73096  0.49237  0.61466  1.0000
  H   H1163     1.0  0.82693  0.51053  0.63557  1.0000
  H   H1164     1.0  0.82904  0.48942  0.67679  1.0000
  C   C1462     1.0  0.82592  0.38881  0.80259  1.0000
  C   C1463     1.0  0.84251  0.37367  0.79827  1.0000
  C   C1464     1.0  0.82738  0.35864  0.80752  1.0000
  C   C1465     1.0  0.79543  0.35849  0.82152  1.0000
  C   C1466     1.0  0.77910  0.37366  0.82643  1.0000
  C   C1467     1.0  0.79407  0.38871  0.81684  1.0000
  H   H1165     1.0  0.86713  0.37350  0.78737  1.0000
  H   H1166     1.0  0.84050  0.34714  0.80402  1.0000
  H   H1167     1.0  0.75454  0.37375  0.83755  1.0000
  H   H1168     1.0  0.78099  0.40020  0.82055  1.0000
  C   C1468     1.0  0.95749  0.43685  0.80465  1.0000
  C   C1469     1.0  0.93997  0.44637  0.78472  1.0000
  C   C1470     1.0  0.95263  0.46152  0.77455  1.0000
  C   C1471     1.0  0.79864  0.40768  0.71958  1.0000
  H   H1169     1.0  0.96015  0.51328  0.96622  1.0000
  H   H1170     1.0  0.91638  0.44202  0.77760  1.0000
  H   H1171     1.0  0.74673  0.34413  0.67588  1.0000
  C   C1472     1.0  0.84136  0.41291  0.95473  1.0000
  H   H1172     1.0  0.81757  0.34902  0.88083  1.0000
  C   C1473     1.0  0.95728  0.53210  0.56877  1.0000
  C   C1474     1.0  0.94709  0.54836  0.57362  1.0000
  C   C1475     1.0  0.88243  0.59040  0.63005  1.0000
  C   C1476     1.0  0.80785  0.51164  0.91854  1.0000
  H   H1173     1.0  0.92312  0.55248  0.56682  1.0000
  C   C1477     1.0  0.85869  0.51694  0.80057  1.0000
  H   H1174     1.0  0.75265  0.44845  0.85327  1.0000
  C   C1478     1.0  0.89354  0.65744  0.60199  1.0000
  C   C1479     1.0  0.93423  0.60416  0.61399  1.0000
  C   C1480     1.0  0.77759  0.38555  0.67719  1.0000
  C   C1481     1.0  0.78284  0.58369  0.63774  1.0000
  H   H1175     1.0  0.78372  0.59886  0.67674  1.0000
  H   H1176     1.0  0.89549  0.45553  0.92407  1.0000
  C   C1482     1.0  0.89864  0.58203  0.65242  1.0000
  C   C1483     1.0  0.78185  0.41348  0.69513  1.0000
  H   H1177     1.0  0.96016  0.57191  0.59097  1.0000
  H   H1178     1.0  0.92243  0.59138  0.55823  1.0000
  H   H1179     1.0  0.81808  0.38663  0.74192  1.0000
  S   S208      1.0  0.85732  0.51207  0.96001  1.0000
  C   C1484     1.0  0.91966  0.64836  0.49125  1.0000
  C   C1485     1.0  0.90841  0.64194  0.60418  1.0000
  C   C1486     1.0  0.88236  0.33873  0.74847  1.0000
  H   H1180     1.0  0.96530  0.52252  0.74127  1.0000
  H   H1181     1.0  0.91045  0.63779  0.90488  1.0000
  H   H1182     1.0  0.95905  0.40375  0.90526  1.0000
  C   C1487     1.0  0.85038  0.34137  0.73867  1.0000
  H   H1183     1.0  0.77605  0.59372  0.62314  1.0000
  C   C1488     1.0  0.76818  0.44015  0.86554  1.0000
  C   C1489     1.0  0.90012  0.60141  0.61095  1.0000
  C   C1490     1.0  0.82891  0.34517  0.65265  1.0000
  H   H1184     1.0  0.93052  0.57937  0.50883  1.0000
  C   C1491     1.0  0.80516  0.39089  0.72277  1.0000
  C   C1492     1.0  0.82684  0.33717  0.62533  1.0000
  H   H1185     1.0  0.97689  0.59675  0.63864  1.0000
  C   C1493     1.0  0.96640  0.33141  0.84753  1.0000
  C   C1494     1.0  0.96428  0.34842  0.84210  1.0000
  C   C1495     1.0  0.93626  0.35706  0.85363  1.0000
  H   H1186     1.0  0.98537  0.54740  0.71259  1.0000
  C   C1496     1.0  0.93674  0.63798  0.58582  1.0000
  C   C1497     1.0  0.93043  0.44497  0.95370  1.0000
  C   C1498     1.0  0.97792  0.52130  0.71942  1.0000
  H   H1187     1.0  0.72940  0.64007  0.53963  1.0000
  H   H1188     1.0  0.80650  0.41620  0.73624  1.0000
  C   C1499     1.0  0.76931  0.34220  0.66201  1.0000
  H   H1189     1.0  0.97749  0.44918  0.89528  1.0000
  C   C1500     1.0  0.87615  0.62634  0.95522  1.0000
  C   C1501     1.0  0.90976  0.34863  0.86841  1.0000
  C   C1502     1.0  0.93615  0.40415  0.86307  1.0000
  H   H1190     1.0  0.90560  0.40418  0.93521  1.0000
  C   C1503     1.0  0.83919  0.50611  0.92627  1.0000
  P   P50       1.0  0.95722  0.61819  0.58872  1.0000
  H   H1191     1.0  0.85798  0.63131  0.94062  1.0000
  H   H1192     1.0  0.93330  0.36679  0.79577  1.0000
  C   C1504     1.0  0.93573  0.40403  0.89427  1.0000
  H   H1193     1.0  0.88495  0.57357  0.66731  1.0000
  H   H1194     1.0  0.89764  0.63326  0.62035  1.0000
  C   C1505     1.0  0.97280  0.55459  0.90194  1.0000
  H   H1195     1.0  0.93465  0.37025  0.85088  1.0000
  H   H1196     1.0  0.91417  0.39061  0.76679  1.0000
  H   H1197     1.0  0.98368  0.59125  0.96977  1.0000
  C   C1506     1.0  0.87604  0.40496  0.86532  1.0000
  C   C1507     1.0  0.87524  0.40485  0.89666  1.0000
  H   H1198     1.0  0.73118  0.42106  0.87046  1.0000
  H   H1199     1.0  0.88780  0.35527  0.87645  1.0000
  C   C1508     1.0  0.93986  0.38993  0.77290  1.0000
  H   H1200     1.0  0.71825  0.36009  0.79149  1.0000
  H   H1201     1.0  0.95957  0.40406  0.84996  1.0000
  C   C1509     1.0  0.90631  0.40449  0.84865  1.0000
  H   H1202     1.0  0.88097  0.49075  0.91245  1.0000
  C   C1510     1.0  0.93267  0.58441  0.65532  1.0000
  C   C1511     1.0  0.77132  0.40241  0.67394  1.0000
  H   H1203     1.0  0.78695  0.38957  0.95965  1.0000
  C   C1512     1.0  0.89499  0.46820  0.96603  1.0000
  C   C1513     1.0  0.85846  0.52182  0.83033  1.0000
  H   H1204     1.0  0.94700  0.42546  0.81312  1.0000
  C   C1514     1.0  0.90023  0.53260  0.64982  1.0000
  C   C1515     1.0  0.91352  0.51913  0.66452  1.0000
  C   C1516     1.0  0.89563  0.51166  0.68863  1.0000
  C   C1517     1.0  0.86444  0.51781  0.69824  1.0000
  C   C1518     1.0  0.85095  0.53154  0.68388  1.0000
  C   C1519     1.0  0.86924  0.53887  0.65954  1.0000
  P   P51       1.0  0.81311  0.54092  0.69948  1.0000
  C   C1520     1.0  0.78051  0.52557  0.70454  1.0000
  C   C1521     1.0  0.78091  0.51439  0.72870  1.0000
  C   C1522     1.0  0.73001  0.50186  0.71378  1.0000
  C   C1523     1.0  0.72903  0.51306  0.68998  1.0000
  C   C1524     1.0  0.75410  0.52487  0.68533  1.0000
  C   C1525     1.0  0.80046  0.55767  0.67558  1.0000
  C   C1526     1.0  0.79613  0.55494  0.64512  1.0000
  C   C1527     1.0  0.78734  0.56788  0.62632  1.0000
  H   H1205     1.0  0.91406  0.53819  0.63083  1.0000
  H   H1206     1.0  0.93768  0.51453  0.65705  1.0000
  H   H1207     1.0  0.90593  0.50110  0.69990  1.0000
  H   H1208     1.0  0.85119  0.51193  0.71708  1.0000
  H   H1209     1.0  0.86009  0.54949  0.64795  1.0000
  H   H1210     1.0  0.77006  0.54812  0.75260  1.0000
  H   H1211     1.0  0.71128  0.49232  0.71668  1.0000
  H   H1212     1.0  0.70945  0.51223  0.67442  1.0000
  H   H1213     1.0  0.75276  0.53306  0.66634  1.0000
  H   H1214     1.0  0.79985  0.54277  0.63581  1.0000
  H   H1215     1.0  0.78408  0.56558  0.60284  1.0000
  C   C1528     1.0  0.88812  0.51123  0.78625  1.0000
  C   C1529     1.0  0.91721  0.51024  0.80177  1.0000
  C   C1530     1.0  0.91743  0.51541  0.83160  1.0000
  C   C1531     1.0  0.88763  0.52109  0.84583  1.0000
  P   P52       1.0  0.95547  0.51385  0.85124  1.0000
  C   C1532     1.0  0.95512  0.52868  0.88117  1.0000
  C   C1533     1.0  0.95945  0.49360  0.86753  1.0000
  C   C1534     1.0  0.90805  0.34963  0.73991  1.0000
  C   C1535     1.0  0.77154  0.34926  0.73309  1.0000
  H   H1216     1.0  0.85626  0.58824  0.62710  1.0000
  C   C1536     1.0  0.94708  0.46436  0.86808  1.0000
  C   C1537     1.0  0.94106  0.48027  0.85749  1.0000
  C   C1538     1.0  0.76615  0.64044  0.50279  1.0000
  C   C1539     1.0  0.85228  0.40210  0.97684  1.0000
  C   C1540     1.0  0.94994  0.55244  0.92636  1.0000
  C   C1541     1.0  0.93056  0.53821  0.92879  1.0000
  C   C1542     1.0  0.93355  0.52626  0.90662  1.0000
  C   C1543     1.0  0.79471  0.37966  0.70165  1.0000
  H   H1217     1.0  0.76133  0.36192  0.96138  1.0000
  H   H1218     1.0  0.97400  0.49496  0.71998  1.0000
  C   C1544     1.0  0.87545  0.60952  0.96213  1.0000
  H   H1219     1.0  0.87597  0.47690  0.96007  1.0000
  C   C1545     1.0  0.98293  0.50567  0.70732  1.0000
  C   C1546     1.0  0.90535  0.40432  0.91111  1.0000
  H   H1220     1.0  0.93932  0.50508  0.79053  1.0000
  H   H1221     1.0  0.88625  0.52468  0.86896  1.0000
  H   H1222     1.0  0.77688  0.42655  0.69273  1.0000
  H   H1223     1.0  0.94390  0.46694  0.69226  1.0000
  H   H1224     1.0  0.79412  0.52014  0.93297  1.0000
  H   H1225     1.0  0.93363  0.45403  0.85953  1.0000
  H   H1226     1.0  0.92285  0.48197  0.84080  1.0000
  C   C1547     1.0  0.91149  0.33160  0.87263  1.0000
  Fe  Fe104     1.0  0.83300  0.53390  0.49572  1.0000
  C   C1548     1.0  0.76513  0.33225  0.73344  1.0000
  H   H1227     1.0  0.91830  0.51529  0.90908  1.0000
  H   H1228     1.0  0.86539  0.37636  0.69745  1.0000
  H   H1229     1.0  0.91320  0.53638  0.94798  1.0000
  H   H1230     1.0  0.88708  0.32821  0.76283  1.0000
  H   H1231     1.0  0.95320  0.41316  0.75192  1.0000
  H   H1232     1.0  0.93916  0.43572  0.93790  1.0000
  C   C1549     1.0  0.90588  0.45612  0.94586  1.0000
  H   H1233     1.0  0.79918  0.57617  0.71017  1.0000
  C   C1550     1.0  0.82169  0.54854  0.73603  1.0000
  C   C1551     1.0  0.77627  0.41418  0.89129  1.0000
  H   H1234     1.0  0.85318  0.40536  0.85367  1.0000
  H   H1235     1.0  0.80989  0.45670  0.86376  1.0000
  C   C1552     1.0  0.85444  0.55205  0.74327  1.0000
  H   H1236     1.0  0.90645  0.40459  0.82446  1.0000
  C   C1553     1.0  0.80051  0.44484  0.87138  1.0000
  C   C1554     1.0  0.80216  0.55580  0.78652  1.0000
  C   C1555     1.0  0.83485  0.55904  0.79369  1.0000
  C   C1556     1.0  0.97554  0.54273  0.87947  1.0000
  C   C1557     1.0  0.94655  0.58936  0.51498  1.0000
  H   H1237     1.0  0.90779  0.49086  0.59693  1.0000
  H   H1238     1.0  0.88826  0.50699  0.76340  1.0000
  C   C1558     1.0  0.75586  0.50257  0.73321  1.0000
  H   H1239     1.0  0.80052  0.51474  0.74418  1.0000
  H   H1240     1.0  0.83532  0.52569  0.84173  1.0000
  C   C1559     1.0  0.93683  0.47163  0.67082  1.0000
  H   H1241     1.0  0.88630  0.55963  0.77769  1.0000
  H   H1242     1.0  0.57770  0.64647  0.88147  1.0000
  H   H1243     1.0  0.88586  0.46375  0.67860  1.0000
  H   H1244     1.0  0.87503  0.55065  0.72688  1.0000
  H   H1245     1.0  0.84606  0.43804  0.89069  1.0000
  C   C1560     1.0  0.95042  0.59544  0.63627  1.0000
  C   C1561     1.0  0.84374  0.35495  0.72033  1.0000
  C   C1562     1.0  0.81144  0.35783  0.89829  1.0000
  H   H1246     1.0  0.93799  0.64299  0.85527  1.0000
  C   C1563     1.0  0.73069  0.35242  0.77471  1.0000
  H   H1247     1.0  0.75948  0.37229  0.75533  1.0000
  C   C1564     1.0  0.79440  0.38073  0.94265  1.0000
  C   C1565     1.0  0.90371  0.46995  0.66330  1.0000
  C   C1566     1.0  0.86095  0.55723  0.77205  1.0000
  H   H1248     1.0  0.75685  0.49369  0.75139  1.0000
  C   C1567     1.0  0.79593  0.57362  0.68687  1.0000
  C   C1568     1.0  0.75612  0.42478  0.87534  1.0000
  H   H1249     1.0  0.86756  0.47560  0.63092  1.0000
  C   C1569     1.0  0.79612  0.33158  0.61644  1.0000
  C   C1570     1.0  0.78830  0.35366  0.92150  1.0000
  H   H1250     1.0  0.77054  0.62736  0.50454  1.0000
  H   H1251     1.0  0.78192  0.55712  0.80335  1.0000
  H   H1252     1.0  0.83582  0.51718  0.78895  1.0000
  H   H1253     1.0  0.76646  0.40230  0.89845  1.0000
  C   C1571     1.0  0.79554  0.55066  0.75776  1.0000
  P   P53       1.0  0.80265  0.35792  0.70670  1.0000
  C   C1572     1.0  0.89334  0.47667  0.63651  1.0000
  C   C1573     1.0  0.91603  0.48518  0.61730  1.0000
  H   H1254     1.0  0.83995  0.56283  0.81611  1.0000
  H   H1255     1.0  0.98838  0.56546  0.90044  1.0000
  H   H1256     1.0  0.79468  0.32519  0.59545  1.0000
  H   H1257     1.0  0.81638  0.58256  0.48615  1.0000
  C   C1574     1.0  0.92191  0.64963  0.90024  1.0000
  C   C1575     1.0  0.81802  0.38494  0.91954  1.0000
  C   C1576     1.0  0.82586  0.37348  0.89698  1.0000
  P   P54       1.0  0.83554  0.40542  0.91747  1.0000
  C   C1577     1.0  0.80875  0.41893  0.89740  1.0000
  H   H1258     1.0  0.63248  0.65137  0.85466  1.0000
  H   H1259     1.0  0.94403  0.65003  0.49983  1.0000
  H   H1260     1.0  0.84258  0.37657  0.87802  1.0000
  C   C1578     1.0  0.89973  0.63666  0.96749  1.0000
  C   C1579     1.0  0.96226  0.60931  0.55178  1.0000
  H   H1261     1.0  0.82672  0.61212  0.49259  1.0000
  C   C1580     1.0  0.82087  0.43424  0.88689  1.0000
  C   C1581     1.0  0.74254  0.64761  0.52275  1.0000
  C   C1582     1.0  0.98903  0.53526  0.70327  1.0000
  H   H1262     1.0  0.98667  0.47406  0.49840  1.0000
  H   H1263     1.0  0.76892  0.37721  0.66069  1.0000
  C   C1583     1.0  0.90175  0.36319  0.72160  1.0000
  C   C1584     1.0  0.86976  0.36584  0.71177  1.0000
  C   C1585     1.0  0.75436  0.35927  0.75416  1.0000
  H   H1264     1.0  0.85655  0.60169  0.95342  1.0000
  H   H1265     1.0  0.70786  0.38755  0.48454  1.0000
  H   H1266     1.0  0.88727  0.60763  0.59348  1.0000
  C   C1586     1.0  0.96807  0.55937  0.58724  1.0000
  C   C1587     1.0  0.76737  0.33409  0.63479  1.0000
  H   H1267     1.0  0.97305  0.54164  0.81140  1.0000
  H   H1268     1.0  0.85295  0.34934  0.65916  1.0000
  C   C1588     1.0  0.94182  0.59638  0.54322  1.0000
  C   C1589     1.0  0.98865  0.52697  0.57697  1.0000
  C   C1590     1.0  0.80016  0.34767  0.67129  1.0000
  H   H1269     1.0  0.94747  0.56163  0.94373  1.0000
  C   C1591     1.0  0.94913  0.48688  0.62474  1.0000
  H   H1270     1.0  0.85708  0.38928  0.97177  1.0000
  H   H1271     1.0  0.83087  0.33285  0.74564  1.0000
  H   H1272     1.0  0.93281  0.34756  0.74750  1.0000
  C   C1592     1.0  0.96002  0.47985  0.65133  1.0000
  H   H1273     1.0  0.92166  0.37168  0.71505  1.0000
  H   H1274     1.0  0.82688  0.43815  0.94563  1.0000
  C   C1593     1.0  0.77972  0.36511  0.94366  1.0000
  H   H1275     1.0  0.94559  0.57752  0.67196  1.0000
  H   H1276     1.0  0.85588  0.65086  0.54872  1.0000
  H   H1277     1.0  0.95965  0.51879  0.48450  1.0000
  H   H1278     1.0  0.77661  0.34162  0.92188  1.0000
  C   C1594     1.0  0.95071  0.37659  0.78983  1.0000
  C   C1595     1.0  0.72436  0.33553  0.77475  1.0000
  C   C1596     1.0  0.94402  0.44590  0.98172  1.0000
  C   C1597     1.0  0.98409  0.46656  0.78242  1.0000
  H   H1279     1.0  0.98828  0.32449  0.84006  1.0000
  C   C1598     1.0  0.96186  0.40264  0.76440  1.0000
  H   H1280     1.0  0.96581  0.49421  0.61016  1.0000
  H   H1281     1.0  0.70697  0.33015  0.79146  1.0000
  C   C1599     1.0  0.98784  0.61493  0.53152  1.0000
  C   C1600     1.0  0.93755  0.65254  0.87198  1.0000
  H   H1282     1.0  0.84914  0.33518  0.61113  1.0000
  H   H1283     1.0  0.98577  0.64441  0.62458  1.0000
  C   C1601     1.0  0.98355  0.37608  0.79902  1.0000
  H   H1284     1.0  0.97321  0.64769  0.55284  1.0000
  C   C1602     1.0  0.97174  0.46163  0.88834  1.0000
  C   C1603     1.0  0.97200  0.59503  0.49503  1.0000
  H   H1285     1.0  0.97404  0.33395  0.78170  1.0000
  C   C1604     1.0  0.74152  0.32547  0.75411  1.0000
  C   C1605     1.0  0.98909  0.51711  0.82317  1.0000
  C   C1606     1.0  0.98360  0.49081  0.88848  1.0000
  C   C1607     1.0  0.98813  0.44218  0.81391  1.0000
  C   C1608     1.0  0.99067  0.53184  0.80642  1.0000
  C   C1609     1.0  0.89860  0.60283  0.98091  1.0000
  H   H1286     1.0  0.99033  0.44839  0.67303  1.0000
  H   H1287     1.0  0.89081  0.32499  0.88370  1.0000
  H   H1288     1.0  0.71706  0.65775  0.61220  1.0000
  Fe  Fe105     1.0  0.62981  0.93516  0.34337  1.0000
  S   S209      1.0  0.59843  0.94631  0.30812  1.0000
  S   S210      1.0  0.63550  0.90779  0.35664  1.0000
  Fe  Fe106     1.0  0.64463  0.96954  0.37037  1.0000
  S   S211      1.0  0.61543  0.98309  0.33653  1.0000
  C   C1610     1.0  0.49721  0.96696  0.33014  1.0000
  Fe  Fe107     1.0  0.57840  0.96283  0.34476  1.0000
  S   S212      1.0  0.52612  0.97030  0.35696  1.0000
  Fe  Fe108     1.0  0.63808  0.96596  0.30211  1.0000
  S   S213      1.0  0.65810  0.97454  0.25559  1.0000
  S   S214      1.0  0.60579  0.95034  0.38060  1.0000
  S   S215      1.0  0.67131  0.95371  0.33519  1.0000
  Fe  Fe109     1.0  0.80974  0.68712  0.05321  1.0000
  S   S216      1.0  0.82538  0.70332  0.09065  1.0000
  C   C1611     1.0  0.54466  0.79018  0.39147  1.0000
  Fe  Fe110     1.0  0.78229  0.71712  0.01771  1.0000
  S   S217      1.0  0.79680  0.73510  0.05277  1.0000
  C   C1612     1.0  0.53897  0.86341  0.46372  1.0000
  Fe  Fe111     1.0  0.84501  0.72069  0.05465  1.0000
  S   S218      1.0  0.89686  0.73242  0.05028  1.0000
  Fe  Fe112     1.0  0.77615  0.71649  0.08692  1.0000
  S   S219      1.0  0.74074  0.72095  0.12877  1.0000
  S   S220      1.0  0.83188  0.70412  0.01759  1.0000
  S   S221      1.0  0.75903  0.69893  0.05146  1.0000
  Fe  Fe113     1.0  0.65287  0.80875  0.31073  1.0000
  S   S222      1.0  0.63204  0.79483  0.35130  1.0000
  S   S223      1.0  0.64526  0.83610  0.29776  1.0000
  Fe  Fe114     1.0  0.68062  0.77666  0.28020  1.0000
  S   S224      1.0  0.66080  0.76068  0.31914  1.0000
  S   S225      1.0  0.71697  0.77104  0.23922  1.0000
  Fe  Fe115     1.0  0.61400  0.77648  0.31854  1.0000
  S   S226      1.0  0.56165  0.76552  0.32786  1.0000
  Fe  Fe116     1.0  0.67994  0.77995  0.34981  1.0000
  S   S227      1.0  0.70951  0.77690  0.39282  1.0000
  S   S228      1.0  0.63255  0.79100  0.27782  1.0000
  S   S229      1.0  0.70196  0.79530  0.31107  1.0000
  C   C1613     1.0  0.75293  0.73664  0.45526  1.0000
  C   C1614     1.0  0.73559  0.73214  0.43003  1.0000
  C   C1615     1.0  0.72217  0.74413  0.41079  1.0000
  C   C1616     1.0  0.72584  0.76097  0.41632  1.0000
  C   C1617     1.0  0.74323  0.76546  0.44153  1.0000
  H   H1289     1.0  0.75851  0.67038  0.37550  1.0000
  H   H1290     1.0  0.73242  0.71924  0.42531  1.0000
  H   H1291     1.0  0.70895  0.74034  0.39166  1.0000
  H   H1292     1.0  0.74642  0.77837  0.44621  1.0000
  H   H1293     1.0  0.56558  0.85168  0.39391  1.0000
  C   C1618     1.0  0.73434  0.73530  0.15894  1.0000
  C   C1619     1.0  0.75383  0.74945  0.16157  1.0000
  C   C1620     1.0  0.74810  0.76013  0.18614  1.0000
  C   C1621     1.0  0.72254  0.75706  0.20841  1.0000
  C   C1622     1.0  0.70294  0.74298  0.20568  1.0000
  C   C1623     1.0  0.70889  0.73221  0.18126  1.0000
  H   H1294     1.0  0.77322  0.75219  0.14458  1.0000
  H   H1295     1.0  0.76349  0.77094  0.18781  1.0000
  H   H1296     1.0  0.68322  0.74033  0.22245  1.0000
  H   H1297     1.0  0.69348  0.72139  0.17963  1.0000
  H   H1298     1.0  0.90903  0.69228  0.04857  1.0000
  C   C1624     1.0  0.52689  0.90476  0.27848  1.0000
  C   C1625     1.0  0.51642  0.84651  0.41439  1.0000
  H   H1299     1.0  0.54054  0.79405  0.29295  1.0000
  C   C1626     1.0  0.93648  0.71538  0.08944  1.0000
  C   C1627     1.0  0.93517  0.72586  0.06451  1.0000
  C   C1628     1.0  0.96519  0.73191  0.05097  1.0000
  C   C1629     1.0  0.60463  0.94570  0.46532  1.0000
  H   H1300     1.0  0.91360  0.71081  0.10034  1.0000
  H   H1301     1.0  0.79230  0.67525  0.46509  1.0000
  H   H1302     1.0  0.68237  0.97300  0.06547  1.0000
  C   C1630     1.0  0.79353  0.66199  0.12335  1.0000
  C   C1631     1.0  0.50740  0.85617  0.46538  1.0000
  H   H1303     1.0  0.68247  0.98772  0.19853  1.0000
  H   H1304     1.0  0.56950  0.88913  0.38595  1.0000
  C   C1632     1.0  0.54866  0.85321  0.41338  1.0000
  H   H1305     1.0  0.56091  0.82522  0.28516  1.0000
  C   C1633     1.0  0.51781  0.92936  0.38433  1.0000
  H   H1306     1.0  0.60137  0.98396  0.43242  1.0000
  C   C1634     1.0  0.63772  0.88799  0.33968  1.0000
  C   C1635     1.0  0.63810  0.88591  0.30870  1.0000
  C   C1636     1.0  0.64074  0.86998  0.29644  1.0000
  C   C1637     1.0  0.64289  0.85587  0.31487  1.0000
  C   C1638     1.0  0.64244  0.85795  0.34586  1.0000
  C   C1639     1.0  0.63985  0.87388  0.35812  1.0000
  H   H1307     1.0  0.63691  0.89660  0.29422  1.0000
  H   H1308     1.0  0.64125  0.86856  0.27245  1.0000
  H   H1309     1.0  0.64413  0.84728  0.36036  1.0000
  H   H1310     1.0  0.63986  0.87531  0.38209  1.0000
  C   C1640     1.0  0.98080  0.73732  0.17762  1.0000
  H   H1311     1.0  0.81082  0.67728  0.34616  1.0000
  H   H1312     1.0  0.53248  0.95757  0.29661  1.0000
  H   H1313     1.0  0.52538  0.86765  0.35914  1.0000
  C   C1641     1.0  0.52369  0.92187  0.41188  1.0000
  C   C1642     1.0  0.96747  0.71120  0.10076  1.0000
  H   H1314     1.0  0.71527  0.81494  0.42485  1.0000
  H   H1315     1.0  0.56040  0.90303  0.33781  1.0000
  C   C1643     1.0  0.84226  0.66481  0.37667  1.0000
  H   H1316     1.0  0.56394  0.95842  0.23996  1.0000
  C   C1644     1.0  0.56258  0.85083  0.29673  1.0000
  C   C1645     1.0  0.55259  0.83451  0.30111  1.0000
  P   P55       1.0  0.51009  0.93152  0.44661  1.0000
  H   H1317     1.0  0.56073  0.87536  0.31421  1.0000
  C   C1646     1.0  0.95787  0.66999  0.98376  1.0000
  H   H1318     1.0  0.91591  0.67844  0.11187  1.0000
  C   C1647     1.0  0.96440  0.74162  0.15204  1.0000
  C   C1648     1.0  0.50676  0.98045  0.17655  1.0000
  H   H1319     1.0  0.57890  0.85408  0.27753  1.0000
  H   H1320     1.0  0.50621  0.87090  0.23926  1.0000
  C   C1649     1.0  0.92971  0.74293  0.15327  1.0000
  H   H1321     1.0  0.76998  0.75728  0.47982  1.0000
  C   C1650     1.0  0.49625  0.84762  0.44091  1.0000
  H   H1322     1.0  0.56097  0.81442  0.37829  1.0000
  H   H1323     1.0  0.52606  0.81726  0.32986  1.0000
  C   C1651     1.0  0.82672  0.77880  0.13487  1.0000
  C   C1652     1.0  0.83066  0.77360  0.10530  1.0000
  C   C1653     1.0  0.84478  0.75827  0.09892  1.0000
  C   C1654     1.0  0.85427  0.74789  0.12205  1.0000
  C   C1655     1.0  0.85100  0.75312  0.15183  1.0000
  C   C1656     1.0  0.83720  0.76872  0.15803  1.0000
  P   P56       1.0  0.86586  0.74032  0.18160  1.0000
  C   C1657     1.0  0.85058  0.71948  0.17888  1.0000
  C   C1658     1.0  0.91099  0.73999  0.18027  1.0000
  C   C1659     1.0  0.53067  0.92251  0.35769  1.0000
  H   H1324     1.0  0.71257  0.74483  0.99195  1.0000
  C   C1660     1.0  0.54100  0.97861  0.13047  1.0000
  C   C1661     1.0  0.54906  0.90794  0.35829  1.0000
  C   C1662     1.0  0.50678  0.96058  0.30208  1.0000
  C   C1663     1.0  0.81977  0.71652  0.16680  1.0000
  C   C1664     1.0  0.80614  0.70069  0.16765  1.0000
  C   C1665     1.0  0.82338  0.68764  0.18003  1.0000
  C   C1666     1.0  0.85445  0.69034  0.19147  1.0000
  C   C1667     1.0  0.86800  0.70621  0.19099  1.0000
  C   C1668     1.0  0.84831  0.74845  0.21647  1.0000
  C   C1669     1.0  0.86607  0.75992  0.23260  1.0000
  C   C1670     1.0  0.85124  0.76720  0.25823  1.0000
  C   C1671     1.0  0.81840  0.76334  0.26757  1.0000
  C   C1672     1.0  0.80040  0.75220  0.25135  1.0000
  C   C1673     1.0  0.81521  0.74479  0.22592  1.0000
  H   H1325     1.0  0.81551  0.79064  0.13986  1.0000
  H   H1326     1.0  0.82280  0.78142  0.08725  1.0000
  H   H1327     1.0  0.84855  0.75447  0.07591  1.0000
  H   H1328     1.0  0.86482  0.73596  0.11655  1.0000
  H   H1329     1.0  0.83407  0.77316  0.18067  1.0000
  H   H1330     1.0  0.91396  0.73326  0.22698  1.0000
  C   C1674     1.0  0.75664  0.75347  0.46077  1.0000
  S   S230      1.0  0.83063  0.66071  0.05297  1.0000
  H   H1331     1.0  0.97087  0.69380  0.04401  1.0000
  H   H1332     1.0  0.91794  0.74598  0.13284  1.0000
  H   H1333     1.0  0.80582  0.72647  0.15728  1.0000
  H   H1334     1.0  0.78198  0.69862  0.15882  1.0000
  H   H1335     1.0  0.81250  0.67547  0.18073  1.0000
  H   H1336     1.0  0.86785  0.68019  0.20102  1.0000
  H   H1337     1.0  0.89176  0.70805  0.20048  1.0000
  H   H1338     1.0  0.89099  0.76361  0.22499  1.0000
  H   H1339     1.0  0.86495  0.77607  0.27054  1.0000
  H   H1340     1.0  0.80655  0.76917  0.28707  1.0000
  H   H1341     1.0  0.77455  0.74962  0.25802  1.0000
  H   H1342     1.0  0.80020  0.73667  0.21323  1.0000
  C   C1675     1.0  0.76384  0.81227  0.25828  1.0000
  C   C1676     1.0  0.73499  0.81563  0.24340  1.0000
  C   C1677     1.0  0.71593  0.82947  0.25098  1.0000
  C   C1678     1.0  0.72561  0.83995  0.27348  1.0000
  C   C1679     1.0  0.75466  0.83676  0.28850  1.0000
  C   C1680     1.0  0.77360  0.82273  0.28082  1.0000
  P   P57       1.0  0.76486  0.84920  0.32004  1.0000
  C   C1681     1.0  0.74681  0.86953  0.31739  1.0000
  C   C1682     1.0  0.74825  0.83917  0.35385  1.0000
  C   C1683     1.0  0.71868  0.83006  0.35361  1.0000
  C   C1684     1.0  0.70685  0.82145  0.37923  1.0000
  C   C1685     1.0  0.72406  0.82209  0.40539  1.0000
  C   C1686     1.0  0.75266  0.83177  0.40626  1.0000
  C   C1687     1.0  0.76461  0.84040  0.38066  1.0000
  C   C1688     1.0  0.73281  0.87724  0.34302  1.0000
  C   C1689     1.0  0.71932  0.89304  0.34100  1.0000
  C   C1690     1.0  0.71936  0.90122  0.31341  1.0000
  C   C1691     1.0  0.73331  0.89367  0.28778  1.0000
  C   C1692     1.0  0.74713  0.87791  0.28974  1.0000
  C   C1693     1.0  0.80967  0.85085  0.32079  1.0000
  C   C1694     1.0  0.82639  0.86511  0.31014  1.0000
  C   C1695     1.0  0.86100  0.86626  0.31101  1.0000
  C   C1696     1.0  0.87921  0.85323  0.32247  1.0000
  C   C1697     1.0  0.86282  0.83900  0.33308  1.0000
  C   C1698     1.0  0.82823  0.83779  0.33223  1.0000
  H   H1343     1.0  0.77779  0.80116  0.25304  1.0000
  H   H1344     1.0  0.72677  0.80716  0.22678  1.0000
  H   H1345     1.0  0.69274  0.83168  0.24041  1.0000
  H   H1346     1.0  0.70951  0.85012  0.27992  1.0000
  H   H1347     1.0  0.79530  0.81949  0.29268  1.0000
  H   H1348     1.0  0.70493  0.82941  0.33358  1.0000
  H   H1349     1.0  0.68474  0.81391  0.37866  1.0000
  H   H1350     1.0  0.76577  0.83238  0.42669  1.0000
  H   H1351     1.0  0.78675  0.84787  0.38177  1.0000
  H   H1352     1.0  0.73194  0.87111  0.36461  1.0000
  H   H1353     1.0  0.70802  0.89885  0.36076  1.0000
  H   H1354     1.0  0.70816  0.91332  0.31201  1.0000
  H   H1355     1.0  0.73326  0.90001  0.26639  1.0000
  H   H1356     1.0  0.75798  0.87223  0.26972  1.0000
  H   H1357     1.0  0.81292  0.87540  0.30128  1.0000
  H   H1358     1.0  0.87372  0.87732  0.30286  1.0000
  H   H1359     1.0  0.90602  0.85418  0.32320  1.0000
  H   H1360     1.0  0.87691  0.82890  0.34207  1.0000
  H   H1361     1.0  0.81593  0.82668  0.34068  1.0000
  C   C1699     1.0  0.55352  0.92679  0.19215  1.0000
  C   C1700     1.0  0.54666  0.93749  0.21589  1.0000
  C   C1701     1.0  0.56906  0.95006  0.22153  1.0000
  C   C1702     1.0  0.59848  0.95180  0.20362  1.0000
  C   C1703     1.0  0.60579  0.94102  0.17989  1.0000
  C   C1704     1.0  0.58287  0.92856  0.17410  1.0000
  P   P58       1.0  0.64496  0.94284  0.15812  1.0000
  C   C1705     1.0  0.65274  0.92411  0.13747  1.0000
  C   C1706     1.0  0.64471  0.95998  0.13195  1.0000
  C   C1707     1.0  0.66568  0.95979  0.10573  1.0000
  C   C1708     1.0  0.66611  0.97309  0.08562  1.0000
  C   C1709     1.0  0.50683  0.89222  0.26787  1.0000
  C   C1710     1.0  0.61668  0.99080  0.44699  1.0000
  C   C1711     1.0  0.62475  0.97386  0.13792  1.0000
  C   C1712     1.0  0.63757  0.92170  0.11036  1.0000
  C   C1713     1.0  0.64342  0.90727  0.09417  1.0000
  C   C1714     1.0  0.66426  0.89509  0.10502  1.0000
  C   C1715     1.0  0.67924  0.89733  0.13208  1.0000
  C   C1716     1.0  0.67353  0.91177  0.14829  1.0000
  C   C1717     1.0  0.67767  0.94572  0.18362  1.0000
  C   C1718     1.0  0.70507  0.95587  0.17571  1.0000
  C   C1719     1.0  0.72991  0.95829  0.19584  1.0000
  C   C1720     1.0  0.72767  0.95056  0.22390  1.0000
  C   C1721     1.0  0.70078  0.94023  0.23177  1.0000
  C   C1722     1.0  0.67584  0.93782  0.21175  1.0000
  H   H1362     1.0  0.53620  0.91703  0.18785  1.0000
  H   H1363     1.0  0.81627  0.66875  0.11856  1.0000
  C   C1723     1.0  0.92291  0.66941  0.98586  1.0000
  H   H1364     1.0  0.61586  0.96140  0.20859  1.0000
  H   H1365     1.0  0.58770  0.92003  0.15605  1.0000
  H   H1366     1.0  0.68210  0.94948  0.10095  1.0000
  H   H1367     1.0  0.56661  0.87148  0.22632  1.0000
  H   H1368     1.0  0.78021  0.66002  0.98797  1.0000
  C   C1724     1.0  0.56108  0.90508  0.27086  1.0000
  H   H1369     1.0  0.60919  0.97472  0.15832  1.0000
  H   H1370     1.0  0.62130  0.93102  0.10166  1.0000
  H   H1371     1.0  0.63191  0.90557  0.07311  1.0000
  H   H1372     1.0  0.66888  0.88394  0.09240  1.0000
  H   H1373     1.0  0.69545  0.88789  0.14045  1.0000
  H   H1374     1.0  0.68551  0.91323  0.16912  1.0000
  H   H1375     1.0  0.70703  0.96227  0.15438  1.0000
  H   H1376     1.0  0.75043  0.96656  0.19002  1.0000
  H   H1377     1.0  0.74628  0.95294  0.23988  1.0000
  H   H1378     1.0  0.69851  0.93471  0.25391  1.0000
  H   H1379     1.0  0.65480  0.93010  0.21855  1.0000
  H   H1380     1.0  0.97532  0.73111  0.22444  1.0000
  C   C1725     1.0  0.92281  0.68597  0.03063  1.0000
  H   H1381     1.0  0.97860  0.74363  0.13098  1.0000
  H   H1382     1.0  0.62992  0.94334  0.45676  1.0000
  C   C1726     1.0  0.52420  0.84172  0.34841  1.0000
  C   C1727     1.0  0.54150  0.90700  0.41230  1.0000
  C   C1728     1.0  0.96127  0.72558  0.41245  1.0000
  C   C1729     1.0  0.64116  0.98947  0.23110  1.0000
  C   C1730     1.0  0.51849  0.78793  0.30243  1.0000
  C   C1731     1.0  0.97509  0.67872  0.00478  1.0000
  H   H1383     1.0  0.76308  0.68248  0.11068  1.0000
  C   C1732     1.0  0.57798  0.93767  0.45301  1.0000
  S   S231      1.0  0.76926  0.72070  0.47877  1.0000
  H   H1384     1.0  0.53162  0.95838  0.16122  1.0000
  H   H1385     1.0  0.50377  0.94065  0.38317  1.0000
  C   C1733     1.0  0.96251  0.73450  0.20465  1.0000
  H   H1386     1.0  0.52408  0.93599  0.22998  1.0000
  H   H1387     1.0  0.91367  0.71563  0.42825  1.0000
  C   C1734     1.0  0.53322  0.82999  0.32672  1.0000
  C   C1735     1.0  0.81170  0.67006  0.36661  1.0000
  C   C1736     1.0  0.55253  0.86276  0.31758  1.0000
  C   C1737     1.0  0.94666  0.71834  0.46401  1.0000
  C   C1738     1.0  0.50806  0.81394  0.39064  1.0000
  C   C1739     1.0  0.55550  0.88077  0.24092  1.0000
  C   C1740     1.0  0.57540  0.89305  0.25220  1.0000
  H   H1388     1.0  0.57651  0.91470  0.27936  1.0000
  C   C1741     1.0  0.53290  0.85828  0.34314  1.0000
  C   C1742     1.0  0.76332  0.66982  0.11848  1.0000
  C   C1743     1.0  0.55420  0.90010  0.38556  1.0000
  C   C1744     1.0  0.90560  0.67712  0.00985  1.0000
  C   C1745     1.0  0.62535  0.98714  0.11774  1.0000
  C   C1746     1.0  0.97806  0.72346  0.47203  1.0000
  H   H1389     1.0  0.58340  0.92907  0.43517  1.0000
  C   C1747     1.0  0.92777  0.73582  0.20600  1.0000
  H   H1390     1.0  0.96445  0.74011  0.03181  1.0000
  H   H1391     1.0  0.86513  0.66792  0.36397  1.0000
  C   C1748     1.0  0.52695  0.97123  0.15655  1.0000
  H   H1392     1.0  0.60193  0.89328  0.24645  1.0000
  C   C1749     1.0  0.52188  0.77375  0.31997  1.0000
  C   C1750     1.0  0.55968  0.86180  0.43782  1.0000
  H   H1393     1.0  0.87876  0.67650  0.01243  1.0000
  C   C1751     1.0  0.52133  0.88036  0.24863  1.0000
  C   C1752     1.0  0.53992  0.80700  0.38638  1.0000
  H   H1394     1.0  0.97496  0.66626  0.13877  1.0000
  H   H1395     1.0  0.56892  0.78466  0.38680  1.0000
  H   H1396     1.0  0.54672  0.90110  0.43333  1.0000
  C   C1753     1.0  0.93821  0.71943  0.43426  1.0000
  H   H1397     1.0  0.86729  0.66755  0.14170  1.0000
  H   H1398     1.0  0.58453  0.86703  0.43676  1.0000
  S   S232      1.0  0.67031  0.98307  0.40742  1.0000
  C   C1754     1.0  0.51792  0.78026  0.40146  1.0000
  H   H1399     1.0  0.55663  0.97151  0.11492  1.0000
  H   H1400     1.0  0.96819  0.70340  0.12044  1.0000
  H   H1401     1.0  0.52707  0.92887  0.33676  1.0000
  C   C1755     1.0  0.54506  0.94126  0.46301  1.0000
  C   C1756     1.0  0.64594  0.98676  0.09162  1.0000
  H   H1402     1.0  0.52163  0.76713  0.40435  1.0000
  H   H1403     1.0  0.51613  0.91443  0.29228  1.0000
  H   H1404     1.0  0.51763  0.96540  0.42495  1.0000
  H   H1405     1.0  0.95460  0.72651  0.38940  1.0000
  C   C1757     1.0  0.95754  0.68682  0.02804  1.0000
  C   C1758     1.0  0.78221  0.66618  0.38313  1.0000
  C   C1759     1.0  0.90762  0.66594  0.10859  1.0000
  P   P59       1.0  0.50183  0.83556  0.38278  1.0000
  C   C1760     1.0  0.87983  0.65977  0.12525  1.0000
  H   H1406     1.0  0.94574  0.66091  0.07424  1.0000
  H   H1407     1.0  0.71006  0.66747  0.11934  1.0000
  H   H1408     1.0  0.49539  0.97452  0.19638  1.0000
  C   C1761     1.0  0.73335  0.66135  0.12345  1.0000
  H   H1409     1.0  0.70034  0.98966  0.98887  1.0000
  C   C1762     1.0  0.77844  0.66730  0.48086  1.0000
  H   H1410     1.0  0.49506  0.75458  0.34468  1.0000
  H   H1411     1.0  0.92867  0.71374  0.48104  1.0000
  C   C1763     1.0  0.49279  0.76569  0.33141  1.0000
  Fe  Fe117     1.0  0.64200  0.92663  0.84623  1.0000
  S   S233      1.0  0.60194  0.92856  0.81365  1.0000
  S   S234      1.0  0.67124  0.90264  0.85197  1.0000
  Fe  Fe118     1.0  0.62396  0.95998  0.87588  1.0000
  S   S235      1.0  0.58245  0.96353  0.84482  1.0000
  C   C1764     1.0  0.89551  0.66062  0.49521  1.0000
  Fe  Fe119     1.0  0.57031  0.93705  0.85319  1.0000
  S   S236      1.0  0.51938  0.92589  0.86193  1.0000
  Fe  Fe120     1.0  0.61722  0.95522  0.80723  1.0000
  S   S237      1.0  0.60585  0.96823  0.76303  1.0000
  S   S238      1.0  0.60913  0.93374  0.88644  1.0000
  S   S239      1.0  0.66038  0.95298  0.83746  1.0000
  Fe  Fe121     1.0  0.80614  0.68736  0.56816  1.0000
  S   S240      1.0  0.83543  0.70300  0.59880  1.0000
  H   H1412     1.0  0.50427  0.89028  0.91652  1.0000
  Fe  Fe122     1.0  0.79548  0.71664  0.52342  1.0000
  S   S241      1.0  0.82604  0.73370  0.55039  1.0000
  H   H1413     1.0  0.53656  0.88235  0.74176  1.0000
  Fe  Fe123     1.0  0.86202  0.71253  0.55622  1.0000
  S   S242      1.0  0.91856  0.71009  0.54483  1.0000
  Fe  Fe124     1.0  0.79737  0.72306  0.59148  1.0000
  S   S243      1.0  0.77070  0.74172  0.62357  1.0000
  S   S244      1.0  0.83347  0.69619  0.52611  1.0000
  S   S245      1.0  0.76598  0.70663  0.56402  1.0000
  Fe  Fe125     1.0  0.64480  0.80443  0.81038  1.0000
  S   S246      1.0  0.61129  0.79212  0.84569  1.0000
  S   S247      1.0  0.63763  0.83191  0.79938  1.0000
  Fe  Fe126     1.0  0.67188  0.77100  0.78601  1.0000
  S   S248      1.0  0.63905  0.75700  0.82010  1.0000
  S   S249      1.0  0.70682  0.75423  0.75677  1.0000
  Fe  Fe127     1.0  0.59789  0.77469  0.80988  1.0000
  S   S250      1.0  0.54569  0.76664  0.79731  1.0000
  Fe  Fe128     1.0  0.65498  0.77533  0.85363  1.0000
  S   S251      1.0  0.66416  0.76937  0.90295  1.0000
  S   S252      1.0  0.62968  0.78749  0.77367  1.0000
  S   S253      1.0  0.68968  0.78882  0.82039  1.0000
  C   C1765     1.0  0.73805  0.73600  0.95179  1.0000
  C   C1766     1.0  0.73935  0.73693  0.92028  1.0000
  C   C1767     1.0  0.71696  0.74696  0.90494  1.0000
  C   C1768     1.0  0.69274  0.75618  0.92093  1.0000
  C   C1769     1.0  0.69156  0.75534  0.95242  1.0000
  C   C1770     1.0  0.59016  0.72628  0.78328  1.0000
  H   H1414     1.0  0.75792  0.72987  0.90763  1.0000
  H   H1415     1.0  0.71852  0.74761  0.88077  1.0000
  C   C1771     1.0  0.51458  0.95824  0.77026  1.0000
  H   H1416     1.0  0.65533  0.70376  0.88291  1.0000
  C   C1772     1.0  0.75349  0.74492  0.66093  1.0000
  C   C1773     1.0  0.76033  0.73456  0.68505  1.0000
  C   C1774     1.0  0.74592  0.73765  0.71402  1.0000
  C   C1775     1.0  0.72438  0.75111  0.71949  1.0000
  C   C1776     1.0  0.71737  0.76139  0.69533  1.0000
  C   C1777     1.0  0.73193  0.75836  0.66642  1.0000
  H   H1417     1.0  0.77696  0.72423  0.68143  1.0000
  H   H1418     1.0  0.75161  0.72955  0.73236  1.0000
  H   H1419     1.0  0.70038  0.77155  0.69875  1.0000
  H   H1420     1.0  0.72622  0.76645  0.64805  1.0000
  H   H1421     1.0  0.58739  0.73723  0.79664  1.0000
  H   H1422     1.0  0.61945  0.96357  0.49712  1.0000
  H   H1423     1.0  0.52089  0.77963  0.85547  1.0000
  C   C1778     1.0  0.93609  0.66569  0.56463  1.0000
  H   H1424     1.0  0.93531  0.68705  0.93116  1.0000
  C   C1779     1.0  0.95568  0.71594  0.56217  1.0000
  C   C1780     1.0  0.95562  0.72695  0.58596  1.0000
  H   H1425     1.0  0.53763  0.75970  0.89946  1.0000
  H   H1426     1.0  0.94704  0.67510  0.54980  1.0000
  H   H1427     1.0  0.93228  0.73194  0.59498  1.0000
  C   C1781     1.0  0.60860  0.98709  0.71169  1.0000
  H   H1428     1.0  0.55172  0.80061  0.78525  1.0000
  H   H1429     1.0  0.50943  0.91731  0.78481  1.0000
  C   C1782     1.0  0.72386  0.71755  0.84251  1.0000
  H   H1430     1.0  0.54819  0.89617  0.83268  1.0000
  C   C1783     1.0  0.80037  0.66595  0.97489  1.0000
  C   C1784     1.0  0.55146  0.75011  0.88765  1.0000
  C   C1785     1.0  0.53307  0.89094  0.81592  1.0000
  H   H1431     1.0  0.55097  0.69689  0.86774  1.0000
  C   C1786     1.0  0.65952  0.88299  0.83846  1.0000
  C   C1787     1.0  0.64106  0.88142  0.81309  1.0000
  C   C1788     1.0  0.63438  0.86570  0.80175  1.0000
  C   C1789     1.0  0.64562  0.85130  0.81577  1.0000
  C   C1790     1.0  0.66301  0.85282  0.84178  1.0000
  C   C1791     1.0  0.67001  0.86857  0.85294  1.0000
  H   H1432     1.0  0.63284  0.89235  0.80164  1.0000
  H   H1433     1.0  0.62079  0.86469  0.78169  1.0000
  H   H1434     1.0  0.67129  0.84190  0.85310  1.0000
  H   H1435     1.0  0.68383  0.86960  0.87285  1.0000
  H   H1436     1.0  0.66607  0.70467  0.55537  1.0000
  H   H1437     1.0  0.54205  0.72199  0.83337  1.0000
  H   H1438     1.0  0.51681  0.96136  0.86005  1.0000
  H   H1439     1.0  0.63627  0.75444  0.71879  1.0000
  C   C1792     1.0  0.58466  0.74714  0.89352  1.0000
  H   H1440     1.0  0.75110  0.68761  0.50062  1.0000
  H   H1441     1.0  0.57251  0.67201  0.64046  1.0000
  C   C1793     1.0  0.98647  0.70964  0.55086  1.0000
  C   C1794     1.0  0.75497  0.67441  0.50097  1.0000
  C   C1795     1.0  0.71401  0.74536  0.96776  1.0000
  C   C1796     1.0  0.93595  0.67726  0.91491  1.0000
  H   H1442     1.0  0.63294  0.74520  0.62474  1.0000
  H   H1443     1.0  0.72250  0.74511  0.51690  1.0000
  C   C1797     1.0  0.79483  0.68080  0.96001  1.0000
  C   C1798     1.0  0.54641  0.88918  0.78668  1.0000
  H   H1444     1.0  0.53687  0.68310  0.60150  1.0000
  C   C1799     1.0  0.50517  0.77176  0.81286  1.0000
  C   C1800     1.0  0.55065  0.81314  0.79315  1.0000
  H   H1445     1.0  0.53716  0.66933  0.88779  1.0000
  H   H1446     1.0  0.75021  0.71958  0.84469  1.0000
  H   H1447     1.0  0.52630  0.96899  0.77898  1.0000
  C   C1801     1.0  0.90735  0.66929  0.58221  1.0000
  C   C1802     1.0  0.53622  0.74090  0.86613  1.0000
  H   H1448     1.0  0.59678  0.75444  0.90986  1.0000
  H   H1449     1.0  0.55580  0.70716  0.57049  1.0000
  C   C1803     1.0  0.95157  0.68012  0.88665  1.0000
  C   C1804     1.0  0.65854  0.98770  0.73909  1.0000
  H   H1450     1.0  0.97179  0.66384  0.96577  1.0000
  C   C1805     1.0  0.56906  0.68715  0.86458  1.0000
  C   C1806     1.0  0.62280  0.67701  0.84586  1.0000
  H   H1451     1.0  0.71978  0.67020  0.53820  1.0000
  C   C1807     1.0  0.74326  0.97615  0.90967  1.0000
  C   C1808     1.0  0.63562  0.99011  0.94268  1.0000
  C   C1809     1.0  0.52639  0.88338  0.76458  1.0000
  H   H1452     1.0  0.87109  0.66027  0.61549  1.0000
  C   C1810     1.0  0.54517  0.97349  0.65538  1.0000
  C   C1811     1.0  0.60492  0.69758  0.77740  1.0000
  C   C1812     1.0  0.52591  0.97022  0.68173  1.0000
  H   H1453     1.0  0.53086  0.80237  0.89786  1.0000
  H   H1454     1.0  0.72615  0.75723  0.56721  1.0000
  H   H1455     1.0  0.96288  0.69198  0.88137  1.0000
  H   H1456     1.0  0.57415  0.73878  0.74405  1.0000
  H   H1457     1.0  0.53622  0.94236  0.80247  1.0000
  H   H1458     1.0  0.75456  0.96549  0.91974  1.0000
  H   H1459     1.0  0.71011  0.96179  0.88430  1.0000
  H   H1460     1.0  0.89591  0.68132  0.58063  1.0000
  H   H1461     1.0  0.55781  0.90374  0.90155  1.0000
  H   H1462     1.0  0.56020  0.82372  0.74930  1.0000
  H   H1463     1.0  0.64405  0.82158  0.91861  1.0000
  C   C1813     1.0  0.92103  0.66197  0.92197  1.0000
  C   C1814     1.0  0.50564  0.92886  0.77346  1.0000
  C   C1815     1.0  0.62614  0.98185  0.73639  1.0000
  P   P60       1.0  0.53754  0.83611  0.87378  1.0000
  C   C1816     1.0  0.49350  0.95663  0.85332  1.0000
  C   C1817     1.0  0.74561  0.67502  0.63615  1.0000
  C   C1818     1.0  0.57160  0.70216  0.58719  1.0000
  C   C1819     1.0  0.56090  0.68863  0.60472  1.0000
  H   H1464     1.0  0.96431  0.67004  0.84323  1.0000
  C   C1820     1.0  0.55517  0.82619  0.77283  1.0000
  C   C1821     1.0  0.67018  0.70868  0.86395  1.0000
  C   C1822     1.0  0.71799  0.67011  0.62088  1.0000
  C   C1823     1.0  0.61900  0.81763  0.91465  1.0000
  H   H1465     1.0  0.67313  0.76247  0.96513  1.0000
  C   C1824     1.0  0.95237  0.66777  0.86518  1.0000
  H   H1466     1.0  0.98693  0.70096  0.53273  1.0000
  C   C1825     1.0  0.70306  0.98778  0.87710  1.0000
  H   H1467     1.0  0.60728  0.83982  0.89191  1.0000
  C   C1826     1.0  0.70435  0.71087  0.86643  1.0000
  H   H1468     1.0  0.62484  0.79393  0.93573  1.0000
  C   C1827     1.0  0.60819  0.80205  0.92430  1.0000
  C   C1828     1.0  0.55508  0.80701  0.90296  1.0000
  C   C1829     1.0  0.59774  0.69858  0.74720  1.0000
  H   H1469     1.0  0.98385  0.72278  0.49528  1.0000
  C   C1830     1.0  0.58644  0.71337  0.73517  1.0000
  C   C1831     1.0  0.57886  0.88210  0.88067  1.0000
  H   H1470     1.0  0.90106  0.67183  0.50688  1.0000
  H   H1471     1.0  0.64683  0.67890  0.83417  1.0000
  H   H1472     1.0  0.50332  0.83247  0.93273  1.0000
  H   H1473     1.0  0.77029  0.69527  0.65623  1.0000
  C   C1832     1.0  0.54864  0.84548  0.81354  1.0000
  H   H1474     1.0  0.60094  0.68789  0.73312  1.0000
  H   H1475     1.0  0.76570  0.66642  0.63949  1.0000
  H   H1476     1.0  0.54251  0.80595  0.83909  1.0000
  C   C1833     1.0  0.57360  0.86567  0.87322  1.0000
  H   H1477     1.0  0.58090  0.71419  0.71179  1.0000
  H   H1478     1.0  0.60194  0.88822  0.87358  1.0000
  H   H1479     1.0  0.62149  0.76339  0.66801  1.0000
  C   C1834     1.0  0.51883  0.86668  0.89830  1.0000
  C   C1835     1.0  0.85885  0.66684  0.95790  1.0000
  C   C1836     1.0  0.49986  0.77769  0.84195  1.0000
  C   C1837     1.0  0.58390  0.65859  0.87247  1.0000
  P   P61       1.0  0.90053  0.65844  0.95846  1.0000
  H   H1480     1.0  0.69948  0.74348  0.61141  1.0000
  C   C1838     1.0  0.54382  0.85763  0.88259  1.0000
  C   C1839     1.0  0.56535  0.82294  0.89386  1.0000
  C   C1840     1.0  0.59781  0.82801  0.89942  1.0000
  H   H1481     1.0  0.66187  0.72720  0.72632  1.0000
  C   C1841     1.0  0.73710  0.66458  0.52197  1.0000
  H   H1482     1.0  0.57202  0.89271  0.78110  1.0000
  H   H1483     1.0  0.61380  0.68605  0.78623  1.0000
  C   C1842     1.0  0.52385  0.88323  0.90502  1.0000
  C   C1843     1.0  0.55400  0.89087  0.89653  1.0000
  H   H1484     1.0  0.81690  0.70058  0.93361  1.0000
  C   C1844     1.0  0.55413  0.84235  0.78302  1.0000
  H   H1485     1.0  0.54792  0.85806  0.82081  1.0000
  H   H1486     1.0  0.51422  0.95602  0.49349  1.0000
  H   H1487     1.0  0.59264  0.85937  0.85970  1.0000
  H   H1488     1.0  0.71560  0.70771  0.88718  1.0000
  C   C1845     1.0  0.58101  0.68237  0.62662  1.0000
  H   H1489     1.0  0.56179  0.96981  0.51549  1.0000
  S   S254      1.0  0.62054  0.98111  0.90981  1.0000
  H   H1490     1.0  0.55857  0.85242  0.76734  1.0000
  H   H1491     1.0  0.69282  0.71888  0.51109  1.0000
  C   C1846     1.0  0.51052  0.98316  0.69773  1.0000
  C   C1847     1.0  0.54566  0.81622  0.82370  1.0000
  H   H1492     1.0  0.67279  0.70869  0.68370  1.0000
  H   H1493     1.0  0.67245  0.98377  0.75787  1.0000
  C   C1848     1.0  0.54488  0.83241  0.83422  1.0000
  C   C1849     1.0  0.52052  0.94305  0.78367  1.0000
  H   H1494     1.0  0.56840  0.78443  0.92510  1.0000
  S   S255      1.0  0.79195  0.66032  0.57876  1.0000
  C   C1850     1.0  0.58273  0.72722  0.75322  1.0000
  C   C1851     1.0  0.60067  0.71137  0.79583  1.0000
  H   H1495     1.0  0.77035  0.68642  0.96150  1.0000
  P   P62       1.0  0.61097  0.71029  0.83464  1.0000
  C   C1852     1.0  0.65522  0.71314  0.83743  1.0000
  C   C1853     1.0  0.70922  0.72195  0.81601  1.0000
  C   C1854     1.0  0.67506  0.71970  0.81337  1.0000
  C   C1855     1.0  0.58768  0.72571  0.85597  1.0000
  C   C1856     1.0  0.55419  0.72877  0.85035  1.0000
  C   C1857     1.0  0.60272  0.73498  0.87785  1.0000
  H   H1496     1.0  0.51398  0.92408  0.51111  1.0000
  C   C1858     1.0  0.71829  0.97406  0.88961  1.0000
  C   C1859     1.0  0.85308  0.68186  0.94317  1.0000
  C   C1860     1.0  0.82116  0.68875  0.94418  1.0000
  H   H1497     1.0  0.68321  0.98584  0.86225  1.0000
  H   H1498     1.0  0.72422  0.72741  0.79761  1.0000
  H   H1499     1.0  0.66427  0.72350  0.79277  1.0000
  H   H1500     1.0  0.72548  0.71508  0.64715  1.0000
  H   H1501     1.0  0.62860  0.73328  0.88245  1.0000
  C   C1861     1.0  0.72445  0.80373  0.88952  1.0000
  C   C1862     1.0  0.74490  0.79043  0.89604  1.0000
  C   C1863     1.0  0.77388  0.78750  0.87827  1.0000
  C   C1864     1.0  0.78276  0.79806  0.85425  1.0000
  C   C1865     1.0  0.76305  0.81187  0.84832  1.0000
  C   C1866     1.0  0.73336  0.81437  0.86564  1.0000
  P   P63       1.0  0.77320  0.82497  0.81630  1.0000
  C   C1867     1.0  0.81746  0.82520  0.80749  1.0000
  C   C1868     1.0  0.75124  0.81645  0.78606  1.0000
  C   C1869     1.0  0.76302  0.80201  0.77212  1.0000
  C   C1870     1.0  0.74560  0.79498  0.74933  1.0000
  C   C1871     1.0  0.71618  0.80222  0.74049  1.0000
  C   C1872     1.0  0.70399  0.81638  0.75462  1.0000
  C   C1873     1.0  0.72116  0.82336  0.77762  1.0000
  C   C1874     1.0  0.83005  0.82584  0.77762  1.0000
  C   C1875     1.0  0.86440  0.82641  0.77096  1.0000
  C   C1876     1.0  0.88637  0.82658  0.79405  1.0000
  C   C1877     1.0  0.87398  0.82632  0.82384  1.0000
  C   C1878     1.0  0.83963  0.82575  0.83057  1.0000
  C   C1879     1.0  0.76280  0.84621  0.82375  1.0000
  C   C1880     1.0  0.76281  0.85227  0.85300  1.0000
  C   C1881     1.0  0.75561  0.86883  0.85858  1.0000
  C   C1882     1.0  0.74860  0.87947  0.83503  1.0000
  C   C1883     1.0  0.74933  0.87363  0.80580  1.0000
  C   C1884     1.0  0.75695  0.85713  0.80008  1.0000
  H   H1502     1.0  0.70120  0.80545  0.90251  1.0000
  H   H1503     1.0  0.73783  0.78215  0.91445  1.0000
  H   H1504     1.0  0.78902  0.77683  0.88285  1.0000
  H   H1505     1.0  0.80470  0.79527  0.84014  1.0000
  H   H1506     1.0  0.71673  0.82429  0.86026  1.0000
  H   H1507     1.0  0.78534  0.79601  0.77919  1.0000
  H   H1508     1.0  0.75442  0.78367  0.73896  1.0000
  H   H1509     1.0  0.70238  0.79666  0.72320  1.0000
  H   H1510     1.0  0.68065  0.82172  0.74836  1.0000
  H   H1511     1.0  0.71034  0.83386  0.78918  1.0000
  H   H1512     1.0  0.81340  0.82604  0.75943  1.0000
  H   H1513     1.0  0.87396  0.82680  0.74785  1.0000
  H   H1514     1.0  0.91297  0.82706  0.78884  1.0000
  H   H1515     1.0  0.89096  0.82663  0.84176  1.0000
  H   H1516     1.0  0.83035  0.82579  0.85375  1.0000
  H   H1517     1.0  0.76835  0.84426  0.87154  1.0000
  H   H1518     1.0  0.75484  0.87342  0.88122  1.0000
  H   H1519     1.0  0.74203  0.89219  0.83948  1.0000
  H   H1520     1.0  0.74360  0.88190  0.78765  1.0000
  H   H1521     1.0  0.75798  0.85292  0.77721  1.0000
  C   C1885     1.0  0.66526  0.98513  0.95502  1.0000
  H   H1522     1.0  0.55737  0.96350  0.64327  1.0000
  C   C1886     1.0  0.56107  0.67147  0.87603  1.0000
  C   C1887     1.0  0.60258  0.70933  0.59131  1.0000
  C   C1888     1.0  0.62337  0.70277  0.61261  1.0000
  C   C1889     1.0  0.61200  0.68951  0.63078  1.0000
  P   P64       1.0  0.66255  0.71243  0.61920  1.0000
  C   C1890     1.0  0.65450  0.72575  0.65081  1.0000
  C   C1891     1.0  0.69437  0.69749  0.62630  1.0000
  C   C1892     1.0  0.69249  0.68134  0.61574  1.0000
  C   C1893     1.0  0.98592  0.73173  0.59790  1.0000
  H   H1523     1.0  0.51066  0.74343  0.86110  1.0000
  C   C1894     1.0  0.74820  0.69124  0.64564  1.0000
  C   C1895     1.0  0.72278  0.70244  0.64052  1.0000
  C   C1896     1.0  0.66174  0.72059  0.67979  1.0000
  C   C1897     1.0  0.65515  0.73094  0.70413  1.0000
  C   C1898     1.0  0.64064  0.74634  0.69989  1.0000
  C   C1899     1.0  0.63256  0.75140  0.67126  1.0000
  C   C1900     1.0  0.63928  0.74111  0.64681  1.0000
  C   C1901     1.0  0.67909  0.72350  0.58654  1.0000
  C   C1902     1.0  0.67789  0.71648  0.55809  1.0000
  C   C1903     1.0  0.69305  0.72442  0.53299  1.0000
  C   C1904     1.0  0.70994  0.73924  0.53622  1.0000
  C   C1905     1.0  0.71177  0.74613  0.56450  1.0000
  C   C1906     1.0  0.69646  0.73829  0.58958  1.0000
  H   H1524     1.0  0.54767  0.86999  0.48270  1.0000
  C   C1907     1.0  0.60007  0.69008  0.84946  1.0000
  H   H1525     1.0  0.61014  0.72003  0.57797  1.0000
  H   H1526     1.0  0.62711  0.68472  0.64817  1.0000
  H   H1527     1.0  0.67187  0.67748  0.60301  1.0000
  C   C1908     1.0  0.57630  0.79671  0.91835  1.0000
  H   H1528     1.0  0.67934  0.97508  0.94512  1.0000
  H   H1529     1.0  0.58366  0.98261  0.70932  1.0000
  H   H1530     1.0  0.87317  0.68853  0.93158  1.0000
  H   H1531     1.0  0.98140  0.76789  0.54197  1.0000
  H   H1532     1.0  0.52329  0.95762  0.68952  1.0000
  H   H1533     1.0  0.98549  0.74030  0.61621  1.0000
  H   H1534     1.0  0.84548  0.66791  0.48814  1.0000
  C   C1909     1.0  0.83221  0.65904  0.97389  1.0000
  C   C1910     1.0  0.50001  0.88652  0.82339  1.0000
  H   H1535     1.0  0.98625  0.75452  0.49295  1.0000
  C   C1911     1.0  0.49352  0.95934  0.74640  1.0000
  C   C1912     1.0  0.54897  0.98963  0.64473  1.0000
  C   C1913     1.0  0.49325  0.87904  0.77187  1.0000
  S   S256      1.0  0.76659  0.72271  0.96967  1.0000
  C   C1914     1.0  0.56615  0.96069  0.49828  1.0000
  C   C1915     1.0  0.59874  0.95713  0.48803  1.0000
  C   C1916     1.0  0.49800  0.91511  0.50148  1.0000
  C   C1917     1.0  0.49564  0.82979  0.88559  1.0000
  C   C1918     1.0  0.61474  0.66136  0.85736  1.0000
  H   H1536     1.0  0.49526  0.86119  0.90515  1.0000
  C   C1919     1.0  0.53937  0.95286  0.48575  1.0000
  C   C1920     1.0  0.86381  0.65833  0.48465  1.0000
