data_image0
_chemical_formula_structural       SFeCSHCSC3HC4HC2HCH3CH2C2H3C2FeS2C4H3CHC5H4C2H2CHC4H2C6HC2PC2HCHC2HCHSH2C3HC3H2CH3C2H2CHCPSHCSH2FeHC2HC2H10CHCHCHC2HCHC2HCH2CH2CHC3HCSC6HFeC2SH2SHCSCH2FeH2SC2HC2SC2HCHSH2CFeC5SCHSHFeHFeH2C2HSHC3SCFeSFeSCHCHCHCHC2SC3H2CH4C2FeH2CHC2HC2H2C2H2CFeHC2HCH2CH2C2HC2HCFeCSHFeS2FeC2H5C3FeCHC2HC2H2SCHCS2C4H2CH2C4HCHCH2CHC3H2CHCPCHC4HPH2C6H2C7H4C2H2C2H3C6HC4SCHFeH2CHCH2CH3CPCHC4Fe2C2HC2H2CHCH2CHCHSC2HCHCHCH2CHCH3SH2CHC2HC3H2SC2HPHC2HC2HC2H2CH2CH2SC4SH2CHFeC2HSC2HCHC2H3SHFeS2FeSHC5H6C6H7C3HC2H2C4HC3HCHPSHCHCHC6SC2PCHC3HC6H3SCHCHCH3C2HCH2C4HCHCH2CH2C3HSH3C8H3PHCHC2FePCPHC2H3C2H3CH2CH3SC3SC5HCH3CH2C4HCHCH3C2PH2C3SCHC2H2C3HCSCHC3H2CHC4H2C2SH5C2SCHCH3CHCH3PC2H2S2FeCSFeS2FeHSFeSFeS2HCH3C6H4FeHC6H3C2HCH3C2SCHC4HC2HPHC4H3C3H2C5H3C8H2CPHCH3SPHCHCHC9FeHCHC2HCFeCH4C2HCHC4HSHSH2C3HCHC2HC2SFeC2HC5H4CH2SHCHC3HC3H2CHCHC4H5CH3CH
_chemical_formula_sum              "S64 Fe32 C480 H384 P16"
_cell_length_a       33.418
_cell_length_b       33.6164
_cell_length_c       32.0057
_cell_angle_alpha    91.7246
_cell_angle_beta     91.7291
_cell_angle_gamma    119.499

_space_group_name_H-M_alt    "P 1"
_space_group_IT_number       1

loop_
  _space_group_symop_operation_xyz
  'x, y, z'

loop_
  _atom_site_type_symbol
  _atom_site_label
  _atom_site_symmetry_multiplicity
  _atom_site_fract_x
  _atom_site_fract_y
  _atom_site_fract_z
  _atom_site_occupancy
  S   S1        1.0  0.05233  0.07894  0.18276  1.0000
  Fe  Fe1       1.0  0.10178  0.07629  0.23043  1.0000
  C   C1        1.0  0.23889  0.20403  0.29368  1.0000
  S   S2        1.0  0.17681  0.12981  0.24391  1.0000
  H   H1        1.0  0.26117  0.18935  0.29084  1.0000
  C   C2        1.0  0.19480  0.18167  0.27347  1.0000
  S   S3        1.0  0.05063  0.04934  0.28040  1.0000
  C   C3        1.0  0.10007  0.28445  0.27400  1.0000
  C   C4        1.0  0.25393  0.24471  0.31845  1.0000
  C   C5        1.0  0.06784  0.05067  0.04710  1.0000
  H   H2        1.0  0.21472  0.06455  0.21168  1.0000
  C   C6        1.0  0.08361  0.27379  0.31415  1.0000
  C   C7        1.0  0.16615  0.20082  0.27753  1.0000
  C   C8        1.0  0.18188  0.24230  0.30113  1.0000
  C   C9        1.0  0.07919  0.25209  0.24053  1.0000
  H   H3        1.0  0.13224  0.18408  0.26192  1.0000
  C   C10       1.0  0.22552  0.26415  0.32205  1.0000
  C   C11       1.0  0.21890  0.05873  0.27820  1.0000
  H   H4        1.0  0.12972  0.31741  0.26904  1.0000
  C   C12       1.0  0.04613  0.23060  0.32105  1.0000
  H   H5        1.0  0.23061  0.09472  0.28475  1.0000
  H   H6        1.0  0.16009  0.25741  0.30341  1.0000
  H   H7        1.0  0.07838  0.07168  0.07592  1.0000
  C   C13       1.0  0.21050  0.04179  0.23659  1.0000
  H   H8        1.0  0.14527  0.06022  0.32681  1.0000
  H   H9        1.0  0.09258  0.25991  0.20962  1.0000
  C   C14       1.0  0.21124  0.02932  0.31090  1.0000
  C   C15       1.0  0.04101  0.20954  0.24695  1.0000
  H   H10       1.0  0.30607  0.46917  0.30209  1.0000
  H   H11       1.0  0.23979  0.39334  0.31510  1.0000
  H   H12       1.0  0.10256  0.10794  0.00785  1.0000
  C   C16       1.0  0.08145  0.07116  0.00839  1.0000
  C   C17       1.0  0.29108  0.46309  0.33239  1.0000
  Fe  Fe2       1.0  0.05295  0.35423  0.55510  1.0000
  S   S4        1.0  0.09324  0.35660  0.49974  1.0000
  S   S5        1.0  0.08909  0.40191  0.61089  1.0000
  C   C18       1.0  0.14356  0.35592  0.51552  1.0000
  C   C19       1.0  0.15293  0.35171  0.55757  1.0000
  C   C20       1.0  0.19383  0.35211  0.56973  1.0000
  C   C21       1.0  0.17457  0.35942  0.48560  1.0000
  H   H13       1.0  0.12864  0.34787  0.58078  1.0000
  H   H14       1.0  0.20128  0.34960  0.60235  1.0000
  H   H15       1.0  0.16676  0.36145  0.45297  1.0000
  C   C22       1.0  0.09844  0.24307  0.48498  1.0000
  H   H16       1.0  0.20603  0.46801  0.55786  1.0000
  C   C23       1.0  0.07364  0.05910  0.50778  1.0000
  C   C24       1.0  0.09110  0.21877  0.61534  1.0000
  C   C25       1.0  0.13724  0.23578  0.60675  1.0000
  C   C26       1.0  0.14972  0.21083  0.57973  1.0000
  C   C27       1.0  0.11605  0.16873  0.56138  1.0000
  H   H17       1.0  0.16323  0.26852  0.62086  1.0000
  H   H18       1.0  0.18549  0.22451  0.57256  1.0000
  H   H19       1.0  0.12680  0.15044  0.54033  1.0000
  H   H20       1.0  0.12397  0.47268  0.45904  1.0000
  C   C28       1.0  0.06939  0.15124  0.56986  1.0000
  C   C29       1.0  0.07112  0.23094  0.41192  1.0000
  H   H21       1.0  0.18261  0.25453  0.42125  1.0000
  H   H22       1.0  0.09313  0.24698  0.51776  1.0000
  C   C30       1.0  0.11390  0.23719  0.40023  1.0000
  H   H23       1.0  0.16865  0.25866  0.49648  1.0000
  C   C31       1.0  0.14897  0.24745  0.43066  1.0000
  C   C32       1.0  0.14111  0.24986  0.47302  1.0000
  C   C33       1.0  0.06350  0.23356  0.45456  1.0000
  C   C34       1.0  0.25317  0.44615  0.41100  1.0000
  H   H24       1.0  0.17233  0.10140  0.60608  1.0000
  H   H25       1.0  0.11866  0.45165  0.53258  1.0000
  C   C35       1.0  0.13674  0.48747  0.52544  1.0000
  C   C36       1.0  0.15237  0.12312  0.35245  1.0000
  C   C37       1.0  0.09016  0.06208  0.43456  1.0000
  C   C38       1.0  0.25466  0.49901  0.50989  1.0000
  C   C39       1.0  0.22500  0.35590  0.53978  1.0000
  C   C40       1.0  0.21510  0.35915  0.49765  1.0000
  H   H26       1.0  0.23827  0.36096  0.47415  1.0000
  C   C41       1.0  0.24004  0.47749  0.54758  1.0000
  C   C42       1.0  0.21888  0.16870  0.39911  1.0000
  P   P1        1.0  0.22122  0.05152  0.36438  1.0000
  C   C43       1.0  0.23231  0.13556  0.39479  1.0000
  C   C44       1.0  0.20594  0.09596  0.36887  1.0000
  H   H27       1.0  0.23815  0.43852  0.44118  1.0000
  C   C45       1.0  0.26153  0.15033  0.58705  1.0000
  H   H28       1.0  0.16930  0.18872  0.38024  1.0000
  C   C46       1.0  0.17876  0.16232  0.37823  1.0000
  C   C47       1.0  0.25423  0.11707  0.50428  1.0000
  H   H29       1.0  0.24052  0.20004  0.41754  1.0000
  C   C48       1.0  0.23462  0.41198  0.37882  1.0000
  H   H30       1.0  0.20630  0.37834  0.38453  1.0000
  S   S6        1.0  0.27626  0.35668  0.55518  1.0000
  H   H31       1.0  0.25331  0.10515  0.47243  1.0000
  H   H32       1.0  0.12057  0.23462  0.36771  1.0000
  C   C49       1.0  0.06881  0.08835  0.42793  1.0000
  C   C50       1.0  0.26059  0.17607  0.55373  1.0000
  C   C51       1.0  0.05009  0.08353  0.50096  1.0000
  H   H33       1.0  0.25740  0.08644  0.60369  1.0000
  C   C52       1.0  0.25698  0.15942  0.51250  1.0000
  C   C53       1.0  0.25422  0.09082  0.53724  1.0000
  C   C54       1.0  0.25732  0.10715  0.57852  1.0000
  H   H34       1.0  0.25287  0.05828  0.53089  1.0000
  H   H35       1.0  0.06724  0.09987  0.39698  1.0000
  C   C55       1.0  0.16584  0.09002  0.34764  1.0000
  H   H36       1.0  0.25796  0.18016  0.48690  1.0000
  H   H37       1.0  0.08157  0.23868  0.63576  1.0000
  H   H38       1.0  0.10448  0.05256  0.40880  1.0000
  C   C56       1.0  0.09314  0.04802  0.47455  1.0000
  C   C57       1.0  0.16848  0.11834  0.63364  1.0000
  H   H39       1.0  0.05268  0.30296  0.42303  1.0000
  H   H40       1.0  0.23665  0.24121  0.63750  1.0000
  C   C58       1.0  0.05728  0.17659  0.59728  1.0000
  H   H41       1.0  0.09440  0.07924  0.62798  1.0000
  C   C59       1.0  0.04925  0.09954  0.46112  1.0000
  P   P2        1.0  0.26481  0.17097  0.64036  1.0000
  S   S7        1.0  0.24342  0.31580  0.35202  1.0000
  H   H42       1.0  0.25639  0.44810  0.59975  1.0000
  C   C60       1.0  0.26838  0.46608  0.57123  1.0000
  S   S8        1.0  0.27767  0.28978  0.45617  1.0000
  H   H43       1.0  0.26341  0.20930  0.55936  1.0000
  H   H44       1.0  0.36418  0.23772  0.64405  1.0000
  Fe  Fe3       1.0  0.04608  0.33986  0.64784  1.0000
  H   H45       1.0  0.23240  0.03002  0.45163  1.0000
  C   C61       1.0  0.12408  0.10576  0.64580  1.0000
  C   C62       1.0  0.27381  0.25813  0.64065  1.0000
  H   H46       1.0  0.12260  0.11947  0.33470  1.0000
  C   C63       1.0  0.13978  0.49936  0.48379  1.0000
  C   C64       1.0  0.34537  0.25622  0.64432  1.0000
  H   H47       1.0  0.07692  0.04854  0.53876  1.0000
  H   H48       1.0  0.11063  0.02854  0.47970  1.0000
  H   H49       1.0  0.23172  0.50651  0.49144  1.0000
  H   H50       1.0  0.15273  0.51119  0.58980  1.0000
  H   H51       1.0  0.26378  0.14173  0.41109  1.0000
  H   H52       1.0  0.10046  0.29898  0.33992  1.0000
  H   H53       1.0  0.03308  0.12016  0.45547  1.0000
  H   H54       1.0  0.30379  0.13781  0.34811  1.0000
  H   H55       1.0  0.53131  0.21626  0.49592  1.0000
  H   H56       1.0  0.46057  0.27407  0.66061  1.0000
  C   C65       1.0  0.29125  0.48899  0.40421  1.0000
  H   H57       1.0  0.19885  0.04162  0.64999  1.0000
  C   C66       1.0  0.04387  0.50207  0.52827  1.0000
  H   H58       1.0  0.05563  0.51862  0.46353  1.0000
  C   C67       1.0  0.25357  0.42041  0.33959  1.0000
  H   H59       1.0  0.04446  0.47036  0.52410  1.0000
  C   C68       1.0  0.03764  0.51604  0.56799  1.0000
  C   C69       1.0  0.33326  0.14798  0.65727  1.0000
  H   H60       1.0  0.38092  0.50479  0.41712  1.0000
  C   C70       1.0  0.28174  0.07304  0.37680  1.0000
  H   H61       1.0  0.41234  0.11999  0.40263  1.0000
  C   C71       1.0  0.29852  0.30591  0.64292  1.0000
  C   C72       1.0  0.46310  0.42067  0.58729  1.0000
  H   H62       1.0  0.38614  0.16773  0.36568  1.0000
  C   C73       1.0  0.36137  0.13342  0.37384  1.0000
  H   H63       1.0  0.51850  0.15350  0.62969  1.0000
  H   H64       1.0  0.52880  0.09918  0.54881  1.0000
  C   C74       1.0  0.51944  0.26475  0.65409  1.0000
  H   H65       1.0  0.40727  0.32198  0.64794  1.0000
  H   H66       1.0  0.53051  0.28550  0.62716  1.0000
  C   C75       1.0  0.31105  0.47539  0.55690  1.0000
  H   H67       1.0  0.49963  0.11562  0.48334  1.0000
  C   C76       1.0  0.37002  0.30409  0.64640  1.0000
  C   C77       1.0  0.30975  0.49739  0.36447  1.0000
  C   C78       1.0  0.39067  0.24351  0.52626  1.0000
  H   H68       1.0  0.35804  0.50161  0.50789  1.0000
  C   C79       1.0  0.32560  0.49637  0.51902  1.0000
  S   S9        1.0  0.36789  0.34074  0.39860  1.0000
  C   C80       1.0  0.51010  0.44858  0.59882  1.0000
  C   C81       1.0  0.29766  0.50871  0.49537  1.0000
  C   C82       1.0  0.52636  0.38922  0.54029  1.0000
  C   C83       1.0  0.52394  0.48814  0.62467  1.0000
  C   C84       1.0  0.41146  0.23089  0.55812  1.0000
  C   C85       1.0  0.44493  0.47219  0.62601  1.0000
  H   H69       1.0  0.35522  0.04149  0.42127  1.0000
  Fe  Fe4       1.0  0.39496  0.39983  0.44686  1.0000
  C   C86       1.0  0.37002  0.21439  0.49057  1.0000
  C   C87       1.0  0.29698  0.23283  0.64232  1.0000
  S   S10       1.0  0.42457  0.06019  0.63415  1.0000
  H   H70       1.0  0.46197  0.29602  0.45037  1.0000
  H   H71       1.0  0.39505  0.41251  0.58910  1.0000
  S   S11       1.0  0.46586  0.46213  0.44261  1.0000
  H   H72       1.0  0.51693  0.07944  0.63337  1.0000
  C   C88       1.0  0.46821  0.50933  0.51621  1.0000
  S   S12       1.0  0.33290  0.05385  0.58709  1.0000
  C   C89       1.0  0.52133  0.34540  0.54322  1.0000
  H   H73       1.0  0.51070  0.43205  0.50199  1.0000
  H   H74       1.0  0.34446  0.15838  0.62606  1.0000
  Fe  Fe5       1.0  0.31166  0.35302  0.49801  1.0000
  H   H75       1.0  0.33191  0.46437  0.57427  1.0000
  H   H76       1.0  0.47181  0.37374  0.44438  1.0000
  S   S13       1.0  0.37985  0.35526  0.50170  1.0000
  C   C90       1.0  0.48095  0.32230  0.47496  1.0000
  C   C91       1.0  0.34396  0.06236  0.40502  1.0000
  H   H77       1.0  0.42006  0.48200  0.63561  1.0000
  C   C92       1.0  0.29705  0.04525  0.39530  1.0000
  C   C93       1.0  0.31445  0.11653  0.36447  1.0000
  S   S14       1.0  0.32829  0.40107  0.44588  1.0000
  C   C94       1.0  0.36778  0.17178  0.48791  1.0000
  C   C95       1.0  0.49335  0.50249  0.48542  1.0000
  H   H78       1.0  0.35070  0.14872  0.46092  1.0000
  C   C96       1.0  0.48615  0.36587  0.47170  1.0000
  H   H79       1.0  0.39202  0.27629  0.52861  1.0000
  S   S15       1.0  0.34846  0.23049  0.44772  1.0000
  H   H80       1.0  0.49320  0.27784  0.51358  1.0000
  H   H81       1.0  0.43105  0.48931  0.51440  1.0000
  C   C97       1.0  0.50841  0.39900  0.50434  1.0000
  Fe  Fe6       1.0  0.29930  0.33689  0.40348  1.0000
  C   C98       1.0  0.49141  0.49956  0.63854  1.0000
  C   C99       1.0  0.38770  0.15886  0.51991  1.0000
  C   C100      1.0  0.37610  0.10653  0.39455  1.0000
  C   C101      1.0  0.41065  0.18885  0.55447  1.0000
  C   C102      1.0  0.43089  0.43308  0.59993  1.0000
  S   S16       1.0  0.41660  0.05934  0.53072  1.0000
  C   C103      1.0  0.49868  0.31216  0.51063  1.0000
  H   H82       1.0  0.45107  0.38932  0.56843  1.0000
  S   S17       1.0  0.43922  0.17390  0.59219  1.0000
  H   H83       1.0  0.38609  0.12602  0.51719  1.0000
  Fe  Fe7       1.0  0.40909  0.09782  0.58563  1.0000
  H   H84       1.0  0.42884  0.25398  0.58502  1.0000
  Fe  Fe8       1.0  0.34742  0.29660  0.45375  1.0000
  H   H85       1.0  0.50087  0.38969  0.65847  1.0000
  H   H86       1.0  0.28038  0.32520  0.64153  1.0000
  C   C104      1.0  0.34654  0.32886  0.64631  1.0000
  C   C105      1.0  0.20721  0.15203  0.65729  1.0000
  H   H87       1.0  0.36536  0.36585  0.64857  1.0000
  S   S18       1.0  0.03344  0.48436  0.61283  1.0000
  H   H88       1.0  0.28766  0.26120  0.33435  1.0000
  C   C106      1.0  0.15623  0.15989  0.70540  1.0000
  C   C107      1.0  0.29570  0.15071  0.67283  1.0000
  C   C108      1.0  0.03301  0.13484  0.88514  1.0000
  S   S19       1.0  0.10241  0.09692  0.80503  1.0000
  C   C109      1.0  0.34158  0.11558  0.72126  1.0000
  Fe  Fe9       1.0  0.06548  0.04594  0.85439  1.0000
  S   S20       1.0  0.08688  0.07245  0.92271  1.0000
  Fe  Fe10      1.0  0.10400  0.03822  0.77053  1.0000
  S   S21       1.0  0.15804  0.04988  0.72351  1.0000
  C   C110      1.0  0.11794  0.12664  0.68157  1.0000
  H   H89       1.0  0.43207  0.22468  0.72099  1.0000
  C   C111      1.0  0.47971  0.25847  0.67311  1.0000
  H   H90       1.0  0.22993  0.19818  0.71242  1.0000
  C   C112      1.0  0.52730  0.21551  0.70350  1.0000
  H   H91       1.0  0.47460  0.18708  0.74835  1.0000
  C   C113      1.0  0.06817  0.04452  0.97047  1.0000
  H   H92       1.0  0.35780  0.10000  0.73915  1.0000
  C   C114      1.0  0.28204  0.13650  0.71328  1.0000
  C   C115      1.0  0.05769  0.26030  0.71045  1.0000
  S   S22       1.0  0.07937  0.31875  0.69949  1.0000
  C   C116      1.0  0.35595  0.13040  0.68136  1.0000
  C   C117      1.0  0.06922  0.20107  0.74263  1.0000
  C   C118      1.0  0.08538  0.24733  0.73388  1.0000
  H   H93       1.0  0.09083  0.19160  0.76066  1.0000
  H   H94       1.0  0.11957  0.27320  0.74517  1.0000
  C   C119      1.0  0.48751  0.20925  0.72237  1.0000
  H   H95       1.0  0.06965  0.14829  0.89126  1.0000
  H   H96       1.0  0.15139  0.17544  0.73352  1.0000
  H   H97       1.0  0.29289  0.10635  0.76779  1.0000
  H   H98       1.0  0.25260  0.13696  0.72588  1.0000
  C   C120      1.0  0.46359  0.23054  0.70706  1.0000
  C   C121      1.0  0.30497  0.11908  0.73735  1.0000
  Fe  Fe11      1.0  0.03246  0.07087  0.77387  1.0000
  H   H99       1.0  0.52052  0.35957  0.72029  1.0000
  H   H100      1.0  0.08359  0.11655  0.69135  1.0000
  C   C122      1.0  0.20066  0.17248  0.69345  1.0000
  H   H101      1.0  0.38395  0.12717  0.66859  1.0000
  C   C123      1.0  0.21125  0.02888  0.67489  1.0000
  C   C124      1.0  0.19471  0.02663  0.71500  1.0000
  H   H102      1.0  0.04124  0.17014  0.82822  1.0000
  C   C125      1.0  0.07714  0.89443  0.29511  1.0000
  C   C126      1.0  0.09520  0.86575  0.30607  1.0000
  H   H103      1.0  0.09325  0.91985  0.27215  1.0000
  H   H104      1.0  0.18843  0.98247  0.19499  1.0000
  C   C127      1.0  0.18060  0.82811  0.24266  1.0000
  C   C128      1.0  0.16899  0.84905  0.21113  1.0000
  H   H105      1.0  0.08497  0.72079  0.15438  1.0000
  H   H106      1.0  0.15570  0.77044  0.28186  1.0000
  C   C129      1.0  0.12361  0.82890  0.19458  1.0000
  Fe  Fe12      1.0  0.03334  0.97950  0.25479  1.0000
  H   H107      1.0  0.12507  0.86875  0.29121  1.0000
  C   C130      1.0  0.05693  0.71319  0.13193  1.0000
  C   C131      1.0  0.08948  0.78739  0.20931  1.0000
  H   H108      1.0  0.11527  0.84596  0.17050  1.0000
  C   C132      1.0  0.18963  0.96646  0.25966  1.0000
  H   H109      1.0  0.17800  0.93072  0.25243  1.0000
  H   H110      1.0  0.19506  0.88121  0.19980  1.0000
  C   C133      1.0  0.14708  0.78636  0.25684  1.0000
  H   H111      1.0  0.07681  0.67608  0.08906  1.0000
  H   H112      1.0  0.21546  0.84428  0.25628  1.0000
  C   C134      1.0  0.19730  0.98315  0.30142  1.0000
  C   C135      1.0  0.04056  0.00314  0.04836  1.0000
  H   H113      1.0  0.19177  0.95997  0.32618  1.0000
  C   C136      1.0  0.10189  0.76565  0.23978  1.0000
  C   C137      1.0  0.03813  0.89013  0.31413  1.0000
  H   H114      1.0  0.07662  0.73324  0.25127  1.0000
  C   C138      1.0  0.05236  0.68770  0.09494  1.0000
  Fe  Fe13      1.0  0.03523  0.00720  0.16314  1.0000
  C   C139      1.0  0.19564  0.99561  0.22728  1.0000
  S   S23       1.0  0.08823  0.00619  0.20797  1.0000
  H   H115      1.0  0.03935  0.81298  0.11213  1.0000
  Fe  Fe14      1.0  0.07649  0.75830  0.49866  1.0000
  S   S24       1.0  0.11105  0.73838  0.45017  1.0000
  S   S25       1.0  0.11931  0.80717  0.55157  1.0000
  Fe  Fe15      1.0  0.06760  0.75241  0.40428  1.0000
  C   C140      1.0  0.16288  0.85800  0.53282  1.0000
  C   C141      1.0  0.16669  0.86417  0.48980  1.0000
  H   H116      1.0  0.14120  0.83871  0.46773  1.0000
  H   H117      1.0  0.19178  0.88791  0.59443  1.0000
  H   H118      1.0  0.07080  0.92489  0.40164  1.0000
  H   H119      1.0  0.08751  0.85862  0.59610  1.0000
  H   H120      1.0  0.12128  0.68589  0.53309  1.0000
  C   C142      1.0  0.14860  0.68950  0.55481  1.0000
  C   C143      1.0  0.09049  0.89069  0.60714  1.0000
  C   C144      1.0  0.10619  0.94782  0.41231  1.0000
  Fe  Fe16      1.0  0.04993  0.66782  0.45421  1.0000
  C   C145      1.0  0.11338  0.92902  0.58323  1.0000
  H   H121      1.0  0.16020  0.65998  0.46959  1.0000
  C   C146      1.0  0.18258  0.68240  0.44678  1.0000
  C   C147      1.0  0.12120  0.94573  0.45295  1.0000
  H   H122      1.0  0.13842  0.62290  0.53834  1.0000
  C   C148      1.0  0.15891  0.65401  0.55747  1.0000
  C   C149      1.0  0.16663  0.97593  0.46694  1.0000
  H   H123      1.0  0.12428  0.98044  0.35393  1.0000
  H   H124      1.0  0.09770  0.92052  0.47348  1.0000
  S   S26       1.0  0.06009  0.60546  0.45480  1.0000
  C   C150      1.0  0.13681  0.97925  0.38526  1.0000
  H   H125      1.0  0.12831  0.92609  0.55455  1.0000
  C   C151      1.0  0.23668  0.74161  0.38691  1.0000
  S   S27       1.0  0.28854  0.98038  0.48445  1.0000
  S   S28       1.0  0.35236  0.96608  0.58190  1.0000
  C   C152      1.0  0.20420  0.90315  0.47512  1.0000
  C   C153      1.0  0.23851  0.93533  0.50324  1.0000
  C   C154      1.0  0.23326  0.93048  0.54630  1.0000
  C   C155      1.0  0.19518  0.89205  0.56107  1.0000
  H   H126      1.0  0.20693  0.90807  0.44200  1.0000
  H   H127      1.0  0.25882  0.95584  0.56839  1.0000
  C   C156      1.0  0.18885  0.58986  0.64012  1.0000
  H   H128      1.0  0.38795  0.62399  0.47972  1.0000
  H   H129      1.0  0.34847  0.91070  0.42876  1.0000
  C   C157      1.0  0.29536  0.57428  0.43704  1.0000
  C   C158      1.0  0.19435  0.65844  0.58525  1.0000
  C   C159      1.0  0.23516  0.83753  0.40195  1.0000
  C   C160      1.0  0.18202  0.57957  0.50653  1.0000
  H   H130      1.0  0.28836  0.66073  0.48878  1.0000
  C   C161      1.0  0.32428  0.81644  0.57042  1.0000
  H   H131      1.0  0.28927  0.70175  0.57307  1.0000
  C   C162      1.0  0.28532  0.63731  0.46334  1.0000
  H   H132      1.0  0.36551  0.67331  0.40564  1.0000
  H   H133      1.0  0.25865  0.56353  0.59446  1.0000
  C   C163      1.0  0.27636  0.57613  0.39783  1.0000
  H   H134      1.0  0.19929  0.61507  0.49874  1.0000
  C   C164      1.0  0.21720  0.69769  0.61232  1.0000
  C   C165      1.0  0.17277  0.72921  0.58064  1.0000
  C   C166      1.0  0.27979  0.85210  0.41916  1.0000
  H   H135      1.0  0.34087  0.58725  0.58956  1.0000
  H   H136      1.0  0.34546  0.80771  0.59010  1.0000
  C   C167      1.0  0.17869  0.56794  0.54855  1.0000
  H   H137      1.0  0.33959  0.79260  0.51350  1.0000
  C   C168      1.0  0.17148  0.66975  0.40430  1.0000
  P   P3        1.0  0.29297  0.81236  0.44516  1.0000
  C   C169      1.0  0.35518  0.79433  0.40228  1.0000
  H   H138      1.0  0.16452  0.75658  0.57866  1.0000
  C   C170      1.0  0.32109  0.80828  0.52701  1.0000
  C   C171      1.0  0.29895  0.60466  0.46989  1.0000
  C   C172      1.0  0.32956  0.61228  0.58617  1.0000
  C   C173      1.0  0.28297  0.59892  0.58892  1.0000
  H   H139      1.0  0.32582  0.76440  0.38774  1.0000
  P   P4        1.0  0.20745  0.61246  0.58953  1.0000
  H   H140      1.0  0.25556  0.86399  0.57754  1.0000
  H   H141      1.0  0.22693  0.73441  0.49270  1.0000
  C   C174      1.0  0.26790  0.63106  0.58525  1.0000
  C   C175      1.0  0.36141  0.65772  0.57901  1.0000
  C   C176      1.0  0.22054  0.72473  0.45959  1.0000
  C   C177      1.0  0.29997  0.67650  0.57727  1.0000
  C   C178      1.0  0.34658  0.68975  0.57434  1.0000
  C   C179      1.0  0.27078  0.84079  0.51974  1.0000
  H   H142      1.0  0.38611  0.88363  0.47345  1.0000
  H   H143      1.0  0.30399  0.84423  0.62201  1.0000
  C   C180      1.0  0.31431  0.89757  0.41462  1.0000
  C   C181      1.0  0.24793  0.75482  0.42966  1.0000
  C   C182      1.0  0.22616  0.86701  0.37859  1.0000
  C   C183      1.0  0.34966  0.82311  0.43149  1.0000
  C   C184      1.0  0.29509  0.82133  0.50129  1.0000
  C   C185      1.0  0.26683  0.63912  0.42421  1.0000
  C   C186      1.0  0.27369  0.84835  0.56324  1.0000
  H   H144      1.0  0.20692  0.80363  0.40659  1.0000
  H   H145      1.0  0.24995  0.85058  0.50075  1.0000
  H   H146      1.0  0.31228  0.60299  0.50055  1.0000
  H   H147      1.0  0.14083  0.63763  0.39477  1.0000
  C   C187      1.0  0.30092  0.83690  0.58847  1.0000
  C   C188      1.0  0.40180  0.69471  0.41419  1.0000
  H   H148      1.0  0.37134  0.72499  0.56888  1.0000
  H   H149      1.0  0.39758  0.66807  0.57723  1.0000
  C   C189      1.0  0.38915  0.86119  0.45024  1.0000
  C   C190      1.0  0.11764  0.97091  0.59675  1.0000
  H   H150      1.0  0.17846  0.97438  0.49842  1.0000
  H   H151      1.0  0.25578  0.66403  0.41927  1.0000
  H   H152      1.0  0.39058  0.72633  0.46876  1.0000
  C   C191      1.0  0.39926  0.80442  0.39102  1.0000
  C   C192      1.0  0.20659  0.73301  0.60981  1.0000
  C   C193      1.0  0.41597  0.72456  0.44972  1.0000
  C   C194      1.0  0.40405  0.60618  0.46580  1.0000
  C   C195      1.0  0.26205  0.60833  0.39156  1.0000
  C   C196      1.0  0.19870  0.69921  0.37434  1.0000
  H   H153      1.0  0.16397  0.55463  0.44203  1.0000
  C   C197      1.0  0.37755  0.56223  0.44645  1.0000
  C   C198      1.0  0.16236  0.54544  0.47431  1.0000
  C   C199      1.0  0.26097  0.91181  0.37357  1.0000
  C   C200      1.0  0.30487  0.92719  0.39193  1.0000
  S   S29       1.0  0.09635  0.79571  0.34809  1.0000
  C   C201      1.0  0.43449  0.69187  0.39001  1.0000
  H   H154      1.0  0.27212  0.55266  0.37202  1.0000
  Fe  Fe17      1.0  0.42766  0.01824  0.57897  1.0000
  H   H155      1.0  0.24700  0.60922  0.36135  1.0000
  H   H156      1.0  0.33147  0.96237  0.38924  1.0000
  C   C202      1.0  0.09878  0.97437  0.63417  1.0000
  H   H157      1.0  0.42355  0.66798  0.36301  1.0000
  C   C203      1.0  0.14215  0.57051  0.64825  1.0000
  H   H158      1.0  0.11779  0.56951  0.62456  1.0000
  H   H159      1.0  0.13621  0.00082  0.57870  1.0000
  C   C204      1.0  0.43309  0.87129  0.43876  1.0000
  H   H160      1.0  0.25353  0.93498  0.35655  1.0000
  H   H161      1.0  0.22410  0.76320  0.63079  1.0000
  H   H162      1.0  0.24286  0.70077  0.63566  1.0000
  C   C205      1.0  0.05466  0.73805  0.62465  1.0000
  P   P5        1.0  0.31529  0.53370  0.44537  1.0000
  C   C206      1.0  0.08983  0.73857  0.64974  1.0000
  H   H163      1.0  0.25603  0.76502  0.36327  1.0000
  C   C207      1.0  0.06249  0.80432  0.66488  1.0000
  C   C208      1.0  0.43813  0.84315  0.40888  1.0000
  C   C209      1.0  0.40010  0.53959  0.43032  1.0000
  C   C210      1.0  0.04889  0.57061  0.49849  1.0000
  Fe  Fe18      1.0  0.34797  0.01251  0.63178  1.0000
  Fe  Fe19      1.0  0.34144  0.01080  0.53762  1.0000
  C   C211      1.0  0.07451  0.83285  0.33612  1.0000
  C   C212      1.0  0.15596  0.52150  0.55780  1.0000
  H   H164      1.0  0.40334  0.78264  0.36790  1.0000
  C   C213      1.0  0.04133  0.58399  0.53799  1.0000
  C   C214      1.0  0.04150  0.77116  0.63170  1.0000
  H   H165      1.0  0.19165  0.85559  0.36563  1.0000
  H   H166      1.0  0.33894  0.53024  0.35842  1.0000
  C   C215      1.0  0.03473  0.82780  0.35396  1.0000
  H   H167      1.0  0.10273  0.00693  0.64531  1.0000
  C   C216      1.0  0.07219  0.89408  0.64508  1.0000
  H   H168      1.0  0.10033  0.71324  0.64373  1.0000
  H   H169      1.0  0.18923  0.68984  0.34137  1.0000
  C   C217      1.0  0.03629  0.55711  0.57259  1.0000
  H   H170      1.0  0.53171  0.80501  0.36642  1.0000
  C   C218      1.0  0.07632  0.93623  0.65837  1.0000
  H   H171      1.0  0.03835  0.71272  0.59896  1.0000
  S   S30       1.0  0.03778  0.77735  0.45315  1.0000
  C   C219      1.0  0.44816  0.56132  0.43207  1.0000
  C   C220      1.0  0.05002  0.52946  0.49389  1.0000
  H   H172      1.0  0.04022  0.61545  0.54214  1.0000
  C   C221      1.0  0.19739  0.00734  0.44000  1.0000
  H   H173      1.0  0.47319  0.77418  0.48890  1.0000
  C   C222      1.0  0.47417  0.60499  0.45128  1.0000
  H   H174      1.0  0.50273  0.53088  0.65752  1.0000
  C   C223      1.0  0.49126  0.54276  0.54902  1.0000
  H   H175      1.0  0.52412  0.85095  0.45523  1.0000
  H   H176      1.0  0.47155  0.54837  0.57229  1.0000
  C   C224      1.0  0.52583  0.01002  0.45453  1.0000
  H   H177      1.0  0.51199  0.01046  0.42366  1.0000
  C   C225      1.0  0.50111  0.00865  0.48997  1.0000
  H   H178      1.0  0.51137  0.62095  0.45370  1.0000
  H   H179      1.0  0.46849  0.00794  0.48620  1.0000
  H   H180      1.0  0.50641  0.71643  0.38215  1.0000
  S   S31       1.0  0.48723  0.00303  0.57553  1.0000
  H   H181      1.0  0.47217  0.85173  0.39924  1.0000
  H   H182      1.0  0.46326  0.90153  0.45254  1.0000
  C   C226      1.0  0.45211  0.62736  0.46822  1.0000
  H   H183      1.0  0.46529  0.54367  0.41949  1.0000
  C   C227      1.0  0.48142  0.71944  0.40087  1.0000
  C   C228      1.0  0.46292  0.75206  0.46077  1.0000
  H   H184      1.0  0.47229  0.66093  0.48363  1.0000
  C   C229      1.0  0.51826  0.00737  0.53005  1.0000
  C   C230      1.0  0.49603  0.75049  0.43577  1.0000
  C   C231      1.0  0.18297  0.00880  0.39866  1.0000
  H   H185      1.0  0.27288  0.01055  0.40282  1.0000
  H   H186      1.0  0.25633  0.01752  0.63582  1.0000
  S   S32       1.0  0.07219  0.98925  0.82168  1.0000
  C   C232      1.0  0.09872  0.89589  0.74565  1.0000
  C   C233      1.0  0.07337  0.88877  0.81650  1.0000
  H   H187      1.0  0.08058  0.89944  0.84943  1.0000
  P   P6        1.0  0.04258  0.84468  0.67609  1.0000
  H   H188      1.0  0.06256  0.93982  0.68762  1.0000
  C   C234      1.0  0.04115  0.99696  0.97174  1.0000
  C   C235      1.0  0.10829  0.90852  0.78834  1.0000
  H   H189      1.0  0.08975  0.53515  0.69189  1.0000
  C   C236      1.0  0.09818  0.80485  0.68971  1.0000
  C   C237      1.0  0.11181  0.77216  0.68206  1.0000
  H   H190      1.0  0.11564  0.83033  0.71498  1.0000
  C   C238      1.0  0.12627  0.55138  0.68659  1.0000
  C   C239      1.0  0.05411  0.86277  0.73090  1.0000
  H   H191      1.0  0.22796  0.57378  0.73439  1.0000
  H   H192      1.0  0.19936  0.00937  0.77840  1.0000
  C   C240      1.0  0.15713  0.55226  0.71750  1.0000
  H   H193      1.0  0.12618  0.91190  0.72420  1.0000
  H   H194      1.0  0.13947  0.77295  0.70123  1.0000
  C   C241      1.0  0.26238  0.00128  0.69924  1.0000
  H   H195      1.0  0.14265  0.93416  0.79953  1.0000
  H   H196      1.0  0.25824  0.98609  0.76446  1.0000
  S   S33       1.0  0.30772  0.98911  0.69079  1.0000
  C   C242      1.0  0.21105  0.01022  0.74715  1.0000
  C   C243      1.0  0.20405  0.57288  0.71024  1.0000
  C   C244      1.0  0.24473  0.99750  0.73923  1.0000
  C   C245      1.0  0.22001  0.59190  0.67177  1.0000
  S   S34       1.0  0.03608  0.01529  0.73642  1.0000
  H   H197      1.0  0.14456  0.53682  0.74699  1.0000
  H   H198      1.0  0.25648  0.60795  0.66713  1.0000
  C   C246      1.0  0.24446  0.01590  0.66693  1.0000
  H   H199      1.0  0.99364  0.16632  0.29059  1.0000
  Fe  Fe20      1.0  0.99943  0.04577  0.23136  1.0000
  C   C247      1.0  0.96462  0.08841  0.00904  1.0000
  C   C248      1.0  0.83071  0.03182  0.30574  1.0000
  H   H200      1.0  0.88721  0.09472  0.28593  1.0000
  S   S35       1.0  0.95119  0.07242  0.24886  1.0000
  C   C249      1.0  0.87307  0.05812  0.28724  1.0000
  C   C250      1.0  0.89760  0.03758  0.27118  1.0000
  H   H201      1.0  0.00345  0.12487  0.06592  1.0000
  C   C251      1.0  0.02404  0.19907  0.28687  1.0000
  H   H202      1.0  0.81242  0.04823  0.31819  1.0000
  C   C252      1.0  0.98166  0.09166  0.05022  1.0000
  C   C253      1.0  0.97099  0.05200  0.07112  1.0000
  H   H203      1.0  0.98476  0.05437  0.10278  1.0000
  H   H204      1.0  0.02443  0.18435  0.22108  1.0000
  H   H205      1.0  0.77794  0.24076  0.46852  1.0000
  S   S36       1.0  0.71698  0.05204  0.46863  1.0000
  H   H206      1.0  0.87166  0.11458  0.48533  1.0000
  Fe  Fe21      1.0  0.77085  0.07786  0.42077  1.0000
  S   S37       1.0  0.83302  0.14751  0.41680  1.0000
  S   S38       1.0  0.98970  0.35810  0.65218  1.0000
  Fe  Fe22      1.0  0.96043  0.31356  0.59335  1.0000
  S   S39       1.0  0.88471  0.26362  0.58760  1.0000
  H   H207      1.0  0.63199  0.35606  0.52837  1.0000
  C   C254      1.0  0.63251  0.19230  0.65315  1.0000
  C   C255      1.0  0.76716  0.20084  0.41206  1.0000
  C   C256      1.0  0.82854  0.09932  0.57920  1.0000
  C   C257      1.0  0.83682  0.04845  0.62681  1.0000
  C   C258      1.0  0.81025  0.05705  0.59749  1.0000
  H   H208      1.0  0.88805  0.16617  0.57554  1.0000
  H   H209      1.0  0.67245  0.09554  0.51448  1.0000
  H   H210      1.0  0.77539  0.03110  0.58853  1.0000
  H   H211      1.0  0.71051  0.34575  0.53461  1.0000
  H   H212      1.0  0.01478  0.17716  0.52282  1.0000
  H   H213      1.0  0.94816  0.18397  0.49822  1.0000
  C   C259      1.0  0.87061  0.23253  0.53962  1.0000
  C   C260      1.0  0.82649  0.19514  0.53212  1.0000
  C   C261      1.0  0.81470  0.16928  0.49424  1.0000
  C   C262      1.0  0.84703  0.18064  0.46372  1.0000
  C   C263      1.0  0.89128  0.21810  0.47117  1.0000
  C   C264      1.0  0.90321  0.24398  0.50922  1.0000
  H   H214      1.0  0.80168  0.18580  0.55589  1.0000
  H   H215      1.0  0.78036  0.14113  0.48847  1.0000
  H   H216      1.0  0.91667  0.22641  0.44802  1.0000
  H   H217      1.0  0.93761  0.27258  0.51502  1.0000
  H   H218      1.0  0.63810  0.20170  0.44808  1.0000
  H   H219      1.0  0.57973  0.29610  0.47535  1.0000
  H   H220      1.0  0.86197  0.03822  0.49758  1.0000
  C   C265      1.0  0.97676  0.10333  0.52490  1.0000
  C   C266      1.0  0.99753  0.25107  0.38216  1.0000
  C   C267      1.0  0.99697  0.31681  0.41527  1.0000
  H   H221      1.0  0.76042  0.35775  0.65590  1.0000
  C   C268      1.0  0.96640  0.07824  0.35983  1.0000
  C   C269      1.0  0.59004  0.26358  0.58941  1.0000
  H   H222      1.0  0.93668  0.32275  0.40162  1.0000
  H   H223      1.0  0.79309  0.38235  0.55777  1.0000
  C   C270      1.0  0.00277  0.05191  0.57956  1.0000
  C   C271      1.0  0.70199  0.27796  0.52713  1.0000
  C   C272      1.0  0.79518  0.31941  0.55321  1.0000
  C   C273      1.0  0.54906  0.11110  0.63893  1.0000
  H   H224      1.0  0.61222  0.13223  0.56372  1.0000
  C   C274      1.0  0.61233  0.32079  0.53695  1.0000
  C   C275      1.0  0.93313  0.26422  0.36842  1.0000
  C   C276      1.0  0.60567  0.40607  0.63113  1.0000
  H   H225      1.0  0.96651  0.02814  0.43161  1.0000
  C   C277      1.0  0.58919  0.10946  0.64837  1.0000
  H   H226      1.0  0.55976  0.51078  0.63383  1.0000
  P   P7        1.0  0.69243  0.19050  0.51499  1.0000
  S   S40       1.0  0.72050  0.04395  0.36588  1.0000
  H   H227      1.0  0.73426  0.08975  0.63168  1.0000
  C   C278      1.0  0.55595  0.24200  0.51849  1.0000
  H   H228      1.0  0.63752  0.33624  0.60088  1.0000
  C   C279      1.0  0.56438  0.40751  0.62827  1.0000
  H   H229      1.0  0.93644  0.15089  0.62490  1.0000
  C   C280      1.0  0.95498  0.23842  0.36145  1.0000
  C   C281      1.0  0.60441  0.48137  0.57025  1.0000
  C   C282      1.0  0.68092  0.13971  0.44049  1.0000
  C   C283      1.0  0.73761  0.16105  0.38800  1.0000
  C   C284      1.0  0.56721  0.16034  0.46204  1.0000
  C   C285      1.0  0.59210  0.19427  0.64390  1.0000
  S   S41       1.0  0.01395  0.29171  0.59153  1.0000
  C   C286      1.0  0.75374  0.21023  0.45039  1.0000
  C   C287      1.0  0.90109  0.12465  0.61765  1.0000
  P   P8        1.0  0.59304  0.24859  0.64285  1.0000
  C   C288      1.0  0.00050  0.06090  0.62220  1.0000
  H   H230      1.0  0.01328  0.34701  0.43642  1.0000
  C   C289      1.0  0.55957  0.23022  0.55940  1.0000
  C   C290      1.0  0.72701  0.32509  0.53728  1.0000
  C   C291      1.0  0.70285  0.15795  0.55365  1.0000
  H   H231      1.0  0.83142  0.33529  0.56306  1.0000
  C   C292      1.0  0.72432  0.17792  0.59307  1.0000
  C   C293      1.0  0.73592  0.15346  0.62093  1.0000
  C   C294      1.0  0.72457  0.10836  0.61041  1.0000
  C   C295      1.0  0.70114  0.08747  0.57222  1.0000
  C   C296      1.0  0.69023  0.11213  0.54403  1.0000
  C   C297      1.0  0.63147  0.17009  0.50737  1.0000
  H   H232      1.0  0.55439  0.16703  0.43314  1.0000
  H   H233      1.0  0.66603  0.26279  0.51717  1.0000
  H   H234      1.0  0.59340  0.46828  0.50280  1.0000
  S   S42       1.0  0.78699  0.02131  0.42780  1.0000
  C   C298      1.0  0.61459  0.17999  0.47069  1.0000
  H   H235      1.0  0.78825  0.25294  0.54467  1.0000
  C   C299      1.0  0.98584  0.15702  0.37592  1.0000
  H   H236      1.0  0.73325  0.21263  0.60219  1.0000
  C   C300      1.0  0.55287  0.12220  0.52727  1.0000
  H   H237      1.0  0.89780  0.02689  0.37381  1.0000
  H   H238      1.0  0.62982  0.41910  0.60652  1.0000
  H   H239      1.0  0.93353  0.16484  0.40796  1.0000
  C   C301      1.0  0.60026  0.14122  0.53574  1.0000
  C   C302      1.0  0.71038  0.17975  0.46501  1.0000
  H   H240      1.0  0.80130  0.22354  0.40169  1.0000
  C   C303      1.0  0.99785  0.12509  0.36010  1.0000
  H   H241      1.0  0.64743  0.11508  0.45087  1.0000
  H   H242      1.0  0.74988  0.03003  0.65986  1.0000
  C   C304      1.0  0.61614  0.49011  0.52837  1.0000
  C   C305      1.0  0.94335  0.14131  0.39423  1.0000
  C   C306      1.0  0.95397  0.30325  0.39556  1.0000
  C   C307      1.0  0.91198  0.09451  0.39369  1.0000
  H   H243      1.0  0.58778  0.07660  0.64981  1.0000
  C   C308      1.0  0.92322  0.06300  0.37618  1.0000
  H   H244      1.0  0.87825  0.08295  0.40550  1.0000
  C   C309      1.0  0.58290  0.28706  0.50705  1.0000
  H   H245      1.0  0.67148  0.09958  0.38362  1.0000
  H   H246      1.0  0.01282  0.09534  0.63501  1.0000
  C   C310      1.0  0.72365  0.25125  0.52948  1.0000
  H   H247      1.0  0.97447  0.05385  0.34488  1.0000
  H   H248      1.0  0.80768  0.10553  0.55664  1.0000
  C   C311      1.0  0.88277  0.08243  0.63627  1.0000
  C   C312      1.0  0.61556  0.30926  0.57806  1.0000
  C   C313      1.0  0.77046  0.27250  0.54272  1.0000
  H   H249      1.0  0.74875  0.15322  0.35894  1.0000
  S   S43       1.0  0.99553  0.37036  0.54978  1.0000
  H   H250      1.0  0.68881  0.29822  0.61907  1.0000
  H   H251      1.0  0.69225  0.05244  0.56394  1.0000
  H   H252      1.0  0.75455  0.16985  0.65038  1.0000
  C   C314      1.0  0.93327  0.06419  0.51735  1.0000
  C   C315      1.0  0.89557  0.06834  0.50312  1.0000
  C   C316      1.0  0.90097  0.11147  0.49623  1.0000
  C   C317      1.0  0.77355  0.34579  0.55032  1.0000
  C   C318      1.0  0.69438  0.13068  0.40209  1.0000
  C   C319      1.0  0.94407  0.15050  0.50340  1.0000
  C   C320      1.0  0.98184  0.14648  0.51746  1.0000
  C   C321      1.0  0.87382  0.13329  0.58960  1.0000
  H   H253      1.0  0.53752  0.19528  0.56762  1.0000
  H   H254      1.0  0.92812  0.03044  0.52262  1.0000
  H   H255      1.0  0.62777  0.50523  0.63483  1.0000
  P   P9        1.0  0.55141  0.43149  0.58356  1.0000
  H   H256      1.0  0.89957  0.25331  0.35345  1.0000
  C   C322      1.0  0.55032  0.15318  0.63660  1.0000
  H   H257      1.0  0.02168  0.16426  0.60430  1.0000
  C   C323      1.0  0.63085  0.15004  0.65572  1.0000
  C   C324      1.0  0.01897  0.29120  0.40816  1.0000
  Fe  Fe23      1.0  0.02880  0.41438  0.60806  1.0000
  P   P10       1.0  0.02535  0.09806  0.54411  1.0000
  C   C325      1.0  0.68740  0.31038  0.65043  1.0000
  P   P11       1.0  0.02536  0.21741  0.37305  1.0000
  H   H258      1.0  0.93828  0.20814  0.34046  1.0000
  C   C326      1.0  0.63554  0.51108  0.60226  1.0000
  C   C327      1.0  0.98189  0.02509  0.64925  1.0000
  H   H259      1.0  0.66182  0.14867  0.66368  1.0000
  H   H260      1.0  0.90463  0.07656  0.65792  1.0000
  H   H261      1.0  0.66531  0.22298  0.65918  1.0000
  C   C328      1.0  0.53635  0.13135  0.49029  1.0000
  C   C329      1.0  0.53329  0.38973  0.66024  1.0000
  H   H262      1.0  0.03093  0.22941  0.46418  1.0000
  H   H263      1.0  0.03057  0.13645  0.34599  1.0000
  H   H264      1.0  0.53372  0.33627  0.57085  1.0000
  C   C330      1.0  0.61659  0.38894  0.66636  1.0000
  H   H265      1.0  0.89571  0.11809  0.93308  1.0000
  H   H266      1.0  0.82695  0.02031  0.80433  1.0000
  C   C331      1.0  0.64489  0.30729  0.71142  1.0000
  H   H267      1.0  0.97286  0.11945  0.99340  1.0000
  H   H268      1.0  0.68517  0.35256  0.76403  1.0000
  H   H269      1.0  0.59461  0.35965  0.72609  1.0000
  S   S44       1.0  0.99489  0.02403  0.82534  1.0000
  C   C332      1.0  0.78412  0.05247  0.95715  1.0000
  C   C333      1.0  0.95424  0.08501  0.90380  1.0000
  C   C334      1.0  0.86409  0.08755  0.93966  1.0000
  S   S45       1.0  0.00180  0.10870  0.73865  1.0000
  C   C335      1.0  0.93842  0.09722  0.86790  1.0000
  C   C336      1.0  0.54430  0.37258  0.69538  1.0000
  C   C337      1.0  0.00177  0.10378  0.91201  1.0000
  C   C338      1.0  0.96976  0.12816  0.84096  1.0000
  C   C339      1.0  0.99717  0.18050  0.70548  1.0000
  H   H270      1.0  0.96251  0.15490  0.69543  1.0000
  C   C340      1.0  0.72807  0.34394  0.67126  1.0000
  H   H271      1.0  0.64908  0.38912  0.66895  1.0000
  H   H272      1.0  0.61327  0.29317  0.72776  1.0000
  H   H273      1.0  0.90194  0.08199  0.86008  1.0000
  C   C341      1.0  0.64536  0.29215  0.67015  1.0000
  H   H274      1.0  0.99166  0.23595  0.67836  1.0000
  H   H275      1.0  0.75382  0.05528  0.96308  1.0000
  C   C342      1.0  0.01704  0.14699  0.84961  1.0000
  C   C343      1.0  0.58602  0.37245  0.69857  1.0000
  C   C344      1.0  0.68565  0.34094  0.73217  1.0000
  C   C345      1.0  0.01352  0.22649  0.69608  1.0000
  H   H276      1.0  0.75880  0.38525  0.72827  1.0000
  C   C346      1.0  0.82479  0.09100  0.94681  1.0000
  H   H277      1.0  0.90100  0.01961  0.81163  1.0000
  C   C347      1.0  0.72718  0.35935  0.71207  1.0000
  H   H278      1.0  0.82612  0.12377  0.94496  1.0000
  H   H279      1.0  0.95764  0.13666  0.81261  1.0000
  H   H280      1.0  0.01490  0.09346  0.93842  1.0000
  C   C348      1.0  0.02489  0.16744  0.72849  1.0000
  C   C349      1.0  0.86260  0.04518  0.94183  1.0000
  P   P12       1.0  0.91393  0.04109  0.93577  1.0000
  H   H281      1.0  0.54500  0.19821  0.71546  1.0000
  H   H282      1.0  0.98010  0.03260  0.68197  1.0000
  C   C350      1.0  0.93750  0.04536  0.98824  1.0000
  C   C351      1.0  0.54330  0.24292  0.66887  1.0000
  C   C352      1.0  0.89558  0.75415  0.32040  1.0000
  S   S46       1.0  0.97848  0.97419  0.20855  1.0000
  C   C353      1.0  0.01957  0.86265  0.12919  1.0000
  H   H283      1.0  0.00199  0.81518  0.24005  1.0000
  C   C354      1.0  0.00527  0.88128  0.16103  1.0000
  C   C355      1.0  0.90829  0.82068  0.28324  1.0000
  H   H284      1.0  0.91673  0.83958  0.25505  1.0000
  H   H285      1.0  0.94557  0.67074  0.17856  1.0000
  C   C356      1.0  0.99899  0.86387  0.20072  1.0000
  C   C357      1.0  0.87911  0.99023  0.27352  1.0000
  C   C358      1.0  0.83606  0.96369  0.29097  1.0000
  H   H286      1.0  0.89762  0.97398  0.26126  1.0000
  C   C359      1.0  0.93143  0.66662  0.28322  1.0000
  S   S47       1.0  0.02162  0.97537  0.09618  1.0000
  C   C360      1.0  0.92641  0.00567  0.00970  1.0000
  H   H287      1.0  0.66309  0.87571  0.31201  1.0000
  C   C361      1.0  0.99086  0.72439  0.22437  1.0000
  C   C362      1.0  0.89847  0.83867  0.31893  1.0000
  C   C363      1.0  0.96913  0.70878  0.29643  1.0000
  H   H288      1.0  0.00622  0.93970  0.01100  1.0000
  H   H289      1.0  0.01289  0.65753  0.03684  1.0000
  C   C364      1.0  0.98908  0.71742  0.11010  1.0000
  H   H290      1.0  0.57857  0.84421  0.30708  1.0000
  C   C365      1.0  0.92299  0.65338  0.24060  1.0000
  C   C366      1.0  0.02725  0.97648  0.01043  1.0000
  C   C367      1.0  0.94325  0.00908  0.05093  1.0000
  C   C368      1.0  0.99838  0.73752  0.26711  1.0000
  H   H291      1.0  0.74200  0.84367  0.32976  1.0000
  H   H292      1.0  0.91507  0.76482  0.25643  1.0000
  C   C369      1.0  0.01632  0.67719  0.06552  1.0000
  C   C370      1.0  0.90724  0.77861  0.28403  1.0000
  S   S48       1.0  0.75716  0.95016  0.32819  1.0000
  H   H293      1.0  0.89930  0.87124  0.31763  1.0000
  H   H294      1.0  0.95667  0.68381  0.05036  1.0000
  H   H295      1.0  0.89392  0.72121  0.32112  1.0000
  H   H296      1.0  0.82161  0.92704  0.29185  1.0000
  H   H297      1.0  0.90887  0.64430  0.30612  1.0000
  C   C371      1.0  0.01953  0.80737  0.17666  1.0000
  C   C372      1.0  0.95260  0.68205  0.21123  1.0000
  S   S49       1.0  0.01499  0.92650  0.30410  1.0000
  C   C373      1.0  0.98466  0.69200  0.07314  1.0000
  H   H298      1.0  0.96411  0.72846  0.11568  1.0000
  C   C374      1.0  0.81170  0.98437  0.30723  1.0000
  H   H299      1.0  0.89368  0.62066  0.23039  1.0000
  H   H300      1.0  0.99963  0.90971  0.15516  1.0000
  H   H301      1.0  0.98931  0.87953  0.22548  1.0000
  C   C375      1.0  0.02547  0.72849  0.13964  1.0000
  H   H302      1.0  0.02537  0.87725  0.09869  1.0000
  C   C376      1.0  0.00611  0.82714  0.20867  1.0000
  H   H303      1.0  0.93572  0.97845  0.06710  1.0000
  H   H304      1.0  0.02746  0.76980  0.27779  1.0000
  H   H305      1.0  0.97592  0.71927  0.32948  1.0000
  P   P13       1.0  0.03100  0.76129  0.18734  1.0000
  C   C377      1.0  0.02702  0.82602  0.13697  1.0000
  C   C378      1.0  0.83443  0.96455  0.57499  1.0000
  H   H306      1.0  0.72107  0.89044  0.58167  1.0000
  H   H307      1.0  0.88599  0.98218  0.45193  1.0000
  S   S50       1.0  0.73086  0.96109  0.52909  1.0000
  S   S51       1.0  0.67517  0.95084  0.41816  1.0000
  Fe  Fe24      1.0  0.98247  0.70406  0.45423  1.0000
  C   C379      1.0  0.84298  0.93505  0.54979  1.0000
  S   S52       1.0  0.90974  0.69075  0.44541  1.0000
  Fe  Fe25      1.0  0.71411  0.73698  0.55061  1.0000
  S   S53       1.0  0.66461  0.73434  0.59752  1.0000
  S   S54       1.0  0.72781  0.77481  0.49169  1.0000
  Fe  Fe26      1.0  0.74339  0.68101  0.60165  1.0000
  H   H308      1.0  0.98459  0.99802  0.53135  1.0000
  S   S55       1.0  0.79395  0.65536  0.60665  1.0000
  Fe  Fe27      1.0  0.64399  0.65982  0.59924  1.0000
  S   S56       1.0  0.56725  0.60745  0.59622  1.0000
  Fe  Fe28      1.0  0.72127  0.74843  0.64566  1.0000
  S   S57       1.0  0.69032  0.66200  0.54904  1.0000
  S   S58       1.0  0.77167  0.75639  0.59804  1.0000
  H   H309      1.0  0.70085  0.86872  0.37699  1.0000
  C   C380      1.0  0.56465  0.56135  0.52160  1.0000
  H   H310      1.0  0.98638  0.85220  0.35762  1.0000
  H   H311      1.0  0.60180  0.58035  0.52385  1.0000
  H   H312      1.0  0.89923  0.83839  0.62083  1.0000
  C   C381      1.0  0.82677  0.66631  0.56218  1.0000
  C   C382      1.0  0.86787  0.66465  0.56418  1.0000
  C   C383      1.0  0.89402  0.67278  0.52864  1.0000
  C   C384      1.0  0.87854  0.68157  0.49077  1.0000
  C   C385      1.0  0.83739  0.68313  0.48881  1.0000
  C   C386      1.0  0.81190  0.67617  0.52457  1.0000
  H   H313      1.0  0.87953  0.65710  0.59321  1.0000
  H   H314      1.0  0.92565  0.67143  0.53036  1.0000
  H   H315      1.0  0.82558  0.69045  0.45971  1.0000
  H   H316      1.0  0.78054  0.67799  0.52279  1.0000
  Fe  Fe29      1.0  0.72799  0.99179  0.46926  1.0000
  H   H317      1.0  0.87539  0.75170  0.38355  1.0000
  C   C387      1.0  0.73256  0.91068  0.51829  1.0000
  C   C388      1.0  0.74009  0.89931  0.47796  1.0000
  C   C389      1.0  0.74019  0.85806  0.46997  1.0000
  C   C390      1.0  0.73229  0.82821  0.50219  1.0000
  C   C391      1.0  0.72660  0.84059  0.54265  1.0000
  C   C392      1.0  0.72627  0.88149  0.55054  1.0000
  H   H318      1.0  0.74537  0.92193  0.45286  1.0000
  H   H319      1.0  0.74522  0.84880  0.43872  1.0000
  H   H320      1.0  0.72271  0.81892  0.56807  1.0000
  C   C393      1.0  0.66368  0.85297  0.37407  1.0000
  C   C394      1.0  0.63737  0.83043  0.40760  1.0000
  H   H321      1.0  0.95076  0.95234  0.65569  1.0000
  C   C395      1.0  0.67735  0.54866  0.59256  1.0000
  H   H322      1.0  0.65442  0.82834  0.43605  1.0000
  H   H323      1.0  0.54145  0.74297  0.53013  1.0000
  H   H324      1.0  0.62769  0.68560  0.44765  1.0000
  C   C396      1.0  0.82638  0.91855  0.63418  1.0000
  C   C397      1.0  0.98492  0.00623  0.56438  1.0000
  S   S59       1.0  0.59688  0.00989  0.41293  1.0000
  C   C398      1.0  0.64238  0.85732  0.33763  1.0000
  H   H325      1.0  0.61781  0.00985  0.50249  1.0000
  C   C399      1.0  0.54876  0.85858  0.48112  1.0000
  C   C400      1.0  0.56974  0.83167  0.48672  1.0000
  C   C401      1.0  0.96653  0.97048  0.59175  1.0000
  C   C402      1.0  0.57040  0.69848  0.52820  1.0000
  H   H326      1.0  0.56047  0.68657  0.55935  1.0000
  C   C403      1.0  0.67855  0.89837  0.66621  1.0000
  C   C404      1.0  0.71764  0.78146  0.36285  1.0000
  H   H327      1.0  0.70419  0.72314  0.39859  1.0000
  P   P14       1.0  0.55682  0.78503  0.44952  1.0000
  H   H328      1.0  0.01697  0.80127  0.37550  1.0000
  C   C405      1.0  0.58947  0.81164  0.40485  1.0000
  C   C406      1.0  0.59400  0.90847  0.54059  1.0000
  C   C407      1.0  0.59668  0.72873  0.44794  1.0000
  C   C408      1.0  0.73014  0.99317  0.66031  1.0000
  H   H329      1.0  0.84565  0.78732  0.54614  1.0000
  H   H330      1.0  0.91522  0.77904  0.55232  1.0000
  H   H331      1.0  0.03130  0.56821  0.60311  1.0000
  C   C409      1.0  0.73025  0.75563  0.38789  1.0000
  C   C410      1.0  0.55988  0.73041  0.51160  1.0000
  C   C411      1.0  0.56076  0.00829  0.53424  1.0000
  H   H332      1.0  0.60395  0.93858  0.56092  1.0000
  H   H333      1.0  0.01510  0.77088  0.61101  1.0000
  C   C412      1.0  0.87918  0.91822  0.42890  1.0000
  C   C413      1.0  0.86766  0.79503  0.52015  1.0000
  C   C414      1.0  0.90717  0.79085  0.52383  1.0000
  C   C415      1.0  0.77654  0.77211  0.40012  1.0000
  C   C416      1.0  0.96515  0.97993  0.63429  1.0000
  H   H334      1.0  0.82526  0.81114  0.48038  1.0000
  H   H335      1.0  0.78568  0.75145  0.41925  1.0000
  H   H336      1.0  0.85087  0.75514  0.63069  1.0000
  C   C417      1.0  0.85582  0.80775  0.48254  1.0000
  C   C418      1.0  0.81038  0.81505  0.38801  1.0000
  C   C419      1.0  0.60455  0.84481  0.51844  1.0000
  C   C420      1.0  0.56828  0.81709  0.36857  1.0000
  C   C421      1.0  0.53961  0.56830  0.55244  1.0000
  C   C422      1.0  0.79757  0.84037  0.36210  1.0000
  C   C423      1.0  0.93548  0.80030  0.49013  1.0000
  C   C424      1.0  0.88317  0.81555  0.44804  1.0000
  H   H337      1.0  0.96566  0.79626  0.49275  1.0000
  H   H338      1.0  0.62374  0.82672  0.52170  1.0000
  C   C425      1.0  0.61619  0.88278  0.54553  1.0000
  P   P15       1.0  0.81327  0.99341  0.65016  1.0000
  H   H339      1.0  0.56131  0.52429  0.46414  1.0000
  C   C426      1.0  0.92390  0.81315  0.45253  1.0000
  H   H340      1.0  0.64374  0.89336  0.56939  1.0000
  H   H341      1.0  0.83262  0.99245  0.56085  1.0000
  H   H342      1.0  0.84420  0.89840  0.43871  1.0000
  S   S60       1.0  0.01003  0.67954  0.40233  1.0000
  P   P16       1.0  0.87050  0.83540  0.40042  1.0000
  H   H343      1.0  0.94648  0.82048  0.42684  1.0000
  C   C427      1.0  0.91459  0.81942  0.63393  1.0000
  H   H344      1.0  0.84738  0.94028  0.51671  1.0000
  C   C428      1.0  0.56021  0.89628  0.50841  1.0000
  H   H345      1.0  0.83377  0.85931  0.62226  1.0000
  C   C429      1.0  0.57310  0.74590  0.47138  1.0000
  C   C430      1.0  0.90040  0.89669  0.40815  1.0000
  C   C431      1.0  0.96971  0.97027  0.40483  1.0000
  C   C432      1.0  0.82586  0.95642  0.61744  1.0000
  C   C433      1.0  0.88719  0.77267  0.63970  1.0000
  C   C434      1.0  0.84306  0.89726  0.56675  1.0000
  C   C435      1.0  0.98150  0.81705  0.66267  1.0000
  C   C436      1.0  0.88762  0.81465  0.35576  1.0000
  C   C437      1.0  0.90298  0.96557  0.43707  1.0000
  Fe  Fe30      1.0  0.66701  0.01328  0.41482  1.0000
  H   H346      1.0  0.00450  0.99031  0.39480  1.0000
  C   C438      1.0  0.68867  0.55688  0.55090  1.0000
  H   H347      1.0  0.84793  0.87350  0.54687  1.0000
  C   C439      1.0  0.60798  0.69755  0.46505  1.0000
  C   C440      1.0  0.59473  0.68239  0.50505  1.0000
  H   H348      1.0  0.70117  0.57168  0.61730  1.0000
  C   C441      1.0  0.94597  0.92291  0.39658  1.0000
  Fe  Fe31      1.0  0.73425  0.98566  0.37544  1.0000
  C   C442      1.0  0.56807  0.01040  0.45866  1.0000
  H   H349      1.0  0.60678  0.73941  0.41665  1.0000
  H   H350      1.0  0.95295  0.93539  0.57997  1.0000
  H   H351      1.0  0.96321  0.90689  0.38120  1.0000
  H   H352      1.0  0.72121  0.58604  0.54354  1.0000
  C   C443      1.0  0.94834  0.99151  0.42538  1.0000
  C   C444      1.0  0.83491  0.88913  0.60902  1.0000
  H   H353      1.0  0.60369  0.65843  0.51833  1.0000
  C   C445      1.0  0.90635  0.74832  0.65794  1.0000
  H   H354      1.0  0.82327  0.87293  0.35112  1.0000
  C   C446      1.0  0.88540  0.77182  0.35602  1.0000
  C   C447      1.0  0.75140  0.82365  0.34963  1.0000
  C   C448      1.0  0.68275  0.97226  0.66567  1.0000
  C   C449      1.0  0.96163  0.84167  0.64549  1.0000
  H   H355      1.0  0.68178  0.76883  0.35374  1.0000
  S   S61       1.0  0.69570  0.67322  0.65279  1.0000
  H   H356      1.0  0.98220  0.87789  0.64100  1.0000
  S   S62       1.0  0.01796  0.68722  0.50600  1.0000
  H   H357      1.0  0.54370  0.91673  0.50393  1.0000
  H   H358      1.0  0.88465  0.71215  0.66270  1.0000
  C   C450      1.0  0.58563  0.01002  0.49881  1.0000
  C   C451      1.0  0.01686  0.85634  0.34316  1.0000
  C   C452      1.0  0.75179  0.96659  0.65603  1.0000
  H   H359      1.0  0.74169  0.89784  0.65969  1.0000
  C   C453      1.0  0.54158  0.52918  0.48793  1.0000
  H   H360      1.0  0.57438  0.00733  0.56504  1.0000
  C   C454      1.0  0.72584  0.91919  0.66069  1.0000
  C   C455      1.0  0.65801  0.52778  0.51884  1.0000
  H   H361      1.0  0.66671  0.53460  0.48651  1.0000
  C   C456      1.0  0.59472  0.83954  0.33493  1.0000
  C   C457      1.0  0.02877  0.85650  0.80195  1.0000
  S   S63       1.0  0.95186  0.89527  0.77374  1.0000
  Fe  Fe32      1.0  0.00360  0.97047  0.78937  1.0000
  C   C458      1.0  0.89562  0.87268  0.75034  1.0000
  C   C459      1.0  0.87527  0.82998  0.72825  1.0000
  H   H362      1.0  0.81477  0.77706  0.69367  1.0000
  C   C460      1.0  0.80396  0.83184  0.71606  1.0000
  C   C461      1.0  0.82395  0.87409  0.73908  1.0000
  C   C462      1.0  0.86977  0.89468  0.75557  1.0000
  C   C463      1.0  0.01914  0.84337  0.75935  1.0000
  C   C464      1.0  0.85522  0.92350  0.86005  1.0000
  H   H363      1.0  0.80399  0.89105  0.74401  1.0000
  H   H364      1.0  0.88459  0.92663  0.77381  1.0000
  H   H365      1.0  0.96641  0.99360  0.93070  1.0000
  H   H366      1.0  0.82498  0.90446  0.83913  1.0000
  C   C465      1.0  0.82998  0.80999  0.71057  1.0000
  H   H367      1.0  0.00122  0.84252  0.82346  1.0000
  H   H368      1.0  0.89460  0.81214  0.72501  1.0000
  S   S64       1.0  0.74641  0.80696  0.69512  1.0000
  H   H369      1.0  0.88260  0.87863  0.84595  1.0000
  C   C466      1.0  0.84031  0.00137  0.70165  1.0000
  H   H370      1.0  0.93603  0.00800  0.74906  1.0000
  C   C467      1.0  0.88197  0.00121  0.70635  1.0000
  C   C468      1.0  0.93472  0.97359  0.91190  1.0000
  C   C469      1.0  0.92744  0.93394  0.88968  1.0000
  H   H371      1.0  0.98414  0.81889  0.74884  1.0000
  C   C470      1.0  0.88765  0.90883  0.86386  1.0000
  C   C471      1.0  0.86249  0.96325  0.88219  1.0000
  C   C472      1.0  0.90207  0.98820  0.90880  1.0000
  H   H372      1.0  0.89764  0.99583  0.67941  1.0000
  H   H373      1.0  0.95326  0.92335  0.89158  1.0000
  C   C473      1.0  0.84228  0.01500  0.77692  1.0000
  H   H374      1.0  0.82102  0.97460  0.95778  1.0000
  C   C474      1.0  0.82057  0.00855  0.73722  1.0000
  H   H375      1.0  0.83775  0.97484  0.87772  1.0000
  C   C475      1.0  0.90374  0.00808  0.74584  1.0000
  C   C476      1.0  0.82210  0.00699  0.95363  1.0000
  C   C477      1.0  0.88389  0.01474  0.78116  1.0000
  C   C478      1.0  0.95320  0.77048  0.66991  1.0000
  H   H376      1.0  0.78857  0.00919  0.73442  1.0000
  H   H377      1.0  0.75167  0.98090  0.96979  1.0000
  H   H378      1.0  0.96737  0.75110  0.68439  1.0000
  H   H379      1.0  0.90493  0.97203  0.99475  1.0000
  H   H380      1.0  0.03123  0.97596  0.94296  1.0000
  C   C479      1.0  0.78286  0.01054  0.96079  1.0000
  H   H381      1.0  0.65891  0.86162  0.66900  1.0000
  H   H382      1.0  0.81921  0.91114  0.66657  1.0000
  H   H383      1.0  0.62020  0.90855  0.67241  1.0000
  C   C480      1.0  0.65689  0.92480  0.66825  1.0000
  H   H384      1.0  0.66613  0.99287  0.66809  1.0000
