data_image0
_chemical_formula_structural       FeS2FeSFeSFeS3H2C2HCH2C7H4C3HC2PH2C3HCHC2HC3H2CHC3HC2H2CHC2SC2H4C4H2CHC2H5C2H6CHC2HCHCH2SCHCHC3HC3H2FeS2FeSFeSFeS3C3H3CHC3HC2H4C3HCSH3C2HC2H3C4HCHC2H3CH2C2H2CHCPHC2SC3HCHC4H2CH2C2HC4HCHCHCHC3HCHSHC3HCSCFeH2CHPH2FeH2FeS2FeS2FeSFeS3H2SCHSHFeSFeS2CFeS2FeS2Fe3S3C5HC2HC4HCHC7H5CH2CHC3HC9H4C6H5C2H5C2HC5PCHCFeH2C13H7CH11CHC2H2CH2C3HC2H4CHC2H3C2H2C2H2CHC6PC4HC13H6C3H9CHC3H3CHCH2CHCHCPCSCH3C2HCH5C7PC18H11CH3CHC3H3C4H4C4HC2H2CH3CH2C2HCHC5HC5HC2HCH2PCH2C2HCHCSPHCH2CH4CHFeS2FeS2FeSFeS3H2SH2SCFeSC2SHFeS2FeS2FeSFeHS2PC2H5CHC6H4C8H4C6H2CHC5H2C6PC18H20CH2C2H4CHC2HCHC2HC2HC2H4C4HC5HCHPHCH3CH2C2PH2PC2HCHC9HC4PH3C6HCH3CH2C2HCH4C7H3C2H2CHCH2C2H2CHCHC5H3CH3CHC2HCHC11H2C4SH2CH2CH4C3HSHC8H2C2H2CHC3HCHCHC2FeCH3CHCHC2PHCFeS2FeHFeHS2FeS2HCHFeC2SC2FeSHFeS2HFeSCSH2C3HSHCH3C2H2CFeH2C4H2C5HC6H4CH2C4HCH2CFeH2CH3CH3CSCH3C3HSC2HCH3CH3C4H7CHCHCH2C2HC4PHC6HCHC2H3CHCS2C3HC2HCHSCH5CHCH4C3HCPC6HC2HSHC2HCSFeS2FeSFeS3FeS2HC3S2CHFeH2FeS2FeS2C2HC3HCHC4HC5H2CHSCFeHCH3C3HCH2C2H2CHC2HC7H4C2H3CH3PH3C5HPCH3C2HCHC2HCHCHC2HC4H4C2SHC2H2CHCH4CHC2HPCHC5HCHCH2C2HC6HC3H3C2H2C7H4CH3CHC5HC3HCHCHCHC2HC2H2C4HC3HC3HFeHCHFeCHC3HC9HSCH2CH2C2H2CHCH2C2HC4H3C3HPC2HPCH8CH7C3FeHCHPFeC2S2CFeS2FeS2FeHFeS3FeCSFeS2FeHFeHS2CSFeSCFeSFeS2FeS2FeS2FeSFeS3HFeS2FeS2FeSFeS3CHC7H3C6H4C3FeC2HC2HC2HCHCHCHC2H2CH2CHC7H5CHC2HCHC6H4CH2C2HC6H2CHCH2C6H2CH3CH2C2HCH3C2HSC8H2CH6SCHC2HC3H2SHC2H2SC4H2CHC2HCH2C2HC4HC2H2C2HCPCFeH2CHC9PC15HC3H14C2H2C6PC5HC11HCH5C3H9CHC3PC14H2C4H15C2HC6PC18H20PH2CHC2H3C4SC2HCHC2HC2PHC3HCH3CHC5PCH2C2HC2HCH3CHC3H2C3H2C3H3C2PCH6CH6C2H2CH3C3H2CHCSCHC5HC2H2CH2CH2CHCH2C2HCH2CHCHC2H3C2HC5H4C2H2CH2CHC3HC4H2CHC2H3CHCHPH2C4H3PC2HCSHC2HCHCH2CH3C3HC10H3C2H5C2HCHC2HCSFeS2FeSFeSFeS3FeHSFeS2FeCFeS3CSFeS2FeHFeS2FeS2FeS2FeSFeS3HFeS2FeS2FeSFeS3CHC3H2CH2CHC6H4C6H4CH3C3HPC2HCH2C6H4C6H4C6H9C7H4C2SH2C2H4PC2HC3H2C2H2C2H2C2PH2CHC2H6CH3CHC4H2CHC3HC6H3C4HC2H2CSH3CHCHCH2C6HCH4C6PC2HC11H12C7HCH5C2H2C6PC18H16C2H3CHCH2CH2C2H2CHC3PHC4HCHSCHC3HPCHC2HC2H2C3H2CH2CH3C2HC3H5C2HC3H3CHC2HCHC3HC2H2C2H2CH4C8HCH3SHC2H2C3HC3HC2H2C3HCHC2H3C10HCHC4HFeC2H4CHC2HCH2C2HCSHC4H3CHC4H3CHCHC2HCH6CPC3HC2H2C5H2CH3PC4SHPH2CHCH3C2H2CH2C2HS2CSFeSHFeS2FeSFeS3FeS2FeSHFeSFeS3FeS2FeS2FeSFeS3FeS2FeS2FeSFeS3FeS2FeSFeSFeS4C6H4C5HCH3C5HC7H4C5H2CH3PHC7H6C2HC2H2C7H4C6H4C6H4C2H3CHC3HC7H9PHC2H4CH2CHCHCHC6PC13H14C3H5C2HCHCH3CHC2HC7PC15H2CHCH14C3HC2HCH2SCSC5SPH3C4HCH6C6PC17H15C2H3CH2CHCH7C3HCHC3S2C2HC2HCH3C4H2C2H2C3HCH4C3HCH2C10H2C2HC2HC2SHCHCH3CH3CH2CHC2HC4HCH2CH2CHCHCFeH2C2HCH2C2H2CHCH2C2PC2HCHC2HC2HCH3CH7SHCHCHC8PC3H2CH2C2PCH2C2HCHC2HCHC3HCHC6H2CH4C7H2CH2C2H2C2HC3H2C3H2C2HCH2CHC2HCH3CHCHCH3CHCHC4H2CHPC3HC2HCH2C4PHC5H2C3HCPCHC3FeHC3H2C2HCHCH2C4HCHC4HP2CHCPCHC3HC2H2C2FeC9HC2HSH2CH3C2H5CHC2H2CHFeC2HCHCFeS2H2SFeS2FeS2FeSFeCS2FeSHFeSHFeSFeS3FeS2FeS2FeSFeS3FeS2FeS2FeSFeS3FeS2FeSFeSFeS3CSC7H4C5H4C2H3C9H4CHCH2C7H4C6H4C6H7CHC3HCHC7H6CH2CPC13HCH9C6PC14HCHCH16CHCHCHCSC2HCHCH2CH2C2H2C8H3CH2C3H4C3HC7HCH2C6PC18H20C4HCH5CPCHCHC3PH2C6H2CH2CH3CHCSC2HC2H2C2HC2HC5HC2HC2HCHCH4CH4C2HCHC2H3C2HPC3HCH2C2H2C4HCHC2H2C5H6CHC3HC2SC2H2C2HCH2C2PH2CH2CH2CH5CH2FeH3CHCH3CHC2H2CH2CHC10HC4H4C2HC4HCHCH2C3HCPHCHC3HC2HCHCHCHCHCHC3H2C7HCH5CSC3H2SH2C8SHCHC2SCH3CHC2HCPCPC4H4SC10HCHC2HCHC2HC2H4CHC2PCHFeHCFeS2FeSCSCH2SH3FeS2FeS2FeS2FeSFeSHC3HCHCHC2HC2HC2PC3H3C2H2C2HC2HC6H4CHC2H3C3FeHCH2CHC3H2CHCH4CHC2PH3C3HCH2SC5H4SC2H2C2HSH2CH2C2HCHC2H2C7HC3HSC6SH4CHC2H4C3HSHCHC5H2PH3C6H2CHCH3CSC2HC2PCHCH3C5HC2H2C5HC3H3C5HC3H2CH3C2H3CHPHCHCH2C3HCH4FeSCFeSHFeSHSC2S2CSC3HPFeS2FeS2Fe2S3C4H2CHC6HCHSHC3PCH2CHCPCHCHC4HC3HC6H4C2HC2HCH3CH2C3HCFeH4CHC4HFeCH2C2HCHC3HCSHCH3CHC2H2C3H5CH2CH2C3HCFeCH4C2HC2H3C3H3CH2C2PCHC2H2C2HC3HC3HC5H2C6HCH3CH4CH4CHC2HCHC5HCHC2H6C2HCH2C13HCHCH2CH3C4HCHC2H3C3H2CPSC2HC4H2C2H3C2HSCSH2C2SC2HSHFeS2FeS2FeSFeS3FeS2FeS2FeSFeHS2FeS2FeS2FeSFeS3C5H2C3HC6H4C3HC2H4CHC3H2C2HC6H4C4H3CHC6H5SCH3C3H3CH2C2HC6HCH2PC3HCH2C2HC6PCH3C2H2C2H2C6H4C2H2C2HC2HC6H2CHCHCHCH2CHCHCHC4H3C2H2CHCHC5H2CHC4HCH2CHCHC2PCHC2H4PC18H4CHCH10C5H3PC3HCHC2H2CHCH2CHC9H3C2H6CH2C2H2CHC3H2C3HC3HC4H3CH2C3H4C2H3C3HC2H5C2FeC2H2CHC2HCHCH3CH3SFeS2FeS2FeSFeCS2FeS2FeS2FeSFeS3FeS2FeS2FeSFeS3HCH2C7H5CH2C2HC2HC6H4C2H3CHCH3PH2CFeH2C6H4C3HC2H3CHCH2C2H4SC3HC2H2C2HCHCHCH3C2HC4H2C2HC2PC3H3CH2CHC2HCHCH4SC4HC3HC2HC3HC2H4CH2CHCH2CHCHC2HCHCHCH5CHCHC3H2C2HC3H2C2HC3HC2H2C5HC4PC18H2CH5CH11CH2CHPCH2C4H2CHCHCH3CPHCH3C8HCH2C4H2C4PC5HC3H2CH2C6HCHCH3CHC2HPC4H3CHCSCHC2FeS2CPCHSHC2SC2H5FeC2HCFeH2CH2C7HC2H4CHC3HCHSCSHPHC4FeS2H2FeH2C2FeCSCH4CHSCHCSCHCH2C2H2CH2CH2C4HCSCH3C3PCHC2H2CH2C
_chemical_formula_sum              "Fe192 S384 H2304 C2880 P96"
_cell_length_a       88.6037
_cell_length_b       88.3616
_cell_length_c       47.2114
_cell_angle_alpha    87.4889
_cell_angle_beta     87.5872
_cell_angle_gamma    108.273

_space_group_name_H-M_alt    "P 1"
_space_group_IT_number       1

loop_
  _space_group_symop_operation_xyz
  'x, y, z'

loop_
  _atom_site_type_symbol
  _atom_site_label
  _atom_site_symmetry_multiplicity
  _atom_site_fract_x
  _atom_site_fract_y
  _atom_site_fract_z
  _atom_site_occupancy
  Fe  Fe1       1.0  0.03092  0.44210  0.39024  1.0000
  S   S1        1.0  0.05463  0.43777  0.39468  1.0000
  S   S2        1.0  0.00679  0.42521  0.40796  1.0000
  Fe  Fe2       1.0  0.04736  0.47773  0.37626  1.0000
  S   S3        1.0  0.07195  0.47608  0.38045  1.0000
  Fe  Fe3       1.0  0.06351  0.45446  0.35501  1.0000
  S   S4        1.0  0.07788  0.44960  0.31617  1.0000
  Fe  Fe4       1.0  0.06115  0.45989  0.41942  1.0000
  S   S5        1.0  0.07363  0.46468  0.46093  1.0000
  S   S6        1.0  0.03907  0.45684  0.34902  1.0000
  S   S7        1.0  0.03738  0.46344  0.41669  1.0000
  H   H1        1.0  0.10198  0.48267  0.30625  1.0000
  H   H2        1.0  0.99969  0.42314  0.34796  1.0000
  C   C1        1.0  0.06525  0.44936  0.20769  1.0000
  C   C2        1.0  0.09195  0.46279  0.18774  1.0000
  H   H3        1.0  0.03598  0.36761  0.35393  1.0000
  C   C3        1.0  0.03004  0.46681  0.27921  1.0000
  H   H4        1.0  0.04131  0.46484  0.27447  1.0000
  H   H5        1.0  0.08071  0.43734  0.18930  1.0000
  C   C4        1.0  0.02804  0.34206  0.35635  1.0000
  C   C5        1.0  0.04740  0.41050  0.34157  1.0000
  C   C6        1.0  0.03751  0.41483  0.32280  1.0000
  C   C7        1.0  0.02102  0.40765  0.32625  1.0000
  C   C8        1.0  0.01438  0.39635  0.34880  1.0000
  C   C9        1.0  0.02423  0.39216  0.36811  1.0000
  C   C10       1.0  0.04083  0.39918  0.36403  1.0000
  H   H6        1.0  0.06021  0.41613  0.33889  1.0000
  H   H7        1.0  0.04269  0.42383  0.30574  1.0000
  H   H8        1.0  0.01332  0.41099  0.31170  1.0000
  H   H9        1.0  0.00159  0.39118  0.35124  1.0000
  C   C11       1.0  0.09373  0.45926  0.28970  1.0000
  C   C12       1.0  0.10345  0.47538  0.28922  1.0000
  C   C13       1.0  0.02766  0.35698  0.36451  1.0000
  H   H10       1.0  0.03654  0.34135  0.33968  1.0000
  C   C14       1.0  0.01746  0.32808  0.36960  1.0000
  C   C15       1.0  0.01664  0.35801  0.38602  1.0000
  P   P1        1.0  0.01604  0.37718  0.39690  1.0000
  H   H11       1.0  0.03068  0.40803  0.42030  1.0000
  H   H12       1.0  0.04876  0.39601  0.37831  1.0000
  C   C16       1.0  0.00611  0.34389  0.39935  1.0000
  C   C17       1.0  0.02809  0.38293  0.42698  1.0000
  C   C18       1.0  0.03386  0.39909  0.43297  1.0000
  H   H13       1.0  0.05557  0.43843  0.21299  1.0000
  C   C19       1.0  0.07937  0.44873  0.19426  1.0000
  H   H14       1.0  0.01774  0.31654  0.36320  1.0000
  C   C20       1.0  0.10818  0.45662  0.24570  1.0000
  C   C21       1.0  0.09639  0.45006  0.26772  1.0000
  H   H15       1.0  0.08925  0.43764  0.26766  1.0000
  C   C22       1.0  0.00651  0.32900  0.39111  1.0000
  C   C23       1.0  0.01588  0.45578  0.27166  1.0000
  C   C24       1.0  0.00065  0.47102  0.29429  1.0000
  H   H16       1.0  0.05270  0.46435  0.22501  1.0000
  H   H17       1.0  0.02763  0.35898  0.44028  1.0000
  C   C25       1.0  0.06373  0.46406  0.21465  1.0000
  H   H18       1.0  0.01623  0.44537  0.26068  1.0000
  C   C26       1.0  0.03202  0.37153  0.44423  1.0000
  C   C27       1.0  0.07643  0.47824  0.20862  1.0000
  C   C28       1.0  0.09056  0.47747  0.19500  1.0000
  H   H19       1.0  0.07137  0.47855  0.31833  1.0000
  C   C29       1.0  0.01501  0.48221  0.30126  1.0000
  C   C30       1.0  0.02959  0.48005  0.29389  1.0000
  H   H20       1.0  0.07194  0.47493  0.26724  1.0000
  H   H21       1.0  0.10310  0.46231  0.17800  1.0000
  C   C31       1.0  0.11517  0.48212  0.26654  1.0000
  H   H22       1.0  0.10993  0.44910  0.22924  1.0000
  C   C32       1.0  0.11758  0.47273  0.24444  1.0000
  C   C33       1.0  0.04406  0.40386  0.45498  1.0000
  S   S8        1.0  0.13173  0.48001  0.21439  1.0000
  C   C34       1.0  0.00123  0.45782  0.27923  1.0000
  C   C35       1.0  0.07292  0.48664  0.27443  1.0000
  H   H23       1.0  0.04905  0.41642  0.45861  1.0000
  H   H24       1.0  0.99759  0.34436  0.41617  1.0000
  H   H25       1.0  0.00210  0.41390  0.46913  1.0000
  H   H26       1.0  0.00033  0.38527  0.44806  1.0000
  C   C36       1.0  0.00052  0.48273  0.38413  1.0000
  C   C37       1.0  0.04189  0.37632  0.46677  1.0000
  C   C38       1.0  0.99553  0.37513  0.40708  1.0000
  C   C39       1.0  0.04801  0.39250  0.47200  1.0000
  H   H27       1.0  0.04626  0.43747  0.48235  1.0000
  H   H28       1.0  0.12769  0.47574  0.02397  1.0000
  C   C40       1.0  0.99415  0.47442  0.36062  1.0000
  H   H29       1.0  0.00827  0.47844  0.39717  1.0000
  C   C41       1.0  0.07266  0.48862  0.30358  1.0000
  C   C42       1.0  0.99133  0.37949  0.43384  1.0000
  H   H30       1.0  0.99709  0.46375  0.35585  1.0000
  H   H31       1.0  0.04047  0.48839  0.30064  1.0000
  H   H32       1.0  0.10071  0.48802  0.19020  1.0000
  H   H33       1.0  0.99830  0.31816  0.40140  1.0000
  H   H34       1.0  0.04498  0.36751  0.47996  1.0000
  C   C43       1.0  0.13938  0.48458  0.02284  1.0000
  C   C44       1.0  0.14758  0.48970  0.99617  1.0000
  H   H35       1.0  0.17535  0.48085  0.10119  1.0000
  H   H36       1.0  0.13960  0.48708  0.06836  1.0000
  H   H37       1.0  0.03457  0.47918  0.47073  1.0000
  H   H38       1.0  0.01501  0.49230  0.31356  1.0000
  H   H39       1.0  0.05913  0.49013  0.16371  1.0000
  H   H40       1.0  0.99362  0.45198  0.42756  1.0000
  C   C45       1.0  0.04122  0.49173  0.46690  1.0000
  H   H41       1.0  0.99047  0.44879  0.27401  1.0000
  C   C46       1.0  0.02400  0.49378  0.18899  1.0000
  C   C47       1.0  0.14610  0.49098  0.04806  1.0000
  H   H42       1.0  0.01212  0.49258  0.18241  1.0000
  C   C48       1.0  0.03533  0.49121  0.16991  1.0000
  H   H43       1.0  0.03221  0.48797  0.14854  1.0000
  C   C49       1.0  0.05059  0.49254  0.17851  1.0000
  H   H44       1.0  0.17864  0.45481  0.11594  1.0000
  H   H45       1.0  0.99655  0.45219  0.47955  1.0000
  S   S9        1.0  0.17120  0.49374  0.15992  1.0000
  C   C50       1.0  0.19769  0.48920  0.07659  1.0000
  H   H46       1.0  0.22345  0.46786  0.06769  1.0000
  C   C51       1.0  0.20392  0.49321  0.00273  1.0000
  H   H47       1.0  0.20275  0.44842  0.09900  1.0000
  C   C52       1.0  0.18774  0.46337  0.10220  1.0000
  C   C53       1.0  0.21306  0.47089  0.07491  1.0000
  C   C54       1.0  0.21132  0.48573  0.06686  1.0000
  H   H48       1.0  0.19500  0.48773  0.01964  1.0000
  C   C55       1.0  0.18590  0.47805  0.09404  1.0000
  C   C56       1.0  0.20132  0.45979  0.09264  1.0000
  C   C57       1.0  0.23642  0.48662  0.23594  1.0000
  H   H49       1.0  0.22887  0.47716  0.22423  1.0000
  H   H50       1.0  0.10288  0.49430  0.41162  1.0000
  Fe  Fe5       1.0  0.03077  0.43970  0.68099  1.0000
  S   S10       1.0  0.05142  0.43058  0.67074  1.0000
  S   S11       1.0  0.00610  0.42876  0.70335  1.0000
  Fe  Fe6       1.0  0.04841  0.47244  0.65267  1.0000
  S   S12       1.0  0.07018  0.46600  0.63987  1.0000
  Fe  Fe7       1.0  0.05281  0.44309  0.62722  1.0000
  S   S13       1.0  0.05205  0.43106  0.58503  1.0000
  Fe  Fe8       1.0  0.06739  0.45444  0.68459  1.0000
  S   S14       1.0  0.09054  0.45819  0.70867  1.0000
  S   S15       1.0  0.03129  0.45047  0.63718  1.0000
  S   S16       1.0  0.04659  0.46258  0.69769  1.0000
  C   C58       1.0  0.09829  0.46584  0.74167  1.0000
  C   C59       1.0  0.11462  0.46880  0.74591  1.0000
  C   C60       1.0  0.12124  0.47439  0.77177  1.0000
  H   H51       1.0  0.04121  0.46000  0.56933  1.0000
  H   H52       1.0  0.14200  0.42100  0.79733  1.0000
  H   H53       1.0  0.12221  0.46666  0.72906  1.0000
  C   C61       1.0  0.12210  0.43686  0.89187  1.0000
  H   H54       1.0  0.00010  0.41836  0.61994  1.0000
  C   C62       1.0  0.05755  0.44116  0.55093  1.0000
  C   C63       1.0  0.04897  0.43473  0.52750  1.0000
  C   C64       1.0  0.99869  0.40979  0.49120  1.0000
  H   H55       1.0  0.12330  0.49050  0.60374  1.0000
  C   C65       1.0  0.06655  0.45587  0.49550  1.0000
  C   C66       1.0  0.07045  0.45519  0.54658  1.0000
  H   H56       1.0  0.03900  0.42390  0.53067  1.0000
  H   H57       1.0  0.01748  0.40918  0.59189  1.0000
  H   H58       1.0  0.16341  0.47902  0.81138  1.0000
  H   H59       1.0  0.07724  0.46016  0.56436  1.0000
  C   C67       1.0  0.19910  0.49277  0.97486  1.0000
  C   C68       1.0  0.16754  0.45896  0.79189  1.0000
  C   C69       1.0  0.99993  0.49303  0.60782  1.0000
  H   H60       1.0  0.99253  0.43258  0.55955  1.0000
  C   C70       1.0  0.02578  0.39441  0.62031  1.0000
  S   S17       1.0  0.11943  0.48521  0.82678  1.0000
  H   H61       1.0  0.10648  0.47674  0.64652  1.0000
  H   H62       1.0  0.12136  0.36752  0.86928  1.0000
  H   H63       1.0  0.00352  0.39809  0.67913  1.0000
  C   C71       1.0  0.11339  0.48929  0.64647  1.0000
  C   C72       1.0  0.09504  0.42892  0.76213  1.0000
  H   H64       1.0  0.09658  0.37052  0.85083  1.0000
  C   C73       1.0  0.14662  0.43362  0.80076  1.0000
  C   C74       1.0  0.09535  0.47426  0.78976  1.0000
  H   H65       1.0  0.09530  0.39708  0.83591  1.0000
  H   H66       1.0  0.08421  0.42202  0.84311  1.0000
  H   H67       1.0  0.12593  0.44400  0.93488  1.0000
  C   C75       1.0  0.99886  0.38687  0.60398  1.0000
  C   C76       1.0  0.01429  0.39783  0.60402  1.0000
  C   C77       1.0  0.13790  0.44090  0.81794  1.0000
  C   C78       1.0  0.10692  0.38095  0.85232  1.0000
  H   H68       1.0  0.12907  0.42884  0.89371  1.0000
  C   C79       1.0  0.12035  0.44542  0.91537  1.0000
  H   H69       1.0  0.03091  0.37755  0.64953  1.0000
  C   C80       1.0  0.00465  0.39921  0.53613  1.0000
  C   C81       1.0  0.15872  0.46635  0.80828  1.0000
  H   H70       1.0  0.16821  0.43694  0.77492  1.0000
  H   H71       1.0  0.09800  0.43112  0.73947  1.0000
  H   H72       1.0  0.03756  0.40305  0.62064  1.0000
  C   C82       1.0  0.10519  0.45871  0.88810  1.0000
  H   H73       1.0  0.00383  0.35790  0.64947  1.0000
  H   H74       1.0  0.09912  0.46758  0.88624  1.0000
  C   C83       1.0  0.00903  0.40460  0.50772  1.0000
  C   C84       1.0  0.12087  0.37926  0.86270  1.0000
  H   H75       1.0  0.13712  0.46336  0.83322  1.0000
  H   H76       1.0  0.03366  0.48408  0.57367  1.0000
  C   C85       1.0  0.00861  0.47245  0.56773  1.0000
  H   H77       1.0  0.13375  0.47643  0.77448  1.0000
  C   C86       1.0  0.10624  0.39609  0.84386  1.0000
  P   P2        1.0  0.11885  0.42932  0.83489  1.0000
  H   H78       1.0  0.08772  0.47627  0.80668  1.0000
  C   C87       1.0  0.07505  0.46236  0.51896  1.0000
  C   C88       1.0  0.07926  0.42553  0.77242  1.0000
  S   S18       1.0  0.13848  0.48181  0.96474  1.0000
  C   C89       1.0  0.16143  0.44262  0.78790  1.0000
  C   C90       1.0  0.22920  0.49272  0.87442  1.0000
  C   C91       1.0  0.11171  0.47740  0.79386  1.0000
  H   H79       1.0  0.07606  0.46585  0.76156  1.0000
  C   C92       1.0  0.10335  0.42777  0.81037  1.0000
  H   H80       1.0  0.11104  0.46335  0.93143  1.0000
  C   C93       1.0  0.13357  0.40786  0.85616  1.0000
  C   C94       1.0  0.11957  0.40968  0.84571  1.0000
  C   C95       1.0  0.11194  0.45638  0.91346  1.0000
  C   C96       1.0  0.11535  0.43913  0.86624  1.0000
  H   H81       1.0  0.07008  0.42511  0.75769  1.0000
  H   H82       1.0  0.08541  0.47287  0.51567  1.0000
  C   C97       1.0  0.08868  0.46843  0.76404  1.0000
  H   H83       1.0  0.14501  0.39142  0.87274  1.0000
  H   H84       1.0  0.01270  0.39479  0.54807  1.0000
  C   C98       1.0  0.02204  0.38002  0.63659  1.0000
  C   C99       1.0  0.14388  0.45739  0.82096  1.0000
  H   H85       1.0  0.18674  0.48696  0.97067  1.0000
  C   C100      1.0  0.13419  0.39271  0.86463  1.0000
  C   C101      1.0  0.02456  0.47311  0.56962  1.0000
  C   C102      1.0  0.00149  0.44392  0.56190  1.0000
  C   C103      1.0  0.07541  0.42301  0.80162  1.0000
  H   H86       1.0  0.22495  0.48025  0.88175  1.0000
  C   C104      1.0  0.01743  0.44476  0.56324  1.0000
  H   H87       1.0  0.06316  0.42045  0.80954  1.0000
  C   C105      1.0  0.99706  0.45766  0.56451  1.0000
  H   H88       1.0  0.11923  0.43325  0.77239  1.0000
  C   C106      1.0  0.05317  0.44228  0.50005  1.0000
  H   H89       1.0  0.02088  0.43408  0.56197  1.0000
  C   C107      1.0  0.10686  0.45013  0.86463  1.0000
  C   C108      1.0  0.00683  0.36896  0.63648  1.0000
  C   C109      1.0  0.10707  0.43017  0.78096  1.0000
  H   H90       1.0  0.10204  0.45260  0.84491  1.0000
  C   C110      1.0  0.08738  0.42401  0.82054  1.0000
  H   H91       1.0  0.99109  0.43758  0.64559  1.0000
  S   S19       1.0  0.15254  0.47792  0.88364  1.0000
  H   H92       1.0  0.14400  0.41817  0.85790  1.0000
  C   C111      1.0  0.99530  0.37233  0.62026  1.0000
  C   C112      1.0  0.02893  0.45936  0.56719  1.0000
  C   C113      1.0  0.99167  0.39885  0.68287  1.0000
  H   H93       1.0  0.17911  0.46592  0.78229  1.0000
  C   C114      1.0  0.99000  0.39938  0.54848  1.0000
  S   S20       1.0  0.19745  0.48962  0.87052  1.0000
  C   C115      1.0  0.99285  0.47969  0.62669  1.0000
  Fe  Fe9       1.0  0.14125  0.49216  0.85501  1.0000
  H   H94       1.0  0.07455  0.49365  0.76725  1.0000
  H   H95       1.0  0.05589  0.39627  0.48912  1.0000
  C   C116      1.0  0.08875  0.49424  0.57100  1.0000
  H   H96       1.0  0.08986  0.48798  0.59065  1.0000
  P   P3        1.0  0.00305  0.49034  0.57058  1.0000
  H   H97       1.0  0.06393  0.49128  0.57986  1.0000
  H   H98       1.0  0.02044  0.40466  0.49844  1.0000
  Fe  Fe10      1.0  0.14886  0.49214  0.92026  1.0000
  H   H99       1.0  0.10544  0.49139  0.68917  1.0000
  H   H100      1.0  0.06040  0.48986  0.49135  1.0000
  Fe  Fe11      1.0  0.06208  0.59598  0.36563  1.0000
  S   S21       1.0  0.07052  0.58917  0.40704  1.0000
  S   S22       1.0  0.03528  0.59039  0.36288  1.0000
  Fe  Fe12      1.0  0.09654  0.61475  0.34157  1.0000
  S   S23       1.0  0.10714  0.60925  0.38185  1.0000
  S   S24       1.0  0.11158  0.63137  0.30438  1.0000
  Fe  Fe13      1.0  0.08970  0.58470  0.37965  1.0000
  S   S25       1.0  0.09644  0.56285  0.39028  1.0000
  Fe  Fe14      1.0  0.08690  0.61416  0.40612  1.0000
  S   S26       1.0  0.08887  0.62963  0.44397  1.0000
  S   S27       1.0  0.08017  0.58955  0.33800  1.0000
  S   S28       1.0  0.07745  0.62169  0.36609  1.0000
  H   H101      1.0  0.00079  0.50403  0.27997  1.0000
  H   H102      1.0  0.99346  0.52494  0.25312  1.0000
  S   S29       1.0  0.18441  0.53197  0.14093  1.0000
  C   C117      1.0  0.22233  0.72002  0.06644  1.0000
  H   H103      1.0  0.05504  0.60765  0.28174  1.0000
  S   S30       1.0  0.16961  0.52028  0.20588  1.0000
  H   H104      1.0  0.23785  0.67023  0.00988  1.0000
  Fe  Fe15      1.0  0.16467  0.53466  0.16908  1.0000
  S   S31       1.0  0.15880  0.55765  0.17380  1.0000
  Fe  Fe16      1.0  0.18839  0.51596  0.17601  1.0000
  S   S32       1.0  0.21409  0.52182  0.19002  1.0000
  S   S33       1.0  0.14600  0.51404  0.15210  1.0000
  C   C118      1.0  0.12519  0.52902  0.43781  1.0000
  Fe  Fe17      1.0  0.19324  0.67125  0.10201  1.0000
  S   S34       1.0  0.21676  0.66740  0.10718  1.0000
  S   S35       1.0  0.18802  0.68171  0.05992  1.0000
  Fe  Fe18      1.0  0.18253  0.66220  0.16537  1.0000
  S   S36       1.0  0.20579  0.65816  0.17462  1.0000
  S   S37       1.0  0.16217  0.66103  0.19856  1.0000
  Fe  Fe19      1.0  0.21808  0.68061  0.14700  1.0000
  Fe  Fe20      1.0  0.15199  0.49924  0.18767  1.0000
  Fe  Fe21      1.0  0.20282  0.64553  0.13411  1.0000
  S   S38       1.0  0.20994  0.62330  0.13015  1.0000
  S   S39       1.0  0.19510  0.68578  0.14068  1.0000
  S   S40       1.0  0.17890  0.64821  0.12587  1.0000
  C   C119      1.0  0.18876  0.67281  0.02714  1.0000
  C   C120      1.0  0.19127  0.65801  0.02583  1.0000
  C   C121      1.0  0.22957  0.51978  0.05861  1.0000
  C   C122      1.0  0.02254  0.56227  0.33533  1.0000
  C   C123      1.0  0.18554  0.68020  0.00215  1.0000
  H   H105      1.0  0.19415  0.65245  0.04478  1.0000
  C   C124      1.0  0.09048  0.62265  0.24355  1.0000
  C   C125      1.0  0.23162  0.53593  0.09962  1.0000
  H   H106      1.0  0.13698  0.53772  0.43524  1.0000
  C   C126      1.0  0.99385  0.54793  0.33683  1.0000
  C   C127      1.0  0.19120  0.56460  0.01730  1.0000
  C   C128      1.0  0.12013  0.58892  0.31931  1.0000
  C   C129      1.0  0.99137  0.55817  0.35695  1.0000
  H   H107      1.0  0.19944  0.62577  0.06318  1.0000
  C   C130      1.0  0.07634  0.51476  0.26554  1.0000
  H   H108      1.0  0.23532  0.71017  0.09560  1.0000
  C   C131      1.0  0.20923  0.56935  0.06553  1.0000
  C   C132      1.0  0.17335  0.57582  0.16223  1.0000
  C   C133      1.0  0.18863  0.57637  0.15239  1.0000
  C   C134      1.0  0.19991  0.59105  0.14304  1.0000
  C   C135      1.0  0.19598  0.60523  0.14361  1.0000
  C   C136      1.0  0.18080  0.60471  0.15385  1.0000
  C   C137      1.0  0.16949  0.59003  0.16298  1.0000
  H   H109      1.0  0.19182  0.56554  0.15212  1.0000
  H   H110      1.0  0.21169  0.59142  0.13527  1.0000
  H   H111      1.0  0.17783  0.61565  0.15466  1.0000
  H   H112      1.0  0.15776  0.58973  0.17076  1.0000
  H   H113      1.0  0.99708  0.52940  0.41712  1.0000
  C   C138      1.0  0.01780  0.55897  0.45776  1.0000
  H   H114      1.0  0.11868  0.56657  0.24006  1.0000
  H   H115      1.0  0.22485  0.51044  0.10248  1.0000
  C   C139      1.0  0.23760  0.74438  0.03953  1.0000
  H   H116      1.0  0.21237  0.73289  0.03682  1.0000
  C   C140      1.0  0.06597  0.60788  0.27020  1.0000
  C   C141      1.0  0.03301  0.55793  0.41442  1.0000
  C   C142      1.0  0.12423  0.57235  0.19575  1.0000
  H   H117      1.0  0.21115  0.71068  0.07170  1.0000
  C   C143      1.0  0.02505  0.60229  0.48569  1.0000
  C   C144      1.0  0.11096  0.58953  0.29618  1.0000
  C   C145      1.0  0.03611  0.60902  0.43704  1.0000
  C   C146      1.0  0.12592  0.63841  0.27483  1.0000
  C   C147      1.0  0.12725  0.65325  0.26140  1.0000
  C   C148      1.0  0.13816  0.65962  0.23810  1.0000
  C   C149      1.0  0.14822  0.65143  0.22756  1.0000
  C   C150      1.0  0.14691  0.63639  0.24063  1.0000
  C   C151      1.0  0.13585  0.62995  0.26424  1.0000
  H   H118      1.0  0.11972  0.65994  0.26909  1.0000
  H   H119      1.0  0.13880  0.67109  0.22820  1.0000
  H   H120      1.0  0.15449  0.62981  0.23276  1.0000
  H   H121      1.0  0.13519  0.61858  0.27438  1.0000
  C   C152      1.0  0.08074  0.54561  0.38459  1.0000
  C   C153      1.0  0.06687  0.54661  0.37262  1.0000
  C   C154      1.0  0.05462  0.53262  0.36753  1.0000
  C   C155      1.0  0.05619  0.51765  0.37458  1.0000
  C   C156      1.0  0.06976  0.51675  0.38772  1.0000
  C   C157      1.0  0.08212  0.53069  0.39226  1.0000
  H   H122      1.0  0.06561  0.55811  0.36709  1.0000
  H   H123      1.0  0.04396  0.53340  0.35812  1.0000
  H   H124      1.0  0.09525  0.54961  0.04671  1.0000
  H   H125      1.0  0.09276  0.52994  0.40179  1.0000
  H   H126      1.0  0.22181  0.59256  0.04564  1.0000
  C   C158      1.0  0.07606  0.51663  0.29483  1.0000
  C   C159      1.0  0.01991  0.57304  0.35435  1.0000
  H   H127      1.0  0.04995  0.61482  0.47352  1.0000
  H   H128      1.0  0.13457  0.56832  0.19582  1.0000
  H   H129      1.0  0.03446  0.56394  0.32656  1.0000
  H   H130      1.0  0.10367  0.58869  0.15116  1.0000
  H   H131      1.0  0.18127  0.51598  0.01902  1.0000
  C   C160      1.0  0.14942  0.65233  0.03248  1.0000
  C   C161      1.0  0.08454  0.59419  0.25487  1.0000
  H   H132      1.0  0.00358  0.50403  0.40662  1.0000
  C   C162      1.0  0.21072  0.74736  0.11497  1.0000
  C   C163      1.0  0.20477  0.73197  0.12792  1.0000
  C   C164      1.0  0.20517  0.72958  0.15732  1.0000
  C   C165      1.0  0.21106  0.74263  0.17413  1.0000
  C   C166      1.0  0.21737  0.75802  0.16087  1.0000
  P   P4        1.0  0.21245  0.73962  0.21188  1.0000
  C   C167      1.0  0.19778  0.72161  0.22717  1.0000
  H   H133      1.0  0.11752  0.54098  0.47136  1.0000
  C   C168      1.0  0.16119  0.50247  0.04684  1.0000
  Fe  Fe22      1.0  0.16621  0.51021  0.12593  1.0000
  H   H134      1.0  0.10626  0.60947  0.23262  1.0000
  H   H135      1.0  0.07097  0.55634  0.21226  1.0000
  C   C169      1.0  0.16270  0.50109  0.99509  1.0000
  C   C170      1.0  0.20088  0.71383  0.25180  1.0000
  C   C171      1.0  0.18957  0.69987  0.26369  1.0000
  C   C172      1.0  0.17508  0.69361  0.25115  1.0000
  C   C173      1.0  0.17171  0.70155  0.22720  1.0000
  C   C174      1.0  0.18286  0.71567  0.21558  1.0000
  C   C175      1.0  0.20856  0.75551  0.23053  1.0000
  C   C176      1.0  0.19787  0.76297  0.22021  1.0000
  C   C177      1.0  0.19466  0.77511  0.23498  1.0000
  C   C178      1.0  0.20192  0.77972  0.26031  1.0000
  C   C179      1.0  0.21230  0.77209  0.27104  1.0000
  C   C180      1.0  0.21552  0.75994  0.25634  1.0000
  C   C181      1.0  0.16949  0.50732  0.02024  1.0000
  H   H136      1.0  0.17321  0.62957  0.05989  1.0000
  H   H137      1.0  0.20013  0.72182  0.11514  1.0000
  H   H138      1.0  0.20128  0.71750  0.16671  1.0000
  H   H139      1.0  0.22278  0.76818  0.17322  1.0000
  H   H140      1.0  0.22650  0.71375  0.21233  1.0000
  H   H141      1.0  0.16801  0.61204  0.00525  1.0000
  H   H142      1.0  0.04055  0.52493  0.42845  1.0000
  C   C182      1.0  0.10419  0.56092  0.29353  1.0000
  H   H143      1.0  0.99631  0.58973  0.43821  1.0000
  H   H144      1.0  0.21205  0.71851  0.26180  1.0000
  H   H145      1.0  0.19212  0.69375  0.28238  1.0000
  H   H146      1.0  0.16646  0.68257  0.25988  1.0000
  H   H147      1.0  0.16048  0.69664  0.21745  1.0000
  H   H148      1.0  0.17983  0.72180  0.19742  1.0000
  H   H149      1.0  0.19195  0.75938  0.20084  1.0000
  H   H150      1.0  0.18647  0.78090  0.22684  1.0000
  H   H151      1.0  0.19943  0.78913  0.27174  1.0000
  H   H152      1.0  0.21783  0.77557  0.29081  1.0000
  H   H153      1.0  0.23710  0.52187  0.26273  1.0000
  C   C183      1.0  0.06517  0.55334  0.28444  1.0000
  H   H154      1.0  0.23481  0.53325  0.01791  1.0000
  C   C184      1.0  0.23627  0.54979  0.08171  1.0000
  C   C185      1.0  0.21252  0.58132  0.04367  1.0000
  H   H155      1.0  0.08801  0.56623  0.08265  1.0000
  H   H156      1.0  0.19522  0.54523  0.07924  1.0000
  C   C186      1.0  0.15229  0.54185  0.01628  1.0000
  H   H157      1.0  0.11394  0.54891  0.32525  1.0000
  H   H158      1.0  0.02148  0.53988  0.38635  1.0000
  C   C187      1.0  0.04458  0.51749  0.44324  1.0000
  C   C188      1.0  0.08758  0.52204  0.17604  1.0000
  C   C189      1.0  0.09701  0.57061  0.47913  1.0000
  H   H159      1.0  0.10004  0.57970  0.46175  1.0000
  C   C190      1.0  0.00796  0.59516  0.44617  1.0000
  C   C191      1.0  0.10544  0.51691  0.21000  1.0000
  H   H160      1.0  0.07587  0.51975  0.16811  1.0000
  H   H161      1.0  0.09410  0.65302  0.48407  1.0000
  H   H162      1.0  0.12727  0.57916  0.15108  1.0000
  H   H163      1.0  0.08738  0.58708  0.19567  1.0000
  C   C192      1.0  0.03814  0.60918  0.46622  1.0000
  H   H164      1.0  0.04338  0.56287  0.39997  1.0000
  C   C193      1.0  0.00429  0.57075  0.36537  1.0000
  C   C194      1.0  0.08913  0.62769  0.48167  1.0000
  H   H165      1.0  0.17703  0.58908  0.01851  1.0000
  H   H166      1.0  0.01944  0.60223  0.40443  1.0000
  H   H167      1.0  0.15619  0.54890  0.03435  1.0000
  C   C195      1.0  0.23575  0.72470  0.21615  1.0000
  C   C196      1.0  0.03156  0.56507  0.43982  1.0000
  H   H168      1.0  0.20859  0.71833  0.99251  1.0000
  H   H169      1.0  0.09259  0.55133  0.45140  1.0000
  C   C197      1.0  0.21488  0.61484  0.35952  1.0000
  C   C198      1.0  0.23597  0.71970  0.07983  1.0000
  H   H170      1.0  0.17989  0.54075  0.03671  1.0000
  H   H171      1.0  0.07431  0.50501  0.33640  1.0000
  C   C199      1.0  0.20354  0.57897  0.01963  1.0000
  H   H172      1.0  0.12195  0.50977  0.99838  1.0000
  C   C200      1.0  0.15575  0.59376  0.26219  1.0000
  C   C201      1.0  0.16472  0.59293  0.23758  1.0000
  C   C202      1.0  0.17934  0.60470  0.23073  1.0000
  C   C203      1.0  0.18501  0.61729  0.24842  1.0000
  C   C204      1.0  0.17614  0.61815  0.27332  1.0000
  C   C205      1.0  0.16151  0.60622  0.28017  1.0000
  P   P5        1.0  0.18451  0.63322  0.29797  1.0000
  C   C206      1.0  0.16857  0.63717  0.31845  1.0000
  C   C207      1.0  0.19633  0.62587  0.32201  1.0000
  C   C208      1.0  0.20006  0.63291  0.34800  1.0000
  C   C209      1.0  0.20926  0.62738  0.36669  1.0000
  H   H173      1.0  0.01905  0.49936  0.23164  1.0000
  C   C210      1.0  0.21131  0.60785  0.33362  1.0000
  C   C211      1.0  0.20209  0.61334  0.31488  1.0000
  C   C212      1.0  0.16291  0.64981  0.31034  1.0000
  C   C213      1.0  0.15040  0.65247  0.32624  1.0000
  C   C214      1.0  0.14342  0.64258  0.35027  1.0000
  C   C215      1.0  0.14900  0.63003  0.35858  1.0000
  C   C216      1.0  0.16146  0.62728  0.34270  1.0000
  C   C217      1.0  0.19696  0.65113  0.27826  1.0000
  C   C218      1.0  0.19125  0.65719  0.25446  1.0000
  C   C219      1.0  0.20090  0.67077  0.23867  1.0000
  C   C220      1.0  0.21655  0.67806  0.24577  1.0000
  C   C221      1.0  0.22239  0.67211  0.26934  1.0000
  C   C222      1.0  0.21263  0.65875  0.28565  1.0000
  H   H174      1.0  0.14447  0.58460  0.26763  1.0000
  H   H175      1.0  0.16051  0.58305  0.22402  1.0000
  H   H176      1.0  0.18644  0.60393  0.21190  1.0000
  H   H177      1.0  0.19650  0.62611  0.24289  1.0000
  H   H178      1.0  0.15454  0.60642  0.29941  1.0000
  H   H179      1.0  0.19588  0.64272  0.35377  1.0000
  C   C223      1.0  0.14091  0.63288  0.99718  1.0000
  C   C224      1.0  0.09758  0.58281  0.19588  1.0000
  C   C225      1.0  0.16149  0.54518  0.99044  1.0000
  H   H180      1.0  0.19956  0.60777  0.29490  1.0000
  H   H181      1.0  0.16778  0.65745  0.29154  1.0000
  H   H182      1.0  0.14570  0.66189  0.31941  1.0000
  H   H183      1.0  0.13344  0.64444  0.36208  1.0000
  H   H184      1.0  0.14350  0.62232  0.37716  1.0000
  H   H185      1.0  0.16540  0.61730  0.34923  1.0000
  H   H186      1.0  0.17939  0.65136  0.24787  1.0000
  H   H187      1.0  0.19628  0.67544  0.22051  1.0000
  H   H188      1.0  0.22423  0.68812  0.23269  1.0000
  C   C226      1.0  0.13811  0.52905  0.01921  1.0000
  H   H189      1.0  0.21752  0.65428  0.30357  1.0000
  C   C227      1.0  0.11826  0.52841  0.19532  1.0000
  C   C228      1.0  0.11580  0.53658  0.17086  1.0000
  C   C229      1.0  0.10045  0.53359  0.16147  1.0000
  H   H190      1.0  0.08402  0.60219  0.48684  1.0000
  H   H191      1.0  0.21572  0.59816  0.32800  1.0000
  H   H192      1.0  0.01155  0.54202  0.31080  1.0000
  C   C230      1.0  0.05906  0.52384  0.45585  1.0000
  H   H193      1.0  0.21063  0.74917  0.09214  1.0000
  C   C231      1.0  0.23391  0.53377  0.04071  1.0000
  H   H194      1.0  0.03255  0.52431  0.26495  1.0000
  H   H195      1.0  0.04568  0.53422  0.21712  1.0000
  C   C232      1.0  0.04380  0.53388  0.26280  1.0000
  H   H196      1.0  0.23062  0.53669  0.12250  1.0000
  C   C233      1.0  0.13266  0.52000  0.99600  1.0000
  H   H197      1.0  0.22203  0.61057  0.37401  1.0000
  C   C234      1.0  0.12006  0.57844  0.17054  1.0000
  P   P6        1.0  0.09038  0.57632  0.25422  1.0000
  C   C235      1.0  0.10674  0.58370  0.17060  1.0000
  S   S41       1.0  0.17029  0.51148  0.07743  1.0000
  C   C236      1.0  0.00992  0.59531  0.47540  1.0000
  H   H198      1.0  0.13023  0.53069  0.20244  1.0000
  H   H199      1.0  0.12587  0.54516  0.15911  1.0000
  H   H200      1.0  0.09863  0.54004  0.14257  1.0000
  C   C237      1.0  0.05080  0.54079  0.28701  1.0000
  C   C238      1.0  0.21709  0.76038  0.13142  1.0000
  H   H201      1.0  0.06206  0.58302  0.27907  1.0000
  C   C239      1.0  0.10175  0.57670  0.22133  1.0000
  H   H202      1.0  0.12597  0.59977  0.32962  1.0000
  H   H203      1.0  0.09860  0.63390  0.23461  1.0000
  H   H204      1.0  0.04497  0.53656  0.30780  1.0000
  H   H205      1.0  0.07769  0.52499  0.25103  1.0000
  H   H206      1.0  0.07708  0.52810  0.30315  1.0000
  C   C240      1.0  0.07006  0.59388  0.26869  1.0000
  C   C241      1.0  0.11510  0.57137  0.22098  1.0000
  C   C242      1.0  0.07271  0.55903  0.25752  1.0000
  C   C243      1.0  0.06558  0.55202  0.23326  1.0000
  C   C244      1.0  0.12120  0.57428  0.32977  1.0000
  C   C245      1.0  0.14183  0.62399  0.04638  1.0000
  C   C246      1.0  0.14741  0.64004  0.05334  1.0000
  P   P7        1.0  0.14070  0.60825  0.07299  1.0000
  C   C247      1.0  0.15988  0.60516  0.07351  1.0000
  C   C248      1.0  0.13580  0.61446  0.10728  1.0000
  C   C249      1.0  0.14434  0.61270  0.13089  1.0000
  C   C250      1.0  0.14149  0.61870  0.15682  1.0000
  C   C251      1.0  0.13001  0.62642  0.15944  1.0000
  C   C252      1.0  0.12123  0.62800  0.13619  1.0000
  C   C253      1.0  0.12411  0.62207  0.11018  1.0000
  C   C254      1.0  0.16109  0.59027  0.08282  1.0000
  C   C255      1.0  0.17602  0.58814  0.08421  1.0000
  C   C256      1.0  0.18980  0.60091  0.07683  1.0000
  C   C257      1.0  0.18869  0.61574  0.06774  1.0000
  C   C258      1.0  0.17379  0.61788  0.06613  1.0000
  C   C259      1.0  0.12605  0.58984  0.06447  1.0000
  C   C260      1.0  0.11082  0.58464  0.07836  1.0000
  C   C261      1.0  0.09976  0.57017  0.07194  1.0000
  C   C262      1.0  0.10382  0.56082  0.05167  1.0000
  C   C263      1.0  0.11893  0.56593  0.03770  1.0000
  C   C264      1.0  0.12999  0.58039  0.04401  1.0000
  H   H207      1.0  0.07022  0.55878  0.30349  1.0000
  H   H208      1.0  0.15070  0.64317  0.07468  1.0000
  H   H209      1.0  0.15352  0.60710  0.12913  1.0000
  H   H210      1.0  0.14851  0.61775  0.17471  1.0000
  H   H211      1.0  0.12820  0.63149  0.17935  1.0000
  H   H212      1.0  0.11253  0.63425  0.13815  1.0000
  H   H213      1.0  0.11756  0.62382  0.09212  1.0000
  H   H214      1.0  0.15060  0.58043  0.08981  1.0000
  H   H215      1.0  0.17699  0.57680  0.09221  1.0000
  H   H216      1.0  0.20139  0.59963  0.07974  1.0000
  H   H217      1.0  0.07319  0.63318  0.25950  1.0000
  C   C265      1.0  0.13866  0.62051  0.01806  1.0000
  H   H218      1.0  0.10744  0.59168  0.09410  1.0000
  H   H219      1.0  0.10767  0.51025  0.22835  1.0000
  H   H220      1.0  0.10988  0.60086  0.28896  1.0000
  C   C266      1.0  0.09260  0.55447  0.47334  1.0000
  H   H221      1.0  0.14164  0.58417  0.03294  1.0000
  C   C267      1.0  0.02102  0.60212  0.42705  1.0000
  C   C268      1.0  0.11329  0.56028  0.31679  1.0000
  C   C269      1.0  0.12116  0.51590  0.42092  1.0000
  H   H222      1.0  0.09828  0.55004  0.28351  1.0000
  H   H223      1.0  0.15404  0.66468  0.03792  1.0000
  H   H224      1.0  0.12980  0.51438  0.40527  1.0000
  C   C270      1.0  0.10272  0.57554  0.28341  1.0000
  C   C271      1.0  0.09476  0.60873  0.24242  1.0000
  C   C272      1.0  0.18866  0.55228  0.03854  1.0000
  C   C273      1.0  0.07434  0.50358  0.31377  1.0000
  H   H225      1.0  0.07077  0.50535  0.39448  1.0000
  H   H226      1.0  0.12211  0.55870  0.02194  1.0000
  H   H227      1.0  0.00209  0.57900  0.38001  1.0000
  H   H228      1.0  0.99938  0.51102  0.46584  1.0000
  C   C274      1.0  0.02064  0.54489  0.40670  1.0000
  C   C275      1.0  0.21997  0.50050  0.00836  1.0000
  C   C276      1.0  0.10600  0.50463  0.42437  1.0000
  C   C277      1.0  0.07617  0.62226  0.25765  1.0000
  H   H229      1.0  0.18354  0.69163  0.00296  1.0000
  C   C278      1.0  0.19751  0.55474  0.06271  1.0000
  C   C279      1.0  0.03565  0.50146  0.44877  1.0000
  H   H230      1.0  0.20612  0.58840  0.00296  1.0000
  H   H231      1.0  0.04626  0.61432  0.42208  1.0000
  C   C280      1.0  0.05120  0.53946  0.23593  1.0000
  H   H232      1.0  0.01659  0.56508  0.47667  1.0000
  H   H233      1.0  0.12777  0.57370  0.34842  1.0000
  H   H234      1.0  0.21576  0.57136  0.08464  1.0000
  C   C281      1.0  0.05473  0.49671  0.20615  1.0000
  H   H235      1.0  0.04089  0.57567  0.44508  1.0000
  H   H236      1.0  0.13480  0.60835  0.01179  1.0000
  C   C282      1.0  0.00687  0.53886  0.42444  1.0000
  C   C283      1.0  0.09003  0.51343  0.20018  1.0000
  H   H237      1.0  0.13154  0.52593  0.03963  1.0000
  C   C284      1.0  0.16764  0.60303  0.99022  1.0000
  H   H238      1.0  0.23320  0.72482  0.14371  1.0000
  C   C285      1.0  0.00553  0.54548  0.45062  1.0000
  C   C286      1.0  0.11406  0.53090  0.45812  1.0000
  C   C287      1.0  0.09865  0.51982  0.46122  1.0000
  C   C288      1.0  0.06482  0.51413  0.47397  1.0000
  C   C289      1.0  0.23140  0.51730  0.17751  1.0000
  H   H239      1.0  0.06590  0.53616  0.45046  1.0000
  C   C290      1.0  0.09480  0.50658  0.44441  1.0000
  C   C291      1.0  0.00952  0.54988  0.32639  1.0000
  C   C292      1.0  0.23059  0.50455  0.16044  1.0000
  C   C293      1.0  0.22828  0.52101  0.08815  1.0000
  C   C294      1.0  0.22307  0.73250  0.04666  1.0000
  H   H240      1.0  0.12242  0.49452  0.26629  1.0000
  C   C295      1.0  0.05586  0.49793  0.47898  1.0000
  C   C296      1.0  0.23242  0.73920  0.21643  1.0000
  H   H241      1.0  0.23223  0.71064  0.00361  1.0000
  C   C297      1.0  0.99789  0.49715  0.38945  1.0000
  H   H242      1.0  0.22342  0.75400  0.26515  1.0000
  H   H243      1.0  0.23458  0.67771  0.27468  1.0000
  P   P8        1.0  0.22638  0.50040  0.04438  1.0000
  C   C298      1.0  0.23725  0.54872  0.05226  1.0000
  H   H244      1.0  0.22202  0.77227  0.12132  1.0000
  H   H245      1.0  0.21206  0.63283  0.38675  1.0000
  C   C299      1.0  0.14626  0.64877  0.00439  1.0000
  C   C300      1.0  0.18929  0.65010  0.00030  1.0000
  H   H246      1.0  0.02473  0.49645  0.43823  1.0000
  C   C301      1.0  0.17300  0.59014  0.99742  1.0000
  H   H247      1.0  0.21991  0.50008  0.23633  1.0000
  C   C302      1.0  0.23133  0.49952  0.24283  1.0000
  S   S42       1.0  0.04135  0.50025  0.36608  1.0000
  P   P9        1.0  0.07410  0.49713  0.21749  1.0000
  H   H248      1.0  0.23901  0.56134  0.09074  1.0000
  C   C303      1.0  0.02793  0.49769  0.21667  1.0000
  H   H249      1.0  0.21916  0.49729  0.15385  1.0000
  H   H250      1.0  0.19036  0.63825  0.99991  1.0000
  C   C304      1.0  0.04323  0.49917  0.22524  1.0000
  H   H251      1.0  0.08313  0.49774  0.44662  1.0000
  H   H252      1.0  0.04587  0.50196  0.24690  1.0000
  H   H253      1.0  0.23798  0.75399  0.02419  1.0000
  H   H254      1.0  0.19617  0.50056  0.07053  1.0000
  C   C305      1.0  0.07469  0.49968  0.25516  1.0000
  H   H255      1.0  0.14844  0.65833  0.98804  1.0000
  Fe  Fe23      1.0  0.06697  0.58719  0.65951  1.0000
  S   S43       1.0  0.07308  0.58530  0.61349  1.0000
  S   S44       1.0  0.04237  0.57436  0.68134  1.0000
  Fe  Fe24      1.0  0.10261  0.60387  0.67340  1.0000
  S   S45       1.0  0.11084  0.60303  0.62762  1.0000
  S   S46       1.0  0.12239  0.61013  0.70611  1.0000
  Fe  Fe25      1.0  0.08968  0.61015  0.61523  1.0000
  S   S47       1.0  0.09145  0.62866  0.57927  1.0000
  Fe  Fe26      1.0  0.09361  0.57828  0.62895  1.0000
  S   S48       1.0  0.10034  0.55780  0.61171  1.0000
  S   S49       1.0  0.08238  0.61301  0.66095  1.0000
  S   S50       1.0  0.08657  0.57826  0.67494  1.0000
  H   H256      1.0  0.21685  0.57845  0.90111  1.0000
  H   H257      1.0  0.01844  0.55884  0.74537  1.0000
  S   S51       1.0  0.16463  0.51151  0.84368  1.0000
  H   H258      1.0  0.99243  0.56070  0.76216  1.0000
  H   H259      1.0  0.21288  0.70603  0.90612  1.0000
  S   S52       1.0  0.17215  0.51158  0.91252  1.0000
  C   C306      1.0  0.16179  0.59314  0.94360  1.0000
  Fe  Fe27      1.0  0.15921  0.52301  0.88276  1.0000
  S   S53       1.0  0.15543  0.54683  0.88646  1.0000
  C   C307      1.0  0.02723  0.55843  0.78745  1.0000
  C   C308      1.0  0.23952  0.68854  0.71914  1.0000
  S   S54       1.0  0.13565  0.50438  0.89298  1.0000
  H   H260      1.0  0.04932  0.61451  0.56921  1.0000
  Fe  Fe28      1.0  0.18549  0.65184  0.89894  1.0000
  S   S55       1.0  0.20964  0.65143  0.88450  1.0000
  S   S56       1.0  0.17921  0.64532  0.94626  1.0000
  Fe  Fe29      1.0  0.17624  0.65439  0.83632  1.0000
  S   S57       1.0  0.20067  0.65514  0.81915  1.0000
  S   S58       1.0  0.15496  0.65311  0.80838  1.0000
  Fe  Fe30      1.0  0.19778  0.63500  0.85177  1.0000
  S   S59       1.0  0.20515  0.61319  0.84260  1.0000
  Fe  Fe31      1.0  0.21047  0.67191  0.85391  1.0000
  H   H261      1.0  0.23779  0.72232  0.76391  1.0000
  S   S60       1.0  0.17335  0.63387  0.86807  1.0000
  S   S61       1.0  0.18621  0.67278  0.86922  1.0000
  P   P10       1.0  0.04612  0.55675  0.77468  1.0000
  C   C309      1.0  0.07270  0.51317  0.70466  1.0000
  C   C310      1.0  0.04809  0.58447  0.51624  1.0000
  H   H262      1.0  0.22463  0.65542  0.74518  1.0000
  H   H263      1.0  0.08697  0.53841  0.54165  1.0000
  H   H264      1.0  0.00194  0.57492  0.61266  1.0000
  H   H265      1.0  0.22007  0.64421  0.94265  1.0000
  H   H266      1.0  0.18090  0.67803  0.95760  1.0000
  C   C311      1.0  0.05617  0.57414  0.52581  1.0000
  H   H267      1.0  0.06535  0.64142  0.58074  1.0000
  C   C312      1.0  0.16951  0.56476  0.87306  1.0000
  C   C313      1.0  0.18503  0.56575  0.86389  1.0000
  C   C314      1.0  0.19593  0.58063  0.85414  1.0000
  C   C315      1.0  0.19132  0.59447  0.85376  1.0000
  C   C316      1.0  0.17570  0.59323  0.86239  1.0000
  C   C317      1.0  0.16487  0.57848  0.87205  1.0000
  H   H268      1.0  0.18866  0.55514  0.86459  1.0000
  H   H269      1.0  0.20797  0.58147  0.84721  1.0000
  H   H270      1.0  0.17186  0.60358  0.86135  1.0000
  H   H271      1.0  0.15281  0.57769  0.87875  1.0000
  C   C318      1.0  0.08583  0.51042  0.52003  1.0000
  C   C319      1.0  0.99139  0.53904  0.56958  1.0000
  C   C320      1.0  0.13119  0.62228  0.73456  1.0000
  C   C321      1.0  0.14497  0.62040  0.74615  1.0000
  C   C322      1.0  0.15234  0.62954  0.76870  1.0000
  C   C323      1.0  0.14610  0.64089  0.78005  1.0000
  C   C324      1.0  0.13232  0.64275  0.76847  1.0000
  C   C325      1.0  0.12492  0.63356  0.74602  1.0000
  H   H272      1.0  0.15010  0.61189  0.73738  1.0000
  H   H273      1.0  0.16292  0.62791  0.77715  1.0000
  H   H274      1.0  0.12734  0.65147  0.77684  1.0000
  H   H275      1.0  0.11446  0.63536  0.73742  1.0000
  C   C326      1.0  0.08446  0.54013  0.61832  1.0000
  C   C327      1.0  0.06899  0.54079  0.62251  1.0000
  C   C328      1.0  0.05631  0.52676  0.62872  1.0000
  C   C329      1.0  0.05909  0.51209  0.63176  1.0000
  C   C330      1.0  0.07459  0.51139  0.62784  1.0000
  C   C331      1.0  0.08725  0.52539  0.62040  1.0000
  H   H276      1.0  0.06675  0.55209  0.62107  1.0000
  H   H277      1.0  0.04434  0.52737  0.63194  1.0000
  C   C332      1.0  0.13328  0.51835  0.72888  1.0000
  H   H278      1.0  0.09924  0.52485  0.61731  1.0000
  C   C333      1.0  0.09035  0.62729  0.54180  1.0000
  C   C334      1.0  0.09280  0.64158  0.52558  1.0000
  C   C335      1.0  0.04535  0.53067  0.52728  1.0000
  C   C336      1.0  0.01149  0.55428  0.68033  1.0000
  C   C337      1.0  0.08705  0.61295  0.52778  1.0000
  H   H279      1.0  0.09529  0.65269  0.53600  1.0000
  H   H280      1.0  0.08498  0.60183  0.54014  1.0000
  C   C338      1.0  0.16941  0.56365  0.79949  1.0000
  C   C339      1.0  0.17806  0.57833  0.78579  1.0000
  C   C340      1.0  0.17045  0.58958  0.77922  1.0000
  C   C341      1.0  0.15423  0.58618  0.78649  1.0000
  C   C342      1.0  0.14550  0.57162  0.80098  1.0000
  C   C343      1.0  0.15324  0.56031  0.80722  1.0000
  P   P11       1.0  0.12463  0.56772  0.81132  1.0000
  C   C344      1.0  0.11310  0.56161  0.78068  1.0000
  C   C345      1.0  0.11876  0.55284  0.84072  1.0000
  C   C346      1.0  0.11663  0.53670  0.83620  1.0000
  C   C347      1.0  0.11245  0.52523  0.85892  1.0000
  C   C348      1.0  0.11065  0.52981  0.88648  1.0000
  C   C349      1.0  0.11291  0.54584  0.89127  1.0000
  C   C350      1.0  0.11693  0.55733  0.86851  1.0000
  C   C351      1.0  0.09953  0.54798  0.78211  1.0000
  C   C352      1.0  0.09041  0.54399  0.75846  1.0000
  C   C353      1.0  0.09456  0.55367  0.73340  1.0000
  C   C354      1.0  0.10763  0.56753  0.73219  1.0000
  C   C355      1.0  0.11688  0.57149  0.75561  1.0000
  C   C356      1.0  0.12179  0.58619  0.82152  1.0000
  C   C357      1.0  0.10793  0.58970  0.81469  1.0000
  C   C358      1.0  0.10643  0.60468  0.81956  1.0000
  C   C359      1.0  0.11865  0.61615  0.83181  1.0000
  C   C360      1.0  0.13219  0.61253  0.83970  1.0000
  C   C361      1.0  0.13376  0.59759  0.83475  1.0000
  H   H281      1.0  0.17541  0.55508  0.80524  1.0000
  H   H282      1.0  0.19074  0.58116  0.78096  1.0000
  H   H283      1.0  0.17722  0.60111  0.76914  1.0000
  H   H284      1.0  0.14866  0.59518  0.78168  1.0000
  H   H285      1.0  0.14715  0.54917  0.81901  1.0000
  H   H286      1.0  0.11851  0.53298  0.81517  1.0000
  H   H287      1.0  0.11113  0.51285  0.85524  1.0000
  H   H288      1.0  0.10802  0.52099  0.90420  1.0000
  H   H289      1.0  0.11206  0.54944  0.91275  1.0000
  H   H290      1.0  0.11903  0.56972  0.87283  1.0000
  H   H291      1.0  0.09568  0.54056  0.80142  1.0000
  H   H292      1.0  0.07998  0.53349  0.75960  1.0000
  H   H293      1.0  0.08750  0.55064  0.71505  1.0000
  H   H294      1.0  0.11059  0.57536  0.71312  1.0000
  H   H295      1.0  0.12675  0.58249  0.75412  1.0000
  H   H296      1.0  0.09847  0.58106  0.80489  1.0000
  H   H297      1.0  0.09603  0.60758  0.81311  1.0000
  H   H298      1.0  0.11786  0.62800  0.83464  1.0000
  H   H299      1.0  0.14172  0.62160  0.84869  1.0000
  H   H300      1.0  0.14456  0.59520  0.84034  1.0000
  C   C362      1.0  0.05882  0.65320  0.54460  1.0000
  H   H301      1.0  0.06627  0.66496  0.54950  1.0000
  H   H302      1.0  0.03353  0.63479  0.49554  1.0000
  C   C363      1.0  0.14593  0.57203  0.70610  1.0000
  C   C364      1.0  0.00432  0.61059  0.55601  1.0000
  H   H303      1.0  0.99224  0.53944  0.59241  1.0000
  H   H304      1.0  0.23633  0.69812  0.91678  1.0000
  H   H305      1.0  0.15973  0.50639  0.78367  1.0000
  H   H306      1.0  0.21542  0.52305  0.85374  1.0000
  C   C365      1.0  0.21811  0.50067  0.86818  1.0000
  H   H307      1.0  0.07812  0.53485  0.86216  1.0000
  C   C366      1.0  0.04240  0.57119  0.57203  1.0000
  C   C367      1.0  0.12848  0.54565  0.69592  1.0000
  H   H308      1.0  0.14443  0.59174  0.67897  1.0000
  C   C368      1.0  0.00394  0.54141  0.52231  1.0000
  H   H309      1.0  0.04043  0.56632  0.59388  1.0000
  C   C369      1.0  0.21719  0.70721  0.92734  1.0000
  C   C370      1.0  0.18887  0.68014  0.76279  1.0000
  H   H310      1.0  0.02639  0.58476  0.57748  1.0000
  C   C371      1.0  0.00877  0.59844  0.54322  1.0000
  C   C372      1.0  0.04921  0.62461  0.55549  1.0000
  H   H311      1.0  0.00911  0.50567  0.51299  1.0000
  C   C373      1.0  0.02361  0.56696  0.66600  1.0000
  C   C374      1.0  0.07859  0.50123  0.74800  1.0000
  H   H312      1.0  0.01468  0.54355  0.50903  1.0000
  H   H313      1.0  0.01578  0.50790  0.72902  1.0000
  H   H314      1.0  0.00819  0.51891  0.60359  1.0000
  H   H315      1.0  0.12453  0.57458  0.64907  1.0000
  C   C375      1.0  0.02928  0.52895  0.74933  1.0000
  C   C376      1.0  0.02012  0.57412  0.64120  1.0000
  C   C377      1.0  0.05831  0.63992  0.56221  1.0000
  C   C378      1.0  0.10030  0.51742  0.71545  1.0000
  H   H316      1.0  0.18931  0.53433  0.97228  1.0000
  C   C379      1.0  0.22831  0.70981  0.98216  1.0000
  C   C380      1.0  0.00460  0.56895  0.63134  1.0000
  C   C381      1.0  0.19262  0.55887  0.95819  1.0000
  C   C382      1.0  0.01916  0.51129  0.52525  1.0000
  C   C383      1.0  0.12303  0.55272  0.67292  1.0000
  H   H317      1.0  0.12482  0.52907  0.76397  1.0000
  C   C384      1.0  0.14016  0.55551  0.71228  1.0000
  H   H318      1.0  0.08071  0.57105  0.76993  1.0000
  P   P12       1.0  0.02775  0.60289  0.52343  1.0000
  H   H319      1.0  0.22487  0.70243  0.80514  1.0000
  C   C385      1.0  0.20936  0.71295  0.94858  1.0000
  H   H320      1.0  0.14499  0.55066  0.72978  1.0000
  H   H321      1.0  0.13892  0.63024  0.97518  1.0000
  H   H322      1.0  0.19783  0.70174  0.82118  1.0000
  C   C386      1.0  0.11283  0.49764  0.67073  1.0000
  H   H323      1.0  0.13888  0.53386  0.64726  1.0000
  H   H324      1.0  0.14453  0.50666  0.69891  1.0000
  C   C387      1.0  0.10048  0.50848  0.52638  1.0000
  C   C388      1.0  0.04992  0.65125  0.52053  1.0000
  P   P13       1.0  0.23719  0.68911  0.75713  1.0000
  H   H325      1.0  0.05038  0.66155  0.50681  1.0000
  H   H326      1.0  0.02921  0.58410  0.63033  1.0000
  P   P14       1.0  0.12116  0.52414  0.70325  1.0000
  C   C389      1.0  0.16201  0.60449  0.96336  1.0000
  C   C390      1.0  0.99600  0.54902  0.67035  1.0000
  H   H327      1.0  0.05513  0.54034  0.67873  1.0000
  C   C391      1.0  0.09409  0.56334  0.52955  1.0000
  H   H328      1.0  0.05821  0.61031  0.72538  1.0000
  C   C392      1.0  0.09212  0.64176  0.49600  1.0000
  C   C393      1.0  0.00320  0.50841  0.61778  1.0000
  C   C394      1.0  0.04225  0.54313  0.74648  1.0000
  C   C395      1.0  0.99758  0.56068  0.80641  1.0000
  C   C396      1.0  0.13269  0.52253  0.75720  1.0000
  C   C397      1.0  0.05348  0.56766  0.55379  1.0000
  C   C398      1.0  0.23052  0.70272  0.93347  1.0000
  C   C399      1.0  0.15252  0.50992  0.76839  1.0000
  C   C400      1.0  0.20546  0.54161  0.93537  1.0000
  H   H329      1.0  0.16917  0.50515  0.97486  1.0000
  C   C401      1.0  0.03518  0.52280  0.70143  1.0000
  C   C402      1.0  0.08578  0.59444  0.75011  1.0000
  C   C403      1.0  0.07268  0.50426  0.53960  1.0000
  C   C404      1.0  0.08897  0.52001  0.69756  1.0000
  P   P15       1.0  0.17959  0.56190  0.98627  1.0000
  H   H330      1.0  0.10308  0.50438  0.75398  1.0000
  H   H331      1.0  0.13711  0.51677  0.95186  1.0000
  H   H332      1.0  0.04907  0.52505  0.79061  1.0000
  C   C405      1.0  0.06331  0.52823  0.82674  1.0000
  C   C406      1.0  0.03437  0.58160  0.56259  1.0000
  C   C407      1.0  0.09491  0.50767  0.74057  1.0000
  C   C408      1.0  0.23801  0.64296  0.80542  1.0000
  C   C409      1.0  0.00111  0.56019  0.77742  1.0000
  C   C410      1.0  0.01586  0.55907  0.76797  1.0000
  H   H333      1.0  0.22421  0.63065  0.77219  1.0000
  C   C411      1.0  0.07175  0.53891  0.84588  1.0000
  H   H334      1.0  0.22476  0.66962  0.96540  1.0000
  H   H335      1.0  0.01653  0.54389  0.56083  1.0000
  H   H336      1.0  0.15473  0.57956  0.71904  1.0000
  C   C412      1.0  0.15561  0.53642  0.96695  1.0000
  H   H337      1.0  0.06494  0.57163  0.51174  1.0000
  H   H338      1.0  0.19886  0.71618  0.94391  1.0000
  C   C413      1.0  0.18543  0.65720  0.97555  1.0000
  C   C414      1.0  0.06396  0.56009  0.82273  1.0000
  H   H339      1.0  0.06309  0.51588  0.82827  1.0000
  C   C415      1.0  0.19963  0.69613  0.80194  1.0000
  H   H340      1.0  0.08747  0.61676  0.72793  1.0000
  H   H341      1.0  0.07868  0.56313  0.85862  1.0000
  H   H342      1.0  0.22667  0.71951  0.84562  1.0000
  H   H343      1.0  0.06032  0.56030  0.56165  1.0000
  C   C416      1.0  0.00506  0.54164  0.55177  1.0000
  C   C417      1.0  0.03266  0.51402  0.56915  1.0000
  C   C418      1.0  0.22377  0.51679  0.85879  1.0000
  C   C419      1.0  0.04028  0.62253  0.53127  1.0000
  C   C420      1.0  0.23434  0.69686  0.67178  1.0000
  C   C421      1.0  0.13156  0.52149  0.64724  1.0000
  C   C422      1.0  0.14022  0.57890  0.68345  1.0000
  H   H344      1.0  0.01188  0.62290  0.55349  1.0000
  H   H345      1.0  0.05605  0.53135  0.56758  1.0000
  H   H346      1.0  0.06132  0.50572  0.53540  1.0000
  C   C423      1.0  0.03709  0.58830  0.53456  1.0000
  C   C424      1.0  0.07953  0.60555  0.73744  1.0000
  H   H347      1.0  0.05541  0.53988  0.51687  1.0000
  H   H348      1.0  0.09496  0.56682  0.55136  1.0000
  C   C425      1.0  0.12184  0.51381  0.67127  1.0000
  H   H349      1.0  0.14137  0.52099  0.79893  1.0000
  C   C426      1.0  0.08953  0.54717  0.52387  1.0000
  H   H350      1.0  0.09260  0.52677  0.67750  1.0000
  H   H351      1.0  0.03211  0.55847  0.83208  1.0000
  C   C427      1.0  0.19527  0.54405  0.95688  1.0000
  C   C428      1.0  0.03210  0.52335  0.51206  1.0000
  H   H352      1.0  0.13934  0.51915  0.60426  1.0000
  H   H353      1.0  0.11452  0.54554  0.65922  1.0000
  C   C429      1.0  0.21091  0.56887  0.91679  1.0000
  H   H354      1.0  0.22532  0.70397  0.71019  1.0000
  C   C430      1.0  0.14218  0.51820  0.77691  1.0000
  H   H355      1.0  0.20575  0.67436  0.73496  1.0000
  C   C431      1.0  0.23621  0.70402  0.96088  1.0000
  C   C432      1.0  0.04053  0.63600  0.51404  1.0000
  C   C433      1.0  0.06749  0.50387  0.72993  1.0000
  C   C434      1.0  0.04564  0.52598  0.55583  1.0000
  C   C435      1.0  0.00883  0.56008  0.82597  1.0000
  H   H356      1.0  0.15767  0.59446  0.92264  1.0000
  H   H357      1.0  0.15800  0.61453  0.95767  1.0000
  H   H358      1.0  0.07684  0.50012  0.63064  1.0000
  C   C436      1.0  0.12888  0.56923  0.66676  1.0000
  H   H359      1.0  0.01406  0.54854  0.69938  1.0000
  H   H360      1.0  0.09857  0.59712  0.75057  1.0000
  H   H361      1.0  0.20719  0.53006  0.93404  1.0000
  C   C437      1.0  0.14128  0.52385  0.96980  1.0000
  H   H362      1.0  0.00252  0.52226  0.65393  1.0000
  C   C438      1.0  0.21320  0.55397  0.91522  1.0000
  C   C439      1.0  0.01929  0.50661  0.55400  1.0000
  H   H363      1.0  0.03238  0.51506  0.68384  1.0000
  C   C440      1.0  0.07208  0.55483  0.84386  1.0000
  H   H364      1.0  0.04019  0.58467  0.74579  1.0000
  C   C441      1.0  0.23067  0.64219  0.77967  1.0000
  C   C442      1.0  0.06306  0.60195  0.73618  1.0000
  C   C443      1.0  0.05531  0.53349  0.80540  1.0000
  C   C444      1.0  0.18658  0.68789  0.78700  1.0000
  C   C445      1.0  0.09791  0.57505  0.50722  1.0000
  C   C446      1.0  0.99863  0.58260  0.54712  1.0000
  C   C447      1.0  0.07561  0.57973  0.76136  1.0000
  C   C448      1.0  0.05563  0.54950  0.80312  1.0000
  C   C449      1.0  0.02362  0.55895  0.81657  1.0000
  C   C450      1.0  0.05283  0.58733  0.74792  1.0000
  C   C451      1.0  0.08880  0.54258  0.49565  1.0000
  H   H365      1.0  0.06147  0.55793  0.71789  1.0000
  H   H366      1.0  0.10173  0.58759  0.51169  1.0000
  C   C452      1.0  0.02584  0.51878  0.72690  1.0000
  C   C453      1.0  0.05904  0.57616  0.76101  1.0000
  C   C454      1.0  0.17308  0.57883  0.97744  1.0000
  C   C455      1.0  0.16717  0.58026  0.95066  1.0000
  S   S62       1.0  0.04293  0.49501  0.64110  1.0000
  H   H367      1.0  0.16683  0.57149  0.93511  1.0000
  H   H368      1.0  0.02171  0.52587  0.76870  1.0000
  C   C456      1.0  0.04807  0.53688  0.69856  1.0000
  H   H369      1.0  0.16208  0.53919  0.94640  1.0000
  H   H370      1.0  0.06434  0.57249  0.82143  1.0000
  C   C457      1.0  0.05170  0.54690  0.72104  1.0000
  H   H371      1.0  0.16122  0.49930  0.73376  1.0000
  H   H372      1.0  0.17462  0.68709  0.79463  1.0000
  H   H373      1.0  0.06412  0.51464  0.69004  1.0000
  H   H374      1.0  0.03321  0.51023  0.59110  1.0000
  C   C458      1.0  0.23889  0.67120  0.77467  1.0000
  C   C459      1.0  0.23938  0.72281  0.84758  1.0000
  C   C460      1.0  0.23098  0.65624  0.76443  1.0000
  H   H375      1.0  0.00186  0.57304  0.53762  1.0000
  S   S63       1.0  0.23539  0.69022  0.85645  1.0000
  H   H376      1.0  0.22089  0.55198  0.89829  1.0000
  C   C461      1.0  0.21746  0.68931  0.76792  1.0000
  C   C462      1.0  0.13194  0.51314  0.62284  1.0000
  C   C463      1.0  0.99985  0.51039  0.64632  1.0000
  C   C464      1.0  0.15332  0.50587  0.74024  1.0000
  C   C465      1.0  0.21498  0.69664  0.79266  1.0000
  C   C466      1.0  0.18408  0.67253  0.97636  1.0000
  C   C467      1.0  0.14373  0.51002  0.72054  1.0000
  C   C468      1.0  0.20425  0.68081  0.75327  1.0000
  H   H377      1.0  0.17862  0.67324  0.75197  1.0000
  H   H378      1.0  0.03181  0.52713  0.49004  1.0000
  C   C469      1.0  0.23191  0.65290  0.94104  1.0000
  C   C470      1.0  0.08648  0.61316  0.49766  1.0000
  H   H379      1.0  0.19915  0.58300  0.93896  1.0000
  H   H380      1.0  0.11085  0.51323  0.51185  1.0000
  C   C471      1.0  0.23464  0.66735  0.95398  1.0000
  H   H381      1.0  0.22870  0.70338  0.65811  1.0000
  C   C472      1.0  0.21492  0.71425  0.97595  1.0000
  C   C473      1.0  0.20071  0.57135  0.93823  1.0000
  C   C474      1.0  0.23238  0.69709  0.70130  1.0000
  H   H382      1.0  0.20643  0.49916  0.93070  1.0000
  C   C475      1.0  0.99241  0.55644  0.64591  1.0000
  H   H383      1.0  0.23729  0.63206  0.81768  1.0000
  C   C476      1.0  0.07412  0.49609  0.56486  1.0000
  H   H384      1.0  0.05090  0.58980  0.49487  1.0000
  C   C477      1.0  0.12288  0.49703  0.62248  1.0000
  C   C478      1.0  0.99013  0.60688  0.57289  1.0000
  Fe  Fe32      1.0  0.17566  0.49817  0.87463  1.0000
  C   C479      1.0  0.10191  0.50040  0.55176  1.0000
  H   H385      1.0  0.11322  0.49889  0.55645  1.0000
  H   H386      1.0  0.23457  0.51268  0.94007  1.0000
  H   H387      1.0  0.00606  0.56048  0.84845  1.0000
  C   C480      1.0  0.22609  0.50725  0.95769  1.0000
  H   H388      1.0  0.99959  0.59009  0.48974  1.0000
  C   C481      1.0  0.23101  0.50766  0.98556  1.0000
  H   H389      1.0  0.05484  0.49832  0.73501  1.0000
  C   C482      1.0  0.99285  0.49706  0.66496  1.0000
  C   C483      1.0  0.21019  0.49968  0.95234  1.0000
  P   P16       1.0  0.08431  0.52175  0.48804  1.0000
  H   H390      1.0  0.43739  0.00475  0.33580  1.0000
  C   C484      1.0  0.25131  0.48608  0.24370  1.0000
  Fe  Fe33      1.0  0.39185  0.44947  0.38049  1.0000
  S   S64       1.0  0.37049  0.45646  0.39512  1.0000
  S   S65       1.0  0.39323  0.42484  0.39241  1.0000
  Fe  Fe34      1.0  0.37523  0.47250  0.35469  1.0000
  H   H391      1.0  0.35440  0.46376  0.45148  1.0000
  Fe  Fe35      1.0  0.38825  0.47641  0.41537  1.0000
  H   H392      1.0  0.39441  0.49160  0.26169  1.0000
  S   S66       1.0  0.39501  0.46347  0.33825  1.0000
  S   S67       1.0  0.40924  0.46866  0.40285  1.0000
  Fe  Fe36      1.0  0.46451  0.39034  0.37384  1.0000
  S   S68       1.0  0.46431  0.36522  0.38568  1.0000
  S   S69       1.0  0.44831  0.39902  0.34606  1.0000
  H   H393      1.0  0.31385  0.40658  0.46069  1.0000
  C   C485      1.0  0.34346  0.46385  0.44216  1.0000
  H   H394      1.0  0.48759  0.24617  0.11815  1.0000
  Fe  Fe37      1.0  0.47137  0.37467  0.42878  1.0000
  C   C486      1.0  0.24957  0.48730  0.02456  1.0000
  C   C487      1.0  0.27773  0.48959  0.30342  1.0000
  S   S70       1.0  0.46919  0.39871  0.41750  1.0000
  C   C488      1.0  0.35734  0.47955  0.24591  1.0000
  C   C489      1.0  0.40773  0.01595  0.48453  1.0000
  Fe  Fe38      1.0  0.46640  0.07220  0.35949  1.0000
  S   S71       1.0  0.46465  0.04785  0.34404  1.0000
  H   H395      1.0  0.26613  0.45336  0.34029  1.0000
  Fe  Fe39      1.0  0.46701  0.06060  0.42329  1.0000
  S   S72       1.0  0.46602  0.03615  0.41083  1.0000
  S   S73       1.0  0.38555  0.48654  0.45840  1.0000
  H   H396      1.0  0.31012  0.46532  0.19323  1.0000
  Fe  Fe40      1.0  0.44728  0.03752  0.38165  1.0000
  S   S74       1.0  0.42567  0.01498  0.38806  1.0000
  C   C490      1.0  0.30395  0.47091  0.20765  1.0000
  S   S75       1.0  0.44728  0.06185  0.39547  1.0000
  H   H397      1.0  0.44294  0.44964  0.33178  1.0000
  H   H398      1.0  0.47401  0.21641  0.27192  1.0000
  C   C491      1.0  0.48311  0.42972  0.30532  1.0000
  C   C492      1.0  0.43559  0.39580  0.47954  1.0000
  C   C493      1.0  0.35407  0.48454  0.29588  1.0000
  H   H399      1.0  0.44022  0.04564  0.45664  1.0000
  S   S76       1.0  0.47166  0.09619  0.33270  1.0000
  H   H400      1.0  0.28692  0.38721  0.46813  1.0000
  C   C494      1.0  0.44625  0.46059  0.31853  1.0000
  H   H401      1.0  0.28214  0.48192  0.05396  1.0000
  H   H402      1.0  0.48945  0.15796  0.01511  1.0000
  H   H403      1.0  0.47319  0.18436  0.07306  1.0000
  C   C495      1.0  0.36062  0.41389  0.48370  1.0000
  C   C496      1.0  0.39743  0.00208  0.31989  1.0000
  H   H404      1.0  0.27056  0.46515  0.29107  1.0000
  H   H405      1.0  0.37675  0.45250  0.47678  1.0000
  C   C497      1.0  0.41673  0.03053  0.47088  1.0000
  Fe  Fe41      1.0  0.48327  0.04824  0.37496  1.0000
  H   H406      1.0  0.36177  0.47337  0.22990  1.0000
  H   H407      1.0  0.48353  0.37096  0.01483  1.0000
  C   C498      1.0  0.47744  0.43911  0.32333  1.0000
  C   C499      1.0  0.48464  0.10301  0.24679  1.0000
  C   C500      1.0  0.39029  0.99545  0.34641  1.0000
  C   C501      1.0  0.48657  0.34025  0.02616  1.0000
  H   H408      1.0  0.30337  0.44506  0.44751  1.0000
  H   H409      1.0  0.47318  0.08280  0.27653  1.0000
  C   C502      1.0  0.47533  0.17994  0.33986  1.0000
  C   C503      1.0  0.35993  0.47687  0.27478  1.0000
  C   C504      1.0  0.48439  0.22640  0.26494  1.0000
  C   C505      1.0  0.26697  0.49389  0.07313  1.0000
  C   C506      1.0  0.48271  0.24149  0.25968  1.0000
  H   H410      1.0  0.36624  0.46864  0.28074  1.0000
  C   C507      1.0  0.40997  0.41946  0.38060  1.0000
  C   C508      1.0  0.41606  0.41001  0.39869  1.0000
  C   C509      1.0  0.42842  0.40433  0.38886  1.0000
  C   C510      1.0  0.43433  0.40757  0.36052  1.0000
  C   C511      1.0  0.42830  0.41711  0.34256  1.0000
  C   C512      1.0  0.41637  0.42326  0.35267  1.0000
  H   H411      1.0  0.41098  0.40677  0.42016  1.0000
  H   H412      1.0  0.43284  0.39684  0.40277  1.0000
  H   H413      1.0  0.43269  0.41950  0.32055  1.0000
  H   H414      1.0  0.41155  0.43026  0.33844  1.0000
  C   C513      1.0  0.46751  0.43951  0.41571  1.0000
  H   H415      1.0  0.40482  0.45748  0.46512  1.0000
  H   H416      1.0  0.47065  0.04644  0.28505  1.0000
  C   C514      1.0  0.43005  0.37977  0.47325  1.0000
  C   C515      1.0  0.36410  0.41260  0.45494  1.0000
  C   C516      1.0  0.44081  0.02371  0.47750  1.0000
  C   C517      1.0  0.47416  0.18428  0.20333  1.0000
  H   H417      1.0  0.42358  0.45460  0.29966  1.0000
  C   C518      1.0  0.48426  0.45580  0.32139  1.0000
  H   H418      1.0  0.44594  0.46536  0.37595  1.0000
  H   H419      1.0  0.41094  0.03880  0.46272  1.0000
  C   C519      1.0  0.27230  0.47608  0.35932  1.0000
  Fe  Fe42      1.0  0.41096  0.48310  0.36210  1.0000
  H   H420      1.0  0.46328  0.04662  0.23520  1.0000
  H   H421      1.0  0.46821  0.18813  0.18618  1.0000
  C   C520      1.0  0.47458  0.16860  0.20537  1.0000
  H   H422      1.0  0.31620  0.46648  0.24391  1.0000
  H   H423      1.0  0.48361  0.06071  0.19711  1.0000
  H   H424      1.0  0.27023  0.47086  0.38089  1.0000
  C   C521      1.0  0.28891  0.48649  0.24464  1.0000
  H   H425      1.0  0.43335  0.44938  0.41962  1.0000
  H   H426      1.0  0.45835  0.99541  0.40205  1.0000
  H   H427      1.0  0.48218  0.20748  0.21949  1.0000
  C   C522      1.0  0.34559  0.42660  0.44239  1.0000
  S   S77       1.0  0.35612  0.48074  0.33281  1.0000
  C   C523      1.0  0.33032  0.47424  0.40572  1.0000
  H   H428      1.0  0.33983  0.43131  0.42597  1.0000
  H   H429      1.0  0.30333  0.48038  0.27649  1.0000
  H   H430      1.0  0.46951  0.32076  0.00738  1.0000
  C   C524      1.0  0.29312  0.47811  0.19742  1.0000
  C   C525      1.0  0.43533  0.46328  0.30003  1.0000
  C   C526      1.0  0.47961  0.10475  0.29777  1.0000
  H   H431      1.0  0.44705  0.43275  0.44510  1.0000
  S   S78       1.0  0.34580  0.49253  0.20077  1.0000
  C   C527      1.0  0.28583  0.48608  0.21574  1.0000
  C   C528      1.0  0.47449  0.44812  0.39043  1.0000
  H   H432      1.0  0.47586  0.39480  0.00276  1.0000
  C   C529      1.0  0.27259  0.47294  0.30858  1.0000
  H   H433      1.0  0.40241  0.43073  0.44868  1.0000
  H   H434      1.0  0.47361  0.43244  0.42700  1.0000
  H   H435      1.0  0.35564  0.48236  0.41042  1.0000
  C   C530      1.0  0.34894  0.49000  0.23759  1.0000
  H   H436      1.0  0.44209  0.40458  0.46298  1.0000
  H   H437      1.0  0.48363  0.09573  0.22870  1.0000
  H   H438      1.0  0.47769  0.41683  0.30706  1.0000
  C   C531      1.0  0.32880  0.45318  0.45291  1.0000
  C   C532      1.0  0.31483  0.45327  0.43996  1.0000
  C   C533      1.0  0.41867  0.42624  0.47811  1.0000
  C   C534      1.0  0.35644  0.41879  0.43434  1.0000
  H   H439      1.0  0.48444  0.33972  0.16163  1.0000
  H   H440      1.0  0.41745  0.41464  0.47026  1.0000
  H   H441      1.0  0.40644  0.01374  0.31830  1.0000
  H   H442      1.0  0.25489  0.47585  0.23849  1.0000
  H   H443      1.0  0.46751  0.43327  0.33836  1.0000
  H   H444      1.0  0.47714  0.19721  0.02470  1.0000
  H   H445      1.0  0.43245  0.37629  0.45220  1.0000
  C   C535      1.0  0.30736  0.47157  0.23628  1.0000
  H   H446      1.0  0.39372  0.00205  0.36521  1.0000
  C   C536      1.0  0.27000  0.46622  0.33645  1.0000
  H   H447      1.0  0.47877  0.33959  0.04477  1.0000
  C   C537      1.0  0.46134  0.47193  0.31983  1.0000
  H   H448      1.0  0.33105  0.48201  0.38693  1.0000
  H   H449      1.0  0.48727  0.12875  0.31162  1.0000
  C   C538      1.0  0.27177  0.48579  0.05160  1.0000
  C   C539      1.0  0.41004  0.43533  0.46574  1.0000
  H   H450      1.0  0.43106  0.47923  0.26787  1.0000
  C   C540      1.0  0.48120  0.32964  0.00488  1.0000
  C   C541      1.0  0.46653  0.45699  0.37520  1.0000
  C   C542      1.0  0.47953  0.05276  0.26862  1.0000
  C   C543      1.0  0.48741  0.19811  0.03692  1.0000
  P   P17       1.0  0.47569  0.46789  0.34250  1.0000
  H   H451      1.0  0.30489  0.46355  0.40605  1.0000
  C   C544      1.0  0.43958  0.47713  0.28206  1.0000
  C   C545      1.0  0.48683  0.06070  0.21901  1.0000
  C   C546      1.0  0.45199  0.45801  0.38658  1.0000
  C   C547      1.0  0.45262  0.43982  0.42604  1.0000
  C   C548      1.0  0.26316  0.48260  0.02722  1.0000
  C   C549      1.0  0.31562  0.46375  0.41640  1.0000
  H   H452      1.0  0.35916  0.41774  0.41202  1.0000
  C   C550      1.0  0.43324  0.03438  0.46739  1.0000
  H   H453      1.0  0.29075  0.47799  0.17507  1.0000
  C   C551      1.0  0.48210  0.19526  0.22249  1.0000
  C   C552      1.0  0.44493  0.44917  0.41166  1.0000
  H   H454      1.0  0.48599  0.44760  0.38257  1.0000
  H   H455      1.0  0.46873  0.16020  0.19013  1.0000
  H   H456      1.0  0.41932  0.48724  0.46079  1.0000
  C   C553      1.0  0.42436  0.99588  0.37574  1.0000
  H   H457      1.0  0.39850  0.99884  0.27502  1.0000
  C   C554      1.0  0.41134  0.45041  0.47512  1.0000
  S   S79       1.0  0.47351  0.06397  0.46957  1.0000
  S   S80       1.0  0.46004  0.36351  0.47212  1.0000
  C   C555      1.0  0.47538  0.05277  0.24042  1.0000
  C   C556      1.0  0.34419  0.47441  0.41885  1.0000
  C   C557      1.0  0.47873  0.09559  0.27402  1.0000
  H   H458      1.0  0.47112  0.24309  0.26243  1.0000
  C   C558      1.0  0.48510  0.19083  0.06437  1.0000
  C   C559      1.0  0.30000  0.47945  0.25468  1.0000
  H   H459      1.0  0.37275  0.40685  0.44848  1.0000
  C   C560      1.0  0.46568  0.48563  0.30122  1.0000
  H   H460      1.0  0.45364  0.02693  0.47422  1.0000
  S   S81       1.0  0.48585  0.07272  0.38894  1.0000
  C   C561      1.0  0.48661  0.12145  0.29362  1.0000
  H   H461      1.0  0.46620  0.16857  0.34513  1.0000
  H   H462      1.0  0.48554  0.02422  0.45598  1.0000
  H   H463      1.0  0.48704  0.36792  0.14819  1.0000
  H   H464      1.0  0.47645  0.18709  0.38296  1.0000
  H   H465      1.0  0.47750  0.49416  0.30099  1.0000
  C   C562      1.0  0.48991  0.48601  0.35290  1.0000
  H   H466      1.0  0.47636  0.17593  0.29564  1.0000
  C   C563      1.0  0.48110  0.19037  0.36117  1.0000
  H   H467      1.0  0.24373  0.49083  0.13976  1.0000
  H   H468      1.0  0.27814  0.49228  0.20711  1.0000
  H   H469      1.0  0.43995  0.99687  0.44140  1.0000
  H   H470      1.0  0.48348  0.15178  0.22770  1.0000
  C   C564      1.0  0.34243  0.42847  0.47123  1.0000
  C   C565      1.0  0.48296  0.16388  0.22656  1.0000
  C   C566      1.0  0.48125  0.18414  0.31169  1.0000
  H   H471      1.0  0.48994  0.36719  0.29733  1.0000
  C   C567      1.0  0.45100  0.99473  0.44626  1.0000
  P   P18       1.0  0.32838  0.43864  0.48138  1.0000
  C   C568      1.0  0.30500  0.40957  0.47384  1.0000
  C   C569      1.0  0.48559  0.39571  0.01644  1.0000
  C   C570      1.0  0.45481  0.48820  0.28241  1.0000
  C   C571      1.0  0.28971  0.39855  0.47796  1.0000
  C   C572      1.0  0.27711  0.49266  0.35432  1.0000
  C   C573      1.0  0.48361  0.45176  0.48227  1.0000
  H   H472      1.0  0.24274  0.48415  0.00602  1.0000
  C   C574      1.0  0.48840  0.34461  0.14011  1.0000
  C   C575      1.0  0.48604  0.42523  0.48491  1.0000
  H   H473      1.0  0.48868  0.46439  0.47639  1.0000
  S   S82       1.0  0.39166  0.49283  0.37622  1.0000
  H   H474      1.0  0.26696  0.47633  0.01052  1.0000
  C   C576      1.0  0.48998  0.36052  0.13253  1.0000
  C   C577      1.0  0.30874  0.42425  0.48663  1.0000
  H   H475      1.0  0.39489  0.01290  0.48692  1.0000
  C   C578      1.0  0.46827  0.37127  0.50416  1.0000
  S   S83       1.0  0.37619  0.48422  0.63552  1.0000
  Fe  Fe43      1.0  0.39750  0.45869  0.67721  1.0000
  S   S84       1.0  0.37187  0.44899  0.66604  1.0000
  S   S85       1.0  0.41308  0.44735  0.70184  1.0000
  Fe  Fe44      1.0  0.38082  0.46180  0.62296  1.0000
  S   S86       1.0  0.37508  0.44995  0.58103  1.0000
  Fe  Fe45      1.0  0.36960  0.47252  0.67980  1.0000
  S   S87       1.0  0.34858  0.47752  0.70320  1.0000
  S   S88       1.0  0.40642  0.46986  0.63367  1.0000
  S   S89       1.0  0.39446  0.48114  0.69423  1.0000
  Fe  Fe46      1.0  0.45470  0.38328  0.67678  1.0000
  S   S90       1.0  0.46242  0.36296  0.66041  1.0000
  S   S91       1.0  0.42947  0.38415  0.67466  1.0000
  H   H476      1.0  0.35220  0.03737  0.59416  1.0000
  C   C579      1.0  0.39597  0.01377  0.60000  1.0000
  C   C580      1.0  0.43153  0.32471  0.52718  1.0000
  C   C581      1.0  0.27804  0.40211  0.49476  1.0000
  S   S92       1.0  0.47903  0.08482  0.64870  1.0000
  S   S93       1.0  0.46972  0.38619  0.71487  1.0000
  C   C582      1.0  0.46392  0.19953  0.95083  1.0000
  H   H477      1.0  0.44252  0.46542  0.72103  1.0000
  Fe  Fe47      1.0  0.46950  0.07396  0.69266  1.0000
  H   H478      1.0  0.45991  0.47637  0.54027  1.0000
  H   H479      1.0  0.47364  0.21738  0.98020  1.0000
  Fe  Fe48      1.0  0.45788  0.06676  0.63154  1.0000
  S   S94       1.0  0.46920  0.04756  0.62702  1.0000
  S   S95       1.0  0.44533  0.07211  0.59282  1.0000
  Fe  Fe49      1.0  0.45968  0.03934  0.67165  1.0000
  S   S96       1.0  0.45040  0.01301  0.68751  1.0000
  S   S97       1.0  0.44684  0.05751  0.67574  1.0000
  C   C583      1.0  0.45250  0.06899  0.55846  1.0000
  C   C584      1.0  0.44403  0.07027  0.53437  1.0000
  H   H480      1.0  0.33229  0.43901  0.58557  1.0000
  C   C585      1.0  0.37881  0.45945  0.49535  1.0000
  C   C586      1.0  0.47232  0.06304  0.52758  1.0000
  C   C587      1.0  0.46666  0.06534  0.55481  1.0000
  H   H481      1.0  0.43305  0.07312  0.53690  1.0000
  C   C588      1.0  0.47460  0.45435  0.68316  1.0000
  H   H482      1.0  0.34724  0.42249  0.51421  1.0000
  C   C589      1.0  0.40422  0.04882  0.66174  1.0000
  C   C590      1.0  0.27057  0.48973  0.81723  1.0000
  C   C591      1.0  0.34179  0.46269  0.56582  1.0000
  C   C592      1.0  0.39589  0.01359  0.67607  1.0000
  H   H483      1.0  0.44756  0.41962  0.78428  1.0000
  C   C593      1.0  0.42087  0.45627  0.49751  1.0000
  C   C594      1.0  0.28164  0.41674  0.50739  1.0000
  C   C595      1.0  0.33361  0.44828  0.51430  1.0000
  C   C596      1.0  0.34099  0.46487  0.51461  1.0000
  C   C597      1.0  0.41125  0.06159  0.64169  1.0000
  H   H484      1.0  0.42425  0.09162  0.68632  1.0000
  H   H485      1.0  0.42168  0.47515  0.74175  1.0000
  C   C598      1.0  0.28685  0.49305  0.81084  1.0000
  H   H486      1.0  0.25160  0.40606  0.81678  1.0000
  S   S98       1.0  0.47261  0.40202  0.64882  1.0000
  C   C599      1.0  0.43189  0.00903  0.49131  1.0000
  Fe  Fe50      1.0  0.48968  0.06497  0.64628  1.0000
  H   H487      1.0  0.33107  0.02631  0.63259  1.0000
  C   C600      1.0  0.42708  0.42421  0.56812  1.0000
  H   H488      1.0  0.41034  0.06959  0.72177  1.0000
  H   H489      1.0  0.45865  0.48328  0.63848  1.0000
  H   H490      1.0  0.47063  0.32466  0.56104  1.0000
  C   C601      1.0  0.27124  0.40823  0.87764  1.0000
  C   C602      1.0  0.45922  0.36649  0.53010  1.0000
  C   C603      1.0  0.46600  0.37112  0.55613  1.0000
  H   H491      1.0  0.28272  0.45621  0.89820  1.0000
  C   C604      1.0  0.25998  0.41102  0.83262  1.0000
  H   H492      1.0  0.44700  0.35892  0.53010  1.0000
  H   H493      1.0  0.45906  0.36714  0.57596  1.0000
  C   C605      1.0  0.48670  0.05744  0.76949  1.0000
  C   C606      1.0  0.30913  0.45066  0.81384  1.0000
  H   H494      1.0  0.32915  0.46741  0.85507  1.0000
  H   H495      1.0  0.36642  0.47749  0.75427  1.0000
  C   C607      1.0  0.48962  0.35265  0.80616  1.0000
  H   H496      1.0  0.32823  0.49387  0.72753  1.0000
  C   C608      1.0  0.28191  0.42371  0.87315  1.0000
  C   C609      1.0  0.45895  0.42736  0.77520  1.0000
  H   H497      1.0  0.32449  0.42627  0.54064  1.0000
  C   C610      1.0  0.40886  0.00450  0.71462  1.0000
  C   C611      1.0  0.41821  0.43048  0.69141  1.0000
  C   C612      1.0  0.43232  0.42830  0.70057  1.0000
  C   C613      1.0  0.43616  0.41441  0.69477  1.0000
  C   C614      1.0  0.42568  0.40234  0.68035  1.0000
  C   C615      1.0  0.41168  0.40461  0.67080  1.0000
  C   C616      1.0  0.40805  0.41872  0.67597  1.0000
  H   H498      1.0  0.44025  0.43732  0.71250  1.0000
  H   H499      1.0  0.44699  0.41282  0.70220  1.0000
  H   H500      1.0  0.40353  0.39536  0.65959  1.0000
  H   H501      1.0  0.39710  0.42021  0.66899  1.0000
  C   C617      1.0  0.37908  0.46045  0.54717  1.0000
  C   C618      1.0  0.37696  0.45173  0.52267  1.0000
  H   H502      1.0  0.42530  0.01672  0.54912  1.0000
  H   H503      1.0  0.26211  0.45257  0.84903  1.0000
  H   H504      1.0  0.46103  0.29466  0.60732  1.0000
  C   C619      1.0  0.38361  0.47712  0.54407  1.0000
  H   H505      1.0  0.37382  0.43889  0.52498  1.0000
  H   H506      1.0  0.43021  0.01038  0.63910  1.0000
  H   H507      1.0  0.32148  0.43897  0.84157  1.0000
  P   P19       1.0  0.29550  0.45281  0.84180  1.0000
  H   H508      1.0  0.46349  0.42229  0.60896  1.0000
  H   H509      1.0  0.47179  0.44047  0.64652  1.0000
  H   H510      1.0  0.27158  0.40108  0.89671  1.0000
  C   C620      1.0  0.43343  0.32907  0.62641  1.0000
  C   C621      1.0  0.34499  0.47201  0.54028  1.0000
  C   C622      1.0  0.43693  0.48959  0.77156  1.0000
  C   C623      1.0  0.41524  0.00519  0.49466  1.0000
  C   C624      1.0  0.42160  0.29055  0.61809  1.0000
  H   H511      1.0  0.39433  0.47999  0.83957  1.0000
  P   P20       1.0  0.39496  0.02894  0.65032  1.0000
  C   C625      1.0  0.33587  0.49225  0.74390  1.0000
  H   H512      1.0  0.27260  0.41951  0.52042  1.0000
  H   H513      1.0  0.30700  0.48461  0.81373  1.0000
  H   H514      1.0  0.41659  0.42662  0.60915  1.0000
  C   C626      1.0  0.44235  0.27236  0.61592  1.0000
  C   C627      1.0  0.43303  0.40035  0.50703  1.0000
  H   H515      1.0  0.29055  0.42825  0.88877  1.0000
  C   C628      1.0  0.28541  0.46677  0.83085  1.0000
  H   H516      1.0  0.27047  0.43339  0.80858  1.0000
  C   C629      1.0  0.44540  0.32695  0.51011  1.0000
  C   C630      1.0  0.46084  0.47863  0.74758  1.0000
  H   H517      1.0  0.45038  0.26530  0.61488  1.0000
  C   C631      1.0  0.44054  0.42269  0.55315  1.0000
  H   H518      1.0  0.48265  0.17470  0.92357  1.0000
  C   C632      1.0  0.29692  0.42780  0.50330  1.0000
  H   H519      1.0  0.46932  0.09214  0.79537  1.0000
  C   C633      1.0  0.46859  0.01212  0.58414  1.0000
  C   C634      1.0  0.30771  0.45529  0.78547  1.0000
  H   H520      1.0  0.46147  0.04866  0.76448  1.0000
  C   C635      1.0  0.48200  0.38033  0.55651  1.0000
  C   C636      1.0  0.44598  0.32335  0.56941  1.0000
  C   C637      1.0  0.45344  0.42309  0.59753  1.0000
  C   C638      1.0  0.47292  0.03135  0.75322  1.0000
  H   H521      1.0  0.43007  0.31332  0.66427  1.0000
  H   H522      1.0  0.48832  0.02418  0.50810  1.0000
  H   H523      1.0  0.24912  0.47267  0.83614  1.0000
  H   H524      1.0  0.41331  0.36344  0.53816  1.0000
  C   C639      1.0  0.48799  0.44684  0.74974  1.0000
  C   C640      1.0  0.45296  0.00200  0.53439  1.0000
  S   S99       1.0  0.46971  0.08535  0.73616  1.0000
  H   H525      1.0  0.46399  0.42028  0.55728  1.0000
  C   C641      1.0  0.42823  0.02987  0.58675  1.0000
  C   C642      1.0  0.37080  0.03353  0.61863  1.0000
  H   H526      1.0  0.45709  0.18058  0.92201  1.0000
  H   H527      1.0  0.47023  0.32896  0.50912  1.0000
  C   C643      1.0  0.43565  0.99676  0.67355  1.0000
  H   H528      1.0  0.37995  0.03860  0.60182  1.0000
  C   C644      1.0  0.48432  0.47952  0.54938  1.0000
  H   H529      1.0  0.29953  0.43913  0.51314  1.0000
  H   H530      1.0  0.46584  0.48911  0.68739  1.0000
  H   H531      1.0  0.42460  0.08654  0.63498  1.0000
  H   H532      1.0  0.43691  0.45197  0.52722  1.0000
  C   C645      1.0  0.42205  0.36811  0.49436  1.0000
  H   H533      1.0  0.41660  0.42434  0.55720  1.0000
  C   C646      1.0  0.31798  0.45307  0.76390  1.0000
  C   C647      1.0  0.40331  0.05195  0.69058  1.0000
  H   H534      1.0  0.34400  0.47239  0.49525  1.0000
  P   P21       1.0  0.44075  0.42108  0.51520  1.0000
  C   C648      1.0  0.39622  0.49074  0.79720  1.0000
  H   H535      1.0  0.40294  0.26805  0.62600  1.0000
  C   C649      1.0  0.42959  0.44725  0.50987  1.0000
  C   C650      1.0  0.47259  0.04595  0.76297  1.0000
  C   C651      1.0  0.41851  0.07694  0.65056  1.0000
  C   C652      1.0  0.45947  0.32706  0.52249  1.0000
  C   C653      1.0  0.46738  0.47857  0.67856  1.0000
  H   H536      1.0  0.42064  0.32460  0.51746  1.0000
  C   C654      1.0  0.34322  0.02675  0.63595  1.0000
  H   H537      1.0  0.42022  0.36141  0.62159  1.0000
  C   C655      1.0  0.46423  0.06485  0.50336  1.0000
  H   H538      1.0  0.43566  0.34774  0.59367  1.0000
  H   H539      1.0  0.33994  0.43567  0.80333  1.0000
  C   C656      1.0  0.41937  0.37251  0.52174  1.0000
  C   C657      1.0  0.47217  0.42195  0.77445  1.0000
  H   H540      1.0  0.39672  0.00196  0.56121  1.0000
  C   C658      1.0  0.47653  0.34106  0.60983  1.0000
  C   C659      1.0  0.41054  0.06734  0.69940  1.0000
  C   C660      1.0  0.42755  0.32347  0.65430  1.0000
  C   C661      1.0  0.37465  0.02774  0.64460  1.0000
  C   C662      1.0  0.46416  0.48916  0.76961  1.0000
  C   C663      1.0  0.43352  0.47910  0.74969  1.0000
  H   H541      1.0  0.41440  0.32705  0.69152  1.0000
  C   C664      1.0  0.48099  0.10225  0.75475  1.0000
  C   C665      1.0  0.46638  0.18749  0.93480  1.0000
  C   C666      1.0  0.45366  0.42196  0.56812  1.0000
  H   H542      1.0  0.41149  0.05971  0.61918  1.0000
  H   H543      1.0  0.29875  0.46065  0.77979  1.0000
  H   H544      1.0  0.42136  0.46774  0.50542  1.0000
  C   C667      1.0  0.28151  0.43304  0.84851  1.0000
  C   C668      1.0  0.46296  0.99589  0.57935  1.0000
  H   H545      1.0  0.46203  0.02265  0.74730  1.0000
  H   H546      1.0  0.41823  0.35565  0.48954  1.0000
  C   C669      1.0  0.41585  0.34471  0.65782  1.0000
  C   C670      1.0  0.30500  0.46028  0.87374  1.0000
  C   C671      1.0  0.29557  0.46075  0.89817  1.0000
  C   C672      1.0  0.30268  0.46770  0.92238  1.0000
  C   C673      1.0  0.31922  0.47437  0.92227  1.0000
  C   C674      1.0  0.32867  0.47399  0.89804  1.0000
  C   C675      1.0  0.42727  0.99877  0.64999  1.0000
  H   H547      1.0  0.40937  0.35100  0.67015  1.0000
  H   H548      1.0  0.42794  0.04119  0.62582  1.0000
  H   H549      1.0  0.35113  0.48471  0.54030  1.0000
  H   H550      1.0  0.48442  0.32154  0.68050  1.0000
  C   C676      1.0  0.48670  0.43172  0.76184  1.0000
  H   H551      1.0  0.46574  0.40638  0.50258  1.0000
  H   H552      1.0  0.47423  0.34732  0.59112  1.0000
  H   H553      1.0  0.36554  0.01788  0.68703  1.0000
  C   C677      1.0  0.40342  0.01071  0.57516  1.0000
  H   H554      1.0  0.39418  0.47956  0.78702  1.0000
  C   C678      1.0  0.34761  0.48506  0.73743  1.0000
  C   C679      1.0  0.38551  0.48483  0.51675  1.0000
  C   C680      1.0  0.42697  0.42544  0.59757  1.0000
  C   C681      1.0  0.32968  0.44615  0.77037  1.0000
  C   C682      1.0  0.48080  0.18425  0.93549  1.0000
  H   H555      1.0  0.36655  0.40907  0.49972  1.0000
  C   C683      1.0  0.46110  0.42915  0.50058  1.0000
  C   C684      1.0  0.34968  0.42161  0.49184  1.0000
  C   C685      1.0  0.33434  0.44624  0.56578  1.0000
  H   H556      1.0  0.39724  0.04249  0.70633  1.0000
  C   C686      1.0  0.33090  0.44110  0.79840  1.0000
  H   H557      1.0  0.46180  0.45907  0.61738  1.0000
  C   C687      1.0  0.42191  0.35053  0.63029  1.0000
  H   H558      1.0  0.31715  0.45704  0.74212  1.0000
  C   C688      1.0  0.46796  0.32023  0.64762  1.0000
  H   H559      1.0  0.38527  0.48403  0.56272  1.0000
  C   C689      1.0  0.32053  0.44314  0.82001  1.0000
  C   C690      1.0  0.38319  0.47610  0.49224  1.0000
  H   H560      1.0  0.48343  0.06049  0.52522  1.0000
  C   C691      1.0  0.48240  0.32664  0.66026  1.0000
  C   C692      1.0  0.47482  0.45247  0.75073  1.0000
  H   H561      1.0  0.48681  0.32219  0.96390  1.0000
  H   H562      1.0  0.44000  0.42569  0.63510  1.0000
  C   C693      1.0  0.35495  0.48753  0.78657  1.0000
  C   C694      1.0  0.47046  0.41906  0.49677  1.0000
  C   C695      1.0  0.36273  0.02189  0.66650  1.0000
  C   C696      1.0  0.42482  0.38858  0.52809  1.0000
  H   H563      1.0  0.47872  0.36169  0.77184  1.0000
  C   C697      1.0  0.40457  0.02516  0.61812  1.0000
  C   C698      1.0  0.44016  0.42490  0.61225  1.0000
  C   C699      1.0  0.44989  0.06827  0.50688  1.0000
  H   H564      1.0  0.45271  0.20201  0.95038  1.0000
  C   C700      1.0  0.26168  0.47503  0.83066  1.0000
  C   C701      1.0  0.42601  0.26482  0.62122  1.0000
  C   C702      1.0  0.29427  0.48167  0.81785  1.0000
  H   H565      1.0  0.44408  0.49229  0.59957  1.0000
  Fe  Fe51      1.0  0.47917  0.36754  0.69654  1.0000
  H   H566      1.0  0.47360  0.06480  0.57285  1.0000
  C   C703      1.0  0.47275  0.46796  0.69524  1.0000
  H   H567      1.0  0.38356  0.00716  0.60518  1.0000
  Fe  Fe52      1.0  0.48131  0.38226  0.63438  1.0000
  C   C704      1.0  0.35742  0.48309  0.75881  1.0000
  H   H568      1.0  0.44968  0.44623  0.76342  1.0000
  C   C705      1.0  0.46687  0.02333  0.56381  1.0000
  C   C706      1.0  0.45897  0.01834  0.53917  1.0000
  C   C707      1.0  0.46344  0.47536  0.65062  1.0000
  H   H569      1.0  0.42136  0.25193  0.62437  1.0000
  C   C708      1.0  0.32160  0.46696  0.87389  1.0000
  C   C709      1.0  0.26909  0.46363  0.83775  1.0000
  C   C710      1.0  0.44540  0.47361  0.73783  1.0000
  C   C711      1.0  0.26024  0.40190  0.85743  1.0000
  C   C712      1.0  0.46512  0.46170  0.63887  1.0000
  C   C713      1.0  0.33014  0.43907  0.54020  1.0000
  C   C714      1.0  0.41952  0.01889  0.56842  1.0000
  C   C715      1.0  0.42084  0.03290  0.61162  1.0000
  C   C716      1.0  0.45972  0.32497  0.55200  1.0000
  H   H570      1.0  0.33788  0.44489  0.75360  1.0000
  S   S100      1.0  0.48161  0.05510  0.69077  1.0000
  C   C717      1.0  0.47587  0.20827  0.96761  1.0000
  H   H571      1.0  0.36216  0.48536  0.80320  1.0000
  H   H572      1.0  0.42276  0.39168  0.54952  1.0000
  C   C718      1.0  0.46023  0.44253  0.76336  1.0000
  H   H573      1.0  0.47130  0.03592  0.56753  1.0000
  H   H574      1.0  0.45747  0.02734  0.52428  1.0000
  C   C719      1.0  0.34704  0.02128  0.66208  1.0000
  C   C720      1.0  0.47076  0.45125  0.65516  1.0000
  H   H575      1.0  0.33786  0.01665  0.67900  1.0000
  H   H576      1.0  0.41337  0.29739  0.61849  1.0000
  C   C721      1.0  0.42878  0.43226  0.49994  1.0000
  H   H577      1.0  0.41857  0.00677  0.72873  1.0000
  C   C722      1.0  0.47799  0.10238  0.78434  1.0000
  H   H578      1.0  0.29540  0.46855  0.94089  1.0000
  H   H579      1.0  0.44073  0.03615  0.58175  1.0000
  C   C723      1.0  0.35511  0.03294  0.61429  1.0000
  C   C724      1.0  0.41831  0.07979  0.67943  1.0000
  H   H580      1.0  0.34144  0.47966  0.89754  1.0000
  C   C725      1.0  0.41563  0.27391  0.62219  1.0000
  C   C726      1.0  0.43070  0.34277  0.61462  1.0000
  C   C727      1.0  0.41870  0.33122  0.66985  1.0000
  C   C728      1.0  0.43177  0.32279  0.55671  1.0000
  H   H581      1.0  0.41737  0.02800  0.69440  1.0000
  H   H582      1.0  0.42086  0.32085  0.56961  1.0000
  H   H583      1.0  0.47405  0.01602  0.60382  1.0000
  C   C729      1.0  0.48587  0.11571  0.79983  1.0000
  C   C730      1.0  0.43804  0.29821  0.61336  1.0000
  C   C731      1.0  0.40810  0.01657  0.69511  1.0000
  H   H584      1.0  0.46120  0.45373  0.49695  1.0000
  P   P22       1.0  0.47605  0.47125  0.73233  1.0000
  C   C732      1.0  0.44836  0.28900  0.61180  1.0000
  C   C733      1.0  0.27064  0.42651  0.82807  1.0000
  H   H585      1.0  0.48136  0.46788  0.56044  1.0000
  P   P23       1.0  0.44576  0.31961  0.60735  1.0000
  C   C734      1.0  0.46500  0.32725  0.62204  1.0000
  H   H586      1.0  0.44355  0.06984  0.48847  1.0000
  H   H587      1.0  0.45897  0.31009  0.65831  1.0000
  H   H588      1.0  0.48759  0.10089  0.51082  1.0000
  H   H589      1.0  0.32464  0.48027  0.94069  1.0000
  H   H590      1.0  0.44533  0.32883  0.48725  1.0000
  H   H591      1.0  0.37603  0.99527  0.66032  1.0000
  H   H592      1.0  0.34554  0.46813  0.58557  1.0000
  H   H593      1.0  0.26621  0.39353  0.49799  1.0000
  C   C735      1.0  0.47208  0.48426  0.53790  1.0000
  H   H594      1.0  0.47866  0.44586  0.69531  1.0000
  H   H595      1.0  0.48441  0.35804  0.82240  1.0000
  H   H596      1.0  0.48315  0.11558  0.82240  1.0000
  H   H597      1.0  0.47592  0.49322  0.77764  1.0000
  H   H598      1.0  0.47106  0.41002  0.78292  1.0000
  H   H599      1.0  0.42776  0.49389  0.78068  1.0000
  H   H600      1.0  0.25203  0.38988  0.86089  1.0000
  C   C736      1.0  0.48646  0.35482  0.77745  1.0000
  C   C737      1.0  0.46795  0.44561  0.49384  1.0000
  C   C738      1.0  0.48396  0.38138  0.50448  1.0000
  Fe  Fe53      1.0  0.40110  0.49119  0.64949  1.0000
  H   H601      1.0  0.48618  0.06889  0.77601  1.0000
  C   C739      1.0  0.48740  0.02825  0.75001  1.0000
  H   H602      1.0  0.48765  0.01706  0.74183  1.0000
  P   P24       1.0  0.44183  0.99513  0.50350  1.0000
  Fe  Fe54      1.0  0.48818  0.40335  0.68510  1.0000
  C   C740      1.0  0.38500  0.99813  0.67584  1.0000
  C   C741      1.0  0.39628  0.49099  0.82679  1.0000
  S   S101      1.0  0.48833  0.34909  0.71992  1.0000
  S   S102      1.0  0.46297  0.55783  0.41506  1.0000
  C   C742      1.0  0.26172  0.78991  0.09754  1.0000
  Fe  Fe55      1.0  0.45490  0.66181  0.15275  1.0000
  S   S103      1.0  0.47013  0.64713  0.13736  1.0000
  S   S104      1.0  0.46326  0.68856  0.14014  1.0000
  Fe  Fe56      1.0  0.42801  0.63191  0.17490  1.0000
  S   S105      1.0  0.44112  0.61547  0.16095  1.0000
  S   S106      1.0  0.40419  0.62388  0.19986  1.0000
  Fe  Fe57      1.0  0.46243  0.63267  0.17918  1.0000
  H   H603      1.0  0.43346  0.54201  0.31559  1.0000
  Fe  Fe58      1.0  0.44764  0.63125  0.12066  1.0000
  S   S107      1.0  0.44421  0.61847  0.07950  1.0000
  S   S108      1.0  0.44890  0.64845  0.19569  1.0000
  S   S109      1.0  0.43285  0.64656  0.13351  1.0000
  Fe  Fe59      1.0  0.46643  0.77134  0.19493  1.0000
  C   C743      1.0  0.41407  0.86909  0.47350  1.0000
  S   S110      1.0  0.46337  0.74673  0.21585  1.0000
  Fe  Fe60      1.0  0.44802  0.79398  0.17989  1.0000
  S   S111      1.0  0.46842  0.80998  0.15215  1.0000
  S   S112      1.0  0.42747  0.80350  0.18718  1.0000
  Fe  Fe61      1.0  0.47202  0.78753  0.13172  1.0000
  H   H604      1.0  0.25384  0.71318  0.21818  1.0000
  Fe  Fe62      1.0  0.48284  0.80779  0.18959  1.0000
  H   H605      1.0  0.47557  0.68052  0.31544  1.0000
  S   S113      1.0  0.45000  0.77202  0.16089  1.0000
  S   S114      1.0  0.46224  0.79194  0.21712  1.0000
  C   C744      1.0  0.24638  0.52639  0.18629  1.0000
  S   S115      1.0  0.31730  0.52037  0.19773  1.0000
  Fe  Fe63      1.0  0.33351  0.52581  0.11836  1.0000
  S   S116      1.0  0.31748  0.53890  0.13579  1.0000
  C   C745      1.0  0.46554  0.95039  0.28693  1.0000
  Fe  Fe64      1.0  0.33281  0.54272  0.17318  1.0000
  S   S117      1.0  0.34005  0.56601  0.19492  1.0000
  Fe  Fe65      1.0  0.30338  0.51549  0.15819  1.0000
  S   S118      1.0  0.27666  0.50446  0.15134  1.0000
  S   S119      1.0  0.34992  0.53151  0.15450  1.0000
  Fe  Fe66      1.0  0.34161  0.78584  0.14843  1.0000
  S   S120      1.0  0.35109  0.81205  0.13591  1.0000
  S   S121      1.0  0.35732  0.77004  0.15083  1.0000
  Fe  Fe67      1.0  0.30711  0.78502  0.15105  1.0000
  S   S122      1.0  0.31440  0.81156  0.13972  1.0000
  S   S123      1.0  0.28029  0.77147  0.15360  1.0000
  Fe  Fe68      1.0  0.33106  0.80691  0.10632  1.0000
  S   S124      1.0  0.33429  0.81856  0.06124  1.0000
  Fe  Fe69      1.0  0.33387  0.81466  0.17070  1.0000
  S   S125      1.0  0.34145  0.83718  0.19729  1.0000
  S   S126      1.0  0.32289  0.78051  0.11624  1.0000
  S   S127      1.0  0.32524  0.78834  0.18466  1.0000
  H   H606      1.0  0.46549  0.51994  0.43525  1.0000
  Fe  Fe70      1.0  0.37852  0.88686  0.34615  1.0000
  S   S128      1.0  0.38212  0.87786  0.39028  1.0000
  S   S129      1.0  0.36590  0.86676  0.31663  1.0000
  Fe  Fe71      1.0  0.39985  0.92135  0.35759  1.0000
  S   S130      1.0  0.40528  0.91440  0.40109  1.0000
  S   S131      1.0  0.41323  0.94642  0.33805  1.0000
  Fe  Fe72      1.0  0.40758  0.89254  0.38180  1.0000
  S   S132      1.0  0.42659  0.88287  0.39632  1.0000
  Fe  Fe73      1.0  0.37947  0.90038  0.40704  1.0000
  S   S133      1.0  0.36729  0.90133  0.45036  1.0000
  S   S134      1.0  0.40459  0.90041  0.33728  1.0000
  S   S135      1.0  0.37334  0.90841  0.36386  1.0000
  C   C746      1.0  0.41786  0.96517  0.35384  1.0000
  H   H607      1.0  0.43154  0.97795  0.31644  1.0000
  C   C747      1.0  0.47494  0.91957  0.37494  1.0000
  C   C748      1.0  0.47335  0.90704  0.39511  1.0000
  C   C749      1.0  0.45838  0.89587  0.40212  1.0000
  C   C750      1.0  0.44498  0.89757  0.38952  1.0000
  C   C751      1.0  0.44635  0.91097  0.37147  1.0000
  C   C752      1.0  0.46139  0.92198  0.36416  1.0000
  C   C753      1.0  0.38585  0.86541  0.47213  1.0000
  H   H608      1.0  0.45725  0.88581  0.41690  1.0000
  H   H609      1.0  0.43596  0.91253  0.36223  1.0000
  H   H610      1.0  0.46261  0.93183  0.34897  1.0000
  C   C754      1.0  0.34827  0.84493  0.23080  1.0000
  C   C755      1.0  0.34946  0.83526  0.25444  1.0000
  C   C756      1.0  0.35474  0.84210  0.28037  1.0000
  C   C757      1.0  0.35906  0.85873  0.28325  1.0000
  C   C758      1.0  0.35799  0.86838  0.25952  1.0000
  C   C759      1.0  0.35257  0.86154  0.23374  1.0000
  H   H611      1.0  0.34612  0.82248  0.25288  1.0000
  H   H612      1.0  0.35548  0.83440  0.29834  1.0000
  H   H613      1.0  0.36112  0.88111  0.26096  1.0000
  H   H614      1.0  0.35160  0.86920  0.21589  1.0000
  C   C760      1.0  0.33062  0.80843  0.02919  1.0000
  C   C761      1.0  0.32805  0.79199  0.02851  1.0000
  C   C762      1.0  0.32562  0.78452  0.00255  1.0000
  Fe  Fe74      1.0  0.33398  0.50888  0.17746  1.0000
  C   C763      1.0  0.48322  0.90125  0.30550  1.0000
  C   C764      1.0  0.33051  0.81719  0.00359  1.0000
  H   H615      1.0  0.32801  0.78505  0.04795  1.0000
  C   C765      1.0  0.46107  0.70030  0.28095  1.0000
  C   C766      1.0  0.45844  0.96103  0.33001  1.0000
  H   H616      1.0  0.33244  0.82989  0.00384  1.0000
  C   C767      1.0  0.47841  0.63092  0.25843  1.0000
  C   C768      1.0  0.47583  0.99128  0.42926  1.0000
  H   H617      1.0  0.44880  0.77180  0.98838  1.0000
  C   C769      1.0  0.32346  0.95126  0.27656  1.0000
  H   H618      1.0  0.27028  0.76416  0.22149  1.0000
  C   C770      1.0  0.30501  0.54211  0.06619  1.0000
  H   H619      1.0  0.46871  0.71054  0.29078  1.0000
  C   C771      1.0  0.42715  0.97899  0.33776  1.0000
  H   H620      1.0  0.43088  0.90806  0.43707  1.0000
  C   C772      1.0  0.26037  0.52279  0.17826  1.0000
  C   C773      1.0  0.25953  0.50994  0.16147  1.0000
  H   H621      1.0  0.37213  0.51347  0.43058  1.0000
  H   H622      1.0  0.30518  0.55433  0.23014  1.0000
  C   C774      1.0  0.25428  0.74526  0.14616  1.0000
  H   H623      1.0  0.32296  0.85312  0.42409  1.0000
  H   H624      1.0  0.32958  0.55843  0.25629  1.0000
  C   C775      1.0  0.43964  0.58267  0.34875  1.0000
  H   H625      1.0  0.31411  0.73723  0.01555  1.0000
  C   C776      1.0  0.40136  0.87185  0.46012  1.0000
  C   C777      1.0  0.40800  0.79361  0.17776  1.0000
  C   C778      1.0  0.39764  0.80258  0.17415  1.0000
  C   C779      1.0  0.38211  0.79538  0.16609  1.0000
  C   C780      1.0  0.37679  0.77912  0.16139  1.0000
  C   C781      1.0  0.38715  0.77006  0.16504  1.0000
  C   C782      1.0  0.40274  0.77729  0.17337  1.0000
  H   H626      1.0  0.40171  0.81521  0.17716  1.0000
  H   H627      1.0  0.37426  0.80244  0.16361  1.0000
  H   H628      1.0  0.38305  0.75743  0.16158  1.0000
  H   H629      1.0  0.41066  0.77031  0.17664  1.0000
  H   H630      1.0  0.36536  0.56702  0.03420  1.0000
  C   C783      1.0  0.36939  0.51746  0.38594  1.0000
  H   H631      1.0  0.44156  0.94456  0.30547  1.0000
  C   C784      1.0  0.39120  0.57840  0.27146  1.0000
  C   C785      1.0  0.38690  0.92846  0.28608  1.0000
  H   H632      1.0  0.41032  0.98318  0.41288  1.0000
  C   C786      1.0  0.41233  0.96675  0.38144  1.0000
  H   H633      1.0  0.24807  0.76813  0.08051  1.0000
  C   C787      1.0  0.38724  0.60691  0.19730  1.0000
  C   C788      1.0  0.38702  0.59380  0.18126  1.0000
  C   C789      1.0  0.37273  0.58083  0.18027  1.0000
  C   C790      1.0  0.35875  0.58109  0.19529  1.0000
  C   C791      1.0  0.35928  0.59406  0.21157  1.0000
  C   C792      1.0  0.37336  0.60677  0.21266  1.0000
  H   H634      1.0  0.39773  0.59374  0.16950  1.0000
  H   H635      1.0  0.37248  0.57083  0.16768  1.0000
  H   H636      1.0  0.34863  0.59440  0.22323  1.0000
  H   H637      1.0  0.37340  0.61675  0.22518  1.0000
  C   C793      1.0  0.45126  0.62808  0.04552  1.0000
  H   H638      1.0  0.41079  0.56948  0.27786  1.0000
  H   H639      1.0  0.26337  0.52100  0.27698  1.0000
  C   C794      1.0  0.32001  0.54718  0.25936  1.0000
  C   C795      1.0  0.44646  0.61957  0.02124  1.0000
  H   H640      1.0  0.43846  0.60745  0.02365  1.0000
  C   C796      1.0  0.46274  0.70444  0.16154  1.0000
  C   C797      1.0  0.45552  0.70175  0.18901  1.0000
  C   C798      1.0  0.45548  0.71477  0.20525  1.0000
  C   C799      1.0  0.46258  0.73059  0.19417  1.0000
  C   C800      1.0  0.46967  0.73325  0.16661  1.0000
  C   C801      1.0  0.46979  0.72026  0.15044  1.0000
  H   H641      1.0  0.44998  0.68965  0.19769  1.0000
  H   H642      1.0  0.44994  0.71260  0.22651  1.0000
  C   C802      1.0  0.44270  0.50233  0.44577  1.0000
  H   H643      1.0  0.37008  0.55098  0.33730  1.0000
  C   C803      1.0  0.29151  0.75049  0.07684  1.0000
  H   H644      1.0  0.44395  0.56111  0.10929  1.0000
  H   H645      1.0  0.48562  0.93588  0.47073  1.0000
  C   C804      1.0  0.45521  0.54159  0.39444  1.0000
  C   C805      1.0  0.46463  0.53806  0.37282  1.0000
  C   C806      1.0  0.45820  0.52492  0.35657  1.0000
  C   C807      1.0  0.44257  0.51500  0.36267  1.0000
  C   C808      1.0  0.43329  0.51838  0.38465  1.0000
  C   C809      1.0  0.43953  0.53179  0.40027  1.0000
  H   H646      1.0  0.47689  0.54533  0.36885  1.0000
  H   H647      1.0  0.46538  0.52224  0.33968  1.0000
  C   C810      1.0  0.25662  0.68969  0.06513  1.0000
  H   H648      1.0  0.43232  0.53433  0.41737  1.0000
  H   H649      1.0  0.32391  0.77188  0.00225  1.0000
  H   H650      1.0  0.40545  0.95625  0.39434  1.0000
  C   C811      1.0  0.24498  0.75346  0.21827  1.0000
  H   H651      1.0  0.47618  0.66246  0.01233  1.0000
  H   H652      1.0  0.26500  0.53394  0.07617  1.0000
  C   C812      1.0  0.45707  0.94298  0.47789  1.0000
  C   C813      1.0  0.36707  0.79905  0.05120  1.0000
  H   H653      1.0  0.27833  0.81132  0.11189  1.0000
  C   C814      1.0  0.27007  0.72289  0.15505  1.0000
  H   H654      1.0  0.29187  0.74723  0.00504  1.0000
  H   H655      1.0  0.26072  0.73142  0.08443  1.0000
  H   H656      1.0  0.32595  0.92494  0.41262  1.0000
  C   C815      1.0  0.27874  0.59595  0.00347  1.0000
  C   C816      1.0  0.25355  0.71749  0.15166  1.0000
  H   H657      1.0  0.34085  0.50085  0.30368  1.0000
  S   S136      1.0  0.34403  0.53156  0.07250  1.0000
  C   C817      1.0  0.46935  0.99032  0.47988  1.0000
  C   C818      1.0  0.37623  0.57496  0.02357  1.0000
  C   C819      1.0  0.38925  0.58011  0.09613  1.0000
  C   C820      1.0  0.38120  0.56387  0.10287  1.0000
  C   C821      1.0  0.38788  0.55495  0.12068  1.0000
  C   C822      1.0  0.40258  0.56218  0.13188  1.0000
  C   C823      1.0  0.41089  0.57823  0.12457  1.0000
  C   C824      1.0  0.40432  0.58714  0.10652  1.0000
  H   H658      1.0  0.42140  0.51060  0.39004  1.0000
  H   H659      1.0  0.27277  0.71370  0.06269  1.0000
  C   C825      1.0  0.46249  0.72656  0.05394  1.0000
  H   H660      1.0  0.38541  0.60718  0.12661  1.0000
  H   H661      1.0  0.36979  0.55807  0.09432  1.0000
  H   H662      1.0  0.38165  0.54240  0.12567  1.0000
  H   H663      1.0  0.40753  0.55526  0.14598  1.0000
  H   H664      1.0  0.42247  0.58384  0.13266  1.0000
  H   H665      1.0  0.41106  0.59950  0.10069  1.0000
  S   S137      1.0  0.24300  0.69665  0.15671  1.0000
  C   C826      1.0  0.30732  0.54930  0.03875  1.0000
  H   H666      1.0  0.46035  0.55872  0.32532  1.0000
  C   C827      1.0  0.35622  0.94408  0.36384  1.0000
  C   C828      1.0  0.27861  0.73937  0.15435  1.0000
  H   H667      1.0  0.36673  0.80878  0.06420  1.0000
  C   C829      1.0  0.31887  0.51322  0.04271  1.0000
  C   C830      1.0  0.48653  0.77628  0.11356  1.0000
  C   C831      1.0  0.39748  0.64448  0.09459  1.0000
  H   H668      1.0  0.40166  0.65686  0.09985  1.0000
  H   H669      1.0  0.46474  0.53512  0.47764  1.0000
  S   S138      1.0  0.48832  0.78699  0.17012  1.0000
  H   H670      1.0  0.34888  0.92464  0.44086  1.0000
  C   C832      1.0  0.24580  0.72880  0.14650  1.0000
  C   C833      1.0  0.39348  0.90331  0.48241  1.0000
  H   H671      1.0  0.25759  0.68781  0.08778  1.0000
  H   H672      1.0  0.30534  0.96256  0.28253  1.0000
  S   S139      1.0  0.48055  0.78112  0.06082  1.0000
  C   C834      1.0  0.36833  0.56780  0.30460  1.0000
  C   C835      1.0  0.45545  0.51583  0.45062  1.0000
  C   C836      1.0  0.44456  0.69676  0.28474  1.0000
  C   C837      1.0  0.33586  0.86391  0.45955  1.0000
  H   H673      1.0  0.34339  0.91873  0.31666  1.0000
  H   H674      1.0  0.45814  0.49875  0.26812  1.0000
  C   C838      1.0  0.25154  0.74379  0.05207  1.0000
  H   H675      1.0  0.31148  0.51037  0.29269  1.0000
  C   C839      1.0  0.48143  0.62012  0.23999  1.0000
  C   C840      1.0  0.31216  0.73978  0.06060  1.0000
  H   H676      1.0  0.24804  0.75388  0.14310  1.0000
  C   C841      1.0  0.38054  0.57197  0.99601  1.0000
  H   H677      1.0  0.45324  0.95831  0.44395  1.0000
  H   H678      1.0  0.28560  0.75453  0.09415  1.0000
  C   C842      1.0  0.37748  0.52022  0.41095  1.0000
  C   C843      1.0  0.46298  0.64198  0.99049  1.0000
  H   H679      1.0  0.37635  0.93617  0.41975  1.0000
  C   C844      1.0  0.37485  0.97145  0.32469  1.0000
  C   C845      1.0  0.47438  0.91174  0.30230  1.0000
  C   C846      1.0  0.29563  0.51771  0.26546  1.0000
  C   C847      1.0  0.25347  0.49869  0.07050  1.0000
  H   H680      1.0  0.38172  0.51168  0.24696  1.0000
  C   C848      1.0  0.43824  0.91781  0.44841  1.0000
  C   C849      1.0  0.44148  0.93355  0.43758  1.0000
  H   H681      1.0  0.24716  0.53621  0.19966  1.0000
  H   H682      1.0  0.46959  0.73804  0.01246  1.0000
  C   C850      1.0  0.43004  0.73612  0.02393  1.0000
  C   C851      1.0  0.26363  0.73854  0.22193  1.0000
  H   H683      1.0  0.35320  0.78083  0.08215  1.0000
  C   C852      1.0  0.48657  0.67799  0.31081  1.0000
  P   P25       1.0  0.36005  0.95190  0.32738  1.0000
  C   C853      1.0  0.48157  0.95906  0.28950  1.0000
  Fe  Fe75      1.0  0.48696  0.57336  0.39794  1.0000
  H   H684      1.0  0.48795  0.82543  0.98787  1.0000
  H   H685      1.0  0.35774  0.50858  0.38605  1.0000
  C   C854      1.0  0.37745  0.90248  0.48245  1.0000
  H   H686      1.0  0.45657  0.82552  0.21377  1.0000
  C   C855      1.0  0.46141  0.99384  0.42378  1.0000
  C   C856      1.0  0.44077  0.67382  0.25645  1.0000
  C   C857      1.0  0.39281  0.53117  0.41038  1.0000
  C   C858      1.0  0.47020  0.54619  0.24540  1.0000
  C   C859      1.0  0.46183  0.53367  0.26481  1.0000
  C   C860      1.0  0.44526  0.52923  0.26800  1.0000
  C   C861      1.0  0.43701  0.53737  0.25190  1.0000
  C   C862      1.0  0.44529  0.54980  0.23199  1.0000
  C   C863      1.0  0.46199  0.55427  0.22907  1.0000
  P   P26       1.0  0.43486  0.56157  0.21381  1.0000
  C   C864      1.0  0.41464  0.54932  0.20836  1.0000
  C   C865      1.0  0.43574  0.57875  0.23405  1.0000
  C   C866      1.0  0.42994  0.59071  0.22293  1.0000
  C   C867      1.0  0.43159  0.60457  0.23736  1.0000
  C   C868      1.0  0.43932  0.60678  0.26271  1.0000
  C   C869      1.0  0.44538  0.59511  0.27372  1.0000
  C   C870      1.0  0.44358  0.58112  0.25959  1.0000
  C   C871      1.0  0.40171  0.55525  0.21181  1.0000
  C   C872      1.0  0.38633  0.54583  0.20624  1.0000
  C   C873      1.0  0.38370  0.53045  0.19712  1.0000
  C   C874      1.0  0.39641  0.52440  0.19375  1.0000
  C   C875      1.0  0.41178  0.53371  0.19959  1.0000
  C   C876      1.0  0.44504  0.56904  0.17949  1.0000
  C   C877      1.0  0.45717  0.58381  0.17700  1.0000
  C   C878      1.0  0.28188  0.77943  0.99337  1.0000
  H   H687      1.0  0.24978  0.50450  0.08793  1.0000
  C   C879      1.0  0.44773  0.56736  0.12829  1.0000
  C   C880      1.0  0.44070  0.56063  0.15495  1.0000
  C   C881      1.0  0.36696  0.77393  0.01704  1.0000
  H   H688      1.0  0.43885  0.51965  0.28344  1.0000
  H   H689      1.0  0.42422  0.53412  0.25534  1.0000
  H   H690      1.0  0.46871  0.56424  0.21474  1.0000
  H   H691      1.0  0.42442  0.58952  0.20275  1.0000
  H   H692      1.0  0.42724  0.61382  0.22849  1.0000
  H   H693      1.0  0.44101  0.61775  0.27338  1.0000
  H   H694      1.0  0.45197  0.59719  0.29274  1.0000
  H   H695      1.0  0.44869  0.57248  0.26841  1.0000
  H   H696      1.0  0.40327  0.56709  0.21862  1.0000
  H   H697      1.0  0.37640  0.55048  0.20883  1.0000
  H   H698      1.0  0.37176  0.52308  0.19305  1.0000
  H   H699      1.0  0.39422  0.51238  0.18690  1.0000
  H   H700      1.0  0.42147  0.52879  0.19690  1.0000
  H   H701      1.0  0.46095  0.59040  0.19559  1.0000
  C   C882      1.0  0.48776  0.60843  0.25087  1.0000
  C   C883      1.0  0.37904  0.98023  0.34888  1.0000
  H   H702      1.0  0.48666  0.54909  0.31496  1.0000
  H   H703      1.0  0.43172  0.54906  0.15602  1.0000
  C   C884      1.0  0.46786  0.83000  0.36406  1.0000
  C   C885      1.0  0.47201  0.83919  0.38759  1.0000
  C   C886      1.0  0.46944  0.85398  0.38829  1.0000
  C   C887      1.0  0.46259  0.85953  0.36558  1.0000
  C   C888      1.0  0.45830  0.85034  0.34191  1.0000
  C   C889      1.0  0.46098  0.83551  0.34131  1.0000
  P   P27       1.0  0.44897  0.85747  0.31320  1.0000
  C   C890      1.0  0.42803  0.85363  0.32253  1.0000
  C   C891      1.0  0.45886  0.87870  0.30791  1.0000
  C   C892      1.0  0.45004  0.88933  0.30494  1.0000
  C   C893      1.0  0.45780  0.90579  0.30199  1.0000
  C   C894      1.0  0.26503  0.70433  0.05104  1.0000
  H   H704      1.0  0.29984  0.49907  0.01863  1.0000
  C   C895      1.0  0.47552  0.88479  0.30835  1.0000
  C   C896      1.0  0.41726  0.85268  0.30115  1.0000
  C   C897      1.0  0.40106  0.84974  0.30828  1.0000
  C   C898      1.0  0.39559  0.84831  0.33675  1.0000
  C   C899      1.0  0.40627  0.84964  0.35812  1.0000
  C   C900      1.0  0.42241  0.85219  0.35109  1.0000
  C   C901      1.0  0.45131  0.84760  0.28126  1.0000
  C   C902      1.0  0.44042  0.83260  0.27654  1.0000
  C   C903      1.0  0.44223  0.82476  0.25212  1.0000
  C   C904      1.0  0.45498  0.83174  0.23239  1.0000
  C   C905      1.0  0.46414  0.85448  0.26129  1.0000
  H   H705      1.0  0.33931  0.96957  0.34691  1.0000
  C   C906      1.0  0.48619  0.96848  0.31279  1.0000
  H   H706      1.0  0.47286  0.86126  0.40630  1.0000
  H   H707      1.0  0.46063  0.87101  0.36650  1.0000
  H   H708      1.0  0.45795  0.82824  0.32325  1.0000
  H   H709      1.0  0.43717  0.88501  0.30578  1.0000
  H   H710      1.0  0.45091  0.91395  0.30080  1.0000
  C   C907      1.0  0.27256  0.77573  0.06324  1.0000
  C   C908      1.0  0.42941  0.80172  0.00574  1.0000
  C   C909      1.0  0.39302  0.99363  0.29561  1.0000
  H   H711      1.0  0.42143  0.85445  0.27902  1.0000
  H   H712      1.0  0.39269  0.84883  0.29186  1.0000
  H   H713      1.0  0.38311  0.84648  0.34222  1.0000
  H   H714      1.0  0.40214  0.84907  0.38019  1.0000
  H   H715      1.0  0.43043  0.85346  0.36809  1.0000
  H   H716      1.0  0.43064  0.82687  0.29188  1.0000
  H   H717      1.0  0.43388  0.81317  0.24848  1.0000
  H   H718      1.0  0.47301  0.86575  0.26453  1.0000
  H   H719      1.0  0.42457  0.72363  0.02011  1.0000
  C   C910      1.0  0.35936  0.58588  0.08024  1.0000
  H   H720      1.0  0.28909  0.78792  0.00706  1.0000
  C   C911      1.0  0.43022  0.74120  0.05162  1.0000
  C   C912      1.0  0.43771  0.75731  0.05690  1.0000
  C   C913      1.0  0.44404  0.76832  0.03377  1.0000
  P   P28       1.0  0.43744  0.76448  0.09226  1.0000
  C   C914      1.0  0.42454  0.77683  0.09168  1.0000
  C   C915      1.0  0.42876  0.74766  0.11786  1.0000
  C   C916      1.0  0.41557  0.74719  0.13590  1.0000
  C   C917      1.0  0.40947  0.73480  0.15683  1.0000
  C   C918      1.0  0.41631  0.72260  0.15970  1.0000
  C   C919      1.0  0.42903  0.72261  0.14123  1.0000
  C   C920      1.0  0.43515  0.73499  0.12032  1.0000
  C   C921      1.0  0.42664  0.78945  0.10976  1.0000
  C   C922      1.0  0.41645  0.79875  0.10926  1.0000
  C   C923      1.0  0.40353  0.79497  0.09202  1.0000
  C   C924      1.0  0.40106  0.78214  0.07462  1.0000
  C   C925      1.0  0.41155  0.77318  0.07425  1.0000
  C   C926      1.0  0.45773  0.77584  0.10069  1.0000
  C   C927      1.0  0.46403  0.79381  0.09445  1.0000
  H   H721      1.0  0.48094  0.63960  0.30053  1.0000
  H   H722      1.0  0.27623  0.71428  0.15909  1.0000
  C   C928      1.0  0.36905  0.94357  0.37983  1.0000
  C   C929      1.0  0.46915  0.76722  0.11078  1.0000
  C   C930      1.0  0.34199  0.52982  0.01454  1.0000
  C   C931      1.0  0.46588  0.84659  0.23692  1.0000
  H   H723      1.0  0.41431  0.57746  0.34848  1.0000
  H   H724      1.0  0.42437  0.73247  0.06858  1.0000
  H   H725      1.0  0.44936  0.78087  0.03722  1.0000
  H   H726      1.0  0.41007  0.75648  0.13421  1.0000
  H   H727      1.0  0.39955  0.73480  0.17107  1.0000
  H   H728      1.0  0.41177  0.71314  0.17622  1.0000
  H   H729      1.0  0.43428  0.71308  0.14336  1.0000
  H   H730      1.0  0.44476  0.73453  0.10595  1.0000
  H   H731      1.0  0.43592  0.79202  0.12465  1.0000
  H   H732      1.0  0.41827  0.80855  0.12313  1.0000
  H   H733      1.0  0.39522  0.80173  0.09271  1.0000
  H   H734      1.0  0.39088  0.77900  0.06167  1.0000
  H   H735      1.0  0.40928  0.76319  0.06080  1.0000
  H   H736      1.0  0.45654  0.80013  0.08556  1.0000
  H   H737      1.0  0.44297  0.49585  0.42686  1.0000
  C   C932      1.0  0.35925  0.78330  0.06118  1.0000
  C   C933      1.0  0.37502  0.78974  0.00697  1.0000
  H   H738      1.0  0.46539  0.75449  0.11461  1.0000
  C   C934      1.0  0.37193  0.81214  0.22538  1.0000
  C   C935      1.0  0.38026  0.80693  0.24610  1.0000
  C   C936      1.0  0.39565  0.81633  0.25154  1.0000
  C   C937      1.0  0.40276  0.83087  0.23601  1.0000
  C   C938      1.0  0.39465  0.83601  0.21460  1.0000
  C   C939      1.0  0.37903  0.82664  0.20977  1.0000
  P   P29       1.0  0.40409  0.85477  0.19450  1.0000
  C   C940      1.0  0.42146  0.85482  0.17281  1.0000
  C   C941      1.0  0.39011  0.85851  0.17051  1.0000
  C   C942      1.0  0.38695  0.84990  0.14592  1.0000
  C   C943      1.0  0.37573  0.85211  0.12757  1.0000
  C   C944      1.0  0.36749  0.86280  0.13375  1.0000
  C   C945      1.0  0.37065  0.87150  0.15804  1.0000
  C   C946      1.0  0.38194  0.86941  0.17636  1.0000
  C   C947      1.0  0.42704  0.86625  0.14994  1.0000
  C   C948      1.0  0.44049  0.86662  0.13296  1.0000
  C   C949      1.0  0.44852  0.85561  0.13870  1.0000
  C   C950      1.0  0.44311  0.84428  0.16145  1.0000
  C   C951      1.0  0.42968  0.84389  0.17849  1.0000
  C   C952      1.0  0.40958  0.86983  0.22015  1.0000
  C   C953      1.0  0.39848  0.87016  0.24199  1.0000
  C   C954      1.0  0.40262  0.88152  0.26242  1.0000
  C   C955      1.0  0.41792  0.89252  0.26138  1.0000
  C   C956      1.0  0.42915  0.89210  0.23999  1.0000
  C   C957      1.0  0.42503  0.88082  0.21940  1.0000
  H   H739      1.0  0.35998  0.80489  0.22112  1.0000
  H   H740      1.0  0.37480  0.79555  0.25781  1.0000
  H   H741      1.0  0.40212  0.81225  0.26753  1.0000
  H   H742      1.0  0.41471  0.83797  0.24032  1.0000
  H   H743      1.0  0.37221  0.83033  0.19396  1.0000
  H   H744      1.0  0.39284  0.84116  0.14134  1.0000
  H   H745      1.0  0.37304  0.84518  0.10898  1.0000
  H   H746      1.0  0.35840  0.86407  0.12004  1.0000
  H   H747      1.0  0.36395  0.87948  0.16313  1.0000
  H   H748      1.0  0.38388  0.87603  0.19529  1.0000
  H   H749      1.0  0.42097  0.87489  0.14522  1.0000
  H   H750      1.0  0.44467  0.87541  0.11528  1.0000
  H   H751      1.0  0.45891  0.85581  0.12554  1.0000
  H   H752      1.0  0.44923  0.83563  0.16580  1.0000
  H   H753      1.0  0.42577  0.83490  0.19575  1.0000
  H   H754      1.0  0.38663  0.86155  0.24328  1.0000
  H   H755      1.0  0.39399  0.88160  0.27934  1.0000
  H   H756      1.0  0.42110  0.90123  0.27737  1.0000
  H   H757      1.0  0.44111  0.90047  0.23945  1.0000
  H   H758      1.0  0.43396  0.88064  0.20319  1.0000
  P   P30       1.0  0.27045  0.75878  0.04184  1.0000
  H   H759      1.0  0.36676  0.76406  0.00412  1.0000
  H   H760      1.0  0.48728  0.82136  0.26486  1.0000
  C   C958      1.0  0.48276  0.63078  0.28683  1.0000
  H   H761      1.0  0.27363  0.49629  0.09211  1.0000
  C   C959      1.0  0.46592  0.69919  0.03061  1.0000
  C   C960      1.0  0.28674  0.75124  0.04897  1.0000
  H   H762      1.0  0.46437  0.58788  0.10526  1.0000
  H   H763      1.0  0.43450  0.80426  0.02616  1.0000
  H   H764      1.0  0.38109  0.94804  0.37041  1.0000
  C   C961      1.0  0.39614  0.64058  0.06621  1.0000
  C   C962      1.0  0.34894  0.84782  0.48590  1.0000
  C   C963      1.0  0.34932  0.58704  0.05856  1.0000
  C   C964      1.0  0.27662  0.80153  0.09806  1.0000
  S   S140      1.0  0.47884  0.62158  0.20291  1.0000
  C   C965      1.0  0.39629  0.50231  0.27323  1.0000
  C   C966      1.0  0.33418  0.52431  0.04138  1.0000
  H   H765      1.0  0.31270  0.50882  0.06315  1.0000
  C   C967      1.0  0.27066  0.75067  0.15066  1.0000
  H   H766      1.0  0.37372  0.97545  0.36972  1.0000
  C   C968      1.0  0.36640  0.93680  0.40764  1.0000
  C   C969      1.0  0.45214  0.62653  0.99385  1.0000
  H   H767      1.0  0.47009  0.81865  0.36329  1.0000
  C   C970      1.0  0.39349  0.63236  0.11625  1.0000
  C   C971      1.0  0.33294  0.58344  0.06467  1.0000
  P   P31       1.0  0.38064  0.59157  0.07313  1.0000
  H   H768      1.0  0.31921  0.55302  0.02860  1.0000
  C   C972      1.0  0.26339  0.70692  0.02205  1.0000
  C   C973      1.0  0.32145  0.96698  0.31642  1.0000
  C   C974      1.0  0.26051  0.75310  0.22115  1.0000
  H   H769      1.0  0.39918  0.64998  0.04944  1.0000
  C   C975      1.0  0.35546  0.92169  0.30753  1.0000
  H   H770      1.0  0.38968  0.62182  0.03741  1.0000
  H   H771      1.0  0.30767  0.74414  0.10425  1.0000
  H   H772      1.0  0.37633  0.86793  0.46124  1.0000
  C   C976      1.0  0.33798  0.93037  0.40354  1.0000
  H   H773      1.0  0.29783  0.78624  0.05255  1.0000
  C   C977      1.0  0.42428  0.57330  0.34302  1.0000
  C   C978      1.0  0.28948  0.80027  0.08131  1.0000
  C   C979      1.0  0.24456  0.50088  0.15256  1.0000
  C   C980      1.0  0.31572  0.96043  0.29107  1.0000
  C   C981      1.0  0.25046  0.73170  0.07308  1.0000
  P   P32       1.0  0.48888  0.69536  0.25890  1.0000
  C   C982      1.0  0.45027  0.56283  0.33003  1.0000
  H   H774      1.0  0.47213  0.49768  0.36086  1.0000
  H   H775      1.0  0.34591  0.82445  0.47001  1.0000
  C   C983      1.0  0.38849  0.61638  0.10953  1.0000
  C   C984      1.0  0.35287  0.58172  0.10820  1.0000
  H   H776      1.0  0.36041  0.58126  0.12545  1.0000
  C   C985      1.0  0.46182  0.64369  0.04216  1.0000
  C   C986      1.0  0.46743  0.72704  0.02531  1.0000
  H   H777      1.0  0.25191  0.79071  0.11116  1.0000
  C   C987      1.0  0.48204  0.78051  0.00272  1.0000
  H   H778      1.0  0.44208  0.90229  0.48140  1.0000
  H   H779      1.0  0.35644  0.56738  0.31192  1.0000
  H   H780      1.0  0.32521  0.58417  0.04789  1.0000
  C   C988      1.0  0.25964  0.77709  0.08012  1.0000
  H   H781      1.0  0.43048  0.96485  0.47461  1.0000
  C   C989      1.0  0.38752  0.61235  0.08107  1.0000
  C   C990      1.0  0.32654  0.57902  0.09251  1.0000
  C   C991      1.0  0.33654  0.57835  0.11429  1.0000
  H   H782      1.0  0.40899  0.60645  0.03485  1.0000
  H   H783      1.0  0.46711  0.68844  0.02188  1.0000
  C   C992      1.0  0.41530  0.98204  0.39206  1.0000
  C   C993      1.0  0.42175  0.55852  0.33092  1.0000
  C   C994      1.0  0.45727  0.67735  0.25259  1.0000
  H   H784      1.0  0.33169  0.57522  0.13603  1.0000
  H   H785      1.0  0.44628  0.55200  0.47125  1.0000
  C   C995      1.0  0.34526  0.86206  0.48164  1.0000
  C   C996      1.0  0.33689  0.94854  0.28747  1.0000
  C   C997      1.0  0.42935  0.49751  0.46481  1.0000
  H   H786      1.0  0.31912  0.94632  0.25673  1.0000
  H   H787      1.0  0.31556  0.97424  0.32751  1.0000
  H   H788      1.0  0.39925  0.93097  0.27880  1.0000
  C   C998      1.0  0.45745  0.57580  0.48340  1.0000
  C   C999      1.0  0.37667  0.52549  0.36035  1.0000
  P   P33       1.0  0.29690  0.55934  0.98843  1.0000
  C   C1000     1.0  0.38931  0.51376  0.26469  1.0000
  H   H789      1.0  0.46453  0.58469  0.34698  1.0000
  H   H790      1.0  0.38023  0.90371  0.27665  1.0000
  H   H791      1.0  0.25586  0.74170  0.99259  1.0000
  H   H792      1.0  0.27273  0.59977  0.02089  1.0000
  H   H793      1.0  0.48126  0.72391  0.23923  1.0000
  H   H794      1.0  0.35388  0.53825  0.01327  1.0000
  C   C1001     1.0  0.37503  0.80228  0.02429  1.0000
  H   H795      1.0  0.45812  0.68769  0.07236  1.0000
  H   H796      1.0  0.46815  0.52750  0.27767  1.0000
  H   H797      1.0  0.44152  0.59397  0.35840  1.0000
  H   H798      1.0  0.28388  0.52836  0.23464  1.0000
  H   H799      1.0  0.27174  0.52987  0.18531  1.0000
  H   H800      1.0  0.43678  0.93597  0.41765  1.0000
  C   C1002     1.0  0.45264  0.57743  0.34231  1.0000
  C   C1003     1.0  0.44463  0.91458  0.47366  1.0000
  H   H801      1.0  0.48366  0.90586  0.40514  1.0000
  H   H802      1.0  0.31511  0.54056  0.07662  1.0000
  C   C1004     1.0  0.43490  0.55334  0.32451  1.0000
  H   H803      1.0  0.47740  0.83494  0.40514  1.0000
  H   H804      1.0  0.33660  0.50579  0.25268  1.0000
  H   H805      1.0  0.41208  0.54755  0.38495  1.0000
  C   C1005     1.0  0.28979  0.53663  0.07975  1.0000
  C   C1006     1.0  0.28754  0.78731  0.06439  1.0000
  C   C1007     1.0  0.48247  0.79015  0.02581  1.0000
  H   H806      1.0  0.35414  0.59084  0.03704  1.0000
  H   H807      1.0  0.48256  0.87684  0.31140  1.0000
  C   C1008     1.0  0.46979  0.71353  0.01371  1.0000
  H   H808      1.0  0.42162  0.68096  0.27494  1.0000
  C   C1009     1.0  0.36618  0.93718  0.30875  1.0000
  S   S141      1.0  0.31904  0.50209  0.13935  1.0000
  C   C1010     1.0  0.35087  0.93022  0.41951  1.0000
  H   H809      1.0  0.43963  0.70438  0.29695  1.0000
  C   C1011     1.0  0.39096  0.62457  0.05945  1.0000
  C   C1012     1.0  0.29497  0.74639  0.02687  1.0000
  C   C1013     1.0  0.45916  0.71238  0.07088  1.0000
  C   C1014     1.0  0.37619  0.91309  0.28497  1.0000
  C   C1015     1.0  0.43441  0.68358  0.27236  1.0000
  H   H810      1.0  0.42605  0.87412  0.46387  1.0000
  C   C1016     1.0  0.38599  0.58797  0.03728  1.0000
  C   C1017     1.0  0.30407  0.74465  0.08264  1.0000
  H   H811      1.0  0.32204  0.73549  0.06515  1.0000
  H   H812      1.0  0.33277  0.53637  0.28738  1.0000
  C   C1018     1.0  0.45399  0.95130  0.30728  1.0000
  H   H813      1.0  0.26961  0.71853  0.01179  1.0000
  H   H814      1.0  0.39070  0.95200  0.29987  1.0000
  C   C1019     1.0  0.34061  0.93717  0.37569  1.0000
  H   H815      1.0  0.40350  0.87917  0.44050  1.0000
  H   H816      1.0  0.39447  0.63532  0.13832  1.0000
  C   C1020     1.0  0.39898  0.56899  0.28558  1.0000
  H   H817      1.0  0.41300  0.51871  0.33260  1.0000
  C   C1021     1.0  0.30617  0.54488  0.24470  1.0000
  H   H818      1.0  0.44945  0.96177  0.34568  1.0000
  H   H819      1.0  0.40014  0.90387  0.46250  1.0000
  C   C1022     1.0  0.37612  0.55847  0.31892  1.0000
  C   C1023     1.0  0.30763  0.74068  0.03272  1.0000
  H   H820      1.0  0.30108  0.80919  0.08183  1.0000
  C   C1024     1.0  0.29434  0.55111  0.02460  1.0000
  H   H821      1.0  0.43291  0.66362  0.24673  1.0000
  H   H822      1.0  0.38556  0.53590  0.27291  1.0000
  C   C1025     1.0  0.36045  0.90972  0.29556  1.0000
  H   H823      1.0  0.26876  0.54588  0.02694  1.0000
  C   C1026     1.0  0.39148  0.55888  0.30932  1.0000
  H   H824      1.0  0.48947  0.52209  0.31422  1.0000
  C   C1027     1.0  0.48611  0.81282  0.99195  1.0000
  C   C1028     1.0  0.45932  0.58239  0.12598  1.0000
  H   H825      1.0  0.48600  0.81559  0.09179  1.0000
  H   H826      1.0  0.47315  0.60220  0.14872  1.0000
  H   H827      1.0  0.28803  0.53090  0.10098  1.0000
  C   C1029     1.0  0.27900  0.54520  0.03801  1.0000
  C   C1030     1.0  0.39194  0.53680  0.35967  1.0000
  H   H828      1.0  0.46196  0.66968  0.24018  1.0000
  C   C1031     1.0  0.27973  0.49941  0.32647  1.0000
  C   C1032     1.0  0.30969  0.52005  0.27982  1.0000
  C   C1033     1.0  0.29407  0.53016  0.24748  1.0000
  C   C1034     1.0  0.33464  0.52429  0.98934  1.0000
  C   C1035     1.0  0.40501  0.50430  0.29746  1.0000
  H   H829      1.0  0.45541  0.71192  0.09314  1.0000
  H   H830      1.0  0.47319  0.63970  0.25057  1.0000
  H   H831      1.0  0.45899  0.58086  0.46171  1.0000
  H   H832      1.0  0.40609  0.80079  0.02128  1.0000
  C   C1036     1.0  0.46776  0.65054  0.01475  1.0000
  C   C1037     1.0  0.32180  0.53475  0.27683  1.0000
  H   H833      1.0  0.33046  0.93672  0.36343  1.0000
  H   H834      1.0  0.46143  0.73730  0.06291  1.0000
  C   C1038     1.0  0.34253  0.95485  0.31321  1.0000
  H   H835      1.0  0.35289  0.75857  0.05180  1.0000
  H   H836      1.0  0.34288  0.94168  0.27558  1.0000
  C   C1039     1.0  0.33487  0.96428  0.32739  1.0000
  H   H837      1.0  0.36979  0.58489  0.26962  1.0000
  C   C1040     1.0  0.37584  0.57770  0.28082  1.0000
  C   C1041     1.0  0.46756  0.69079  0.26434  1.0000
  C   C1042     1.0  0.43683  0.74712  0.00117  1.0000
  H   H838      1.0  0.39928  0.53290  0.42958  1.0000
  C   C1043     1.0  0.33000  0.85154  0.44154  1.0000
  C   C1044     1.0  0.48146  0.80291  0.09748  1.0000
  C   C1045     1.0  0.27679  0.53826  0.06569  1.0000
  C   C1046     1.0  0.24551  0.67990  0.02090  1.0000
  H   H839      1.0  0.47542  0.74535  0.15807  1.0000
  H   H840      1.0  0.39702  0.58622  0.25314  1.0000
  C   C1047     1.0  0.31157  0.50771  0.01751  1.0000
  H   H841      1.0  0.29120  0.74331  0.15788  1.0000
  C   C1048     1.0  0.45482  0.52459  0.47438  1.0000
  C   C1049     1.0  0.40071  0.59708  0.02393  1.0000
  H   H842      1.0  0.35228  0.89765  0.29548  1.0000
  H   H843      1.0  0.46564  0.65034  0.06068  1.0000
  H   H844      1.0  0.48036  0.92449  0.30132  1.0000
  C   C1050     1.0  0.45083  0.94614  0.45239  1.0000
  H   H845      1.0  0.28322  0.51227  0.32294  1.0000
  C   C1051     1.0  0.40003  0.53948  0.38489  1.0000
  H   H846      1.0  0.48473  0.81397  0.03767  1.0000
  P   P34       1.0  0.28081  0.49822  0.26752  1.0000
  H   H847      1.0  0.32381  0.58844  0.99320  1.0000
  H   H848      1.0  0.47597  0.85177  0.22184  1.0000
  C   C1052     1.0  0.38162  0.97846  0.29794  1.0000
  C   C1053     1.0  0.46423  0.59048  0.15040  1.0000
  C   C1054     1.0  0.28294  0.58200  0.00692  1.0000
  C   C1055     1.0  0.34559  0.49495  0.28760  1.0000
  H   H849      1.0  0.46205  0.94304  0.26906  1.0000
  H   H850      1.0  0.38109  0.81457  0.01698  1.0000
  H   H851      1.0  0.28991  0.52469  0.99258  1.0000
  P   P35       1.0  0.40154  0.54619  0.32601  1.0000
  C   C1056     1.0  0.35909  0.77075  0.04404  1.0000
  C   C1057     1.0  0.40493  0.59412  0.99631  1.0000
  H   H852      1.0  0.28025  0.57540  0.02728  1.0000
  C   C1058     1.0  0.44364  0.76324  0.00607  1.0000
  S   S142      1.0  0.43488  0.49827  0.34306  1.0000
  H   H853      1.0  0.48950  0.51254  0.43594  1.0000
  C   C1059     1.0  0.46073  0.69867  0.05914  1.0000
  C   C1060     1.0  0.40040  0.52967  0.30403  1.0000
  H   H854      1.0  0.47751  0.97774  0.34969  1.0000
  C   C1061     1.0  0.38194  0.94045  0.29797  1.0000
  H   H855      1.0  0.37525  0.82359  0.48461  1.0000
  C   C1062     1.0  0.40684  0.51777  0.31309  1.0000
  H   H856      1.0  0.37055  0.52253  0.34093  1.0000
  H   H857      1.0  0.27576  0.73836  0.22304  1.0000
  C   C1063     1.0  0.39144  0.52746  0.27978  1.0000
  H   H858      1.0  0.32915  0.82778  0.43144  1.0000
  H   H859      1.0  0.31386  0.57619  0.09729  1.0000
  H   H860      1.0  0.33357  0.87517  0.45592  1.0000
  C   C1064     1.0  0.41323  0.79963  0.00290  1.0000
  C   C1065     1.0  0.33353  0.83728  0.44567  1.0000
  C   C1066     1.0  0.31933  0.51321  0.99072  1.0000
  H   H861      1.0  0.48053  0.76798  0.00674  1.0000
  C   C1067     1.0  0.48463  0.49864  0.36129  1.0000
  C   C1068     1.0  0.47974  0.98939  0.45732  1.0000
  C   C1069     1.0  0.47442  0.96982  0.33250  1.0000
  C   C1070     1.0  0.25397  0.69457  0.00651  1.0000
  C   C1071     1.0  0.26145  0.49871  0.25771  1.0000
  C   C1072     1.0  0.25125  0.72435  0.21936  1.0000
  C   C1073     1.0  0.24684  0.67750  0.05005  1.0000
  C   C1074     1.0  0.48431  0.80635  0.02026  1.0000
  C   C1075     1.0  0.25602  0.51138  0.26534  1.0000
  C   C1076     1.0  0.27154  0.76456  0.00427  1.0000
  H   H862      1.0  0.40997  0.49515  0.30462  1.0000
  H   H863      1.0  0.48308  0.54980  0.24331  1.0000
  H   H864      1.0  0.24292  0.76491  0.21672  1.0000
  C   C1077     1.0  0.34316  0.49779  0.25866  1.0000
  C   C1078     1.0  0.34303  0.83543  0.46767  1.0000
  H   H865      1.0  0.37822  0.97210  0.27892  1.0000
  H   H866      1.0  0.47556  0.72250  0.12934  1.0000
  H   H867      1.0  0.48397  0.99089  0.41171  1.0000
  H   H868      1.0  0.27872  0.50030  0.37203  1.0000
  H   H869      1.0  0.48445  0.66391  0.35016  1.0000
  C   C1079     1.0  0.45498  0.99318  0.47452  1.0000
  C   C1080     1.0  0.48971  0.61953  0.29742  1.0000
  H   H870      1.0  0.24030  0.66614  0.06098  1.0000
  C   C1081     1.0  0.24108  0.51184  0.25766  1.0000
  H   H871      1.0  0.24057  0.55947  0.03836  1.0000
  C   C1082     1.0  0.24476  0.49564  0.04601  1.0000
  C   C1083     1.0  0.43060  0.99422  0.34877  1.0000
  H   H872      1.0  0.24343  0.51345  0.98927  1.0000
  C   C1084     1.0  0.38207  0.53359  0.73573  1.0000
  S   S143      1.0  0.41766  0.51555  0.63701  1.0000
  Fe  Fe76      1.0  0.45989  0.64004  0.91662  1.0000
  S   S144      1.0  0.43454  0.63855  0.91071  1.0000
  S   S145      1.0  0.47127  0.65065  0.95649  1.0000
  Fe  Fe77      1.0  0.46403  0.62772  0.85660  1.0000
  S   S146      1.0  0.43888  0.62573  0.84708  1.0000
  Fe  Fe78      1.0  0.44369  0.64965  0.86698  1.0000
  S   S147      1.0  0.43592  0.67036  0.84952  1.0000
  Fe  Fe79      1.0  0.43244  0.61517  0.89174  1.0000
  S   S148      1.0  0.41480  0.59106  0.90500  1.0000
  S   S149      1.0  0.46926  0.65230  0.87363  1.0000
  S   S150      1.0  0.45730  0.61592  0.90064  1.0000
  Fe  Fe80      1.0  0.46913  0.76702  0.86319  1.0000
  H   H873      1.0  0.46431  0.95283  0.48917  1.0000
  S   S151      1.0  0.47472  0.74341  0.86622  1.0000
  Fe  Fe81      1.0  0.44786  0.78829  0.86538  1.0000
  S   S152      1.0  0.46873  0.81078  0.86264  1.0000
  S   S153      1.0  0.42542  0.79451  0.87543  1.0000
  Fe  Fe82      1.0  0.47921  0.79951  0.82864  1.0000
  C   C1085     1.0  0.24362  0.68827  0.65993  1.0000
  Fe  Fe83      1.0  0.47884  0.79785  0.89511  1.0000
  S   S154      1.0  0.48390  0.57023  0.65802  1.0000
  S   S155      1.0  0.45751  0.77753  0.82913  1.0000
  S   S156      1.0  0.45751  0.77594  0.89950  1.0000
  C   C1086     1.0  0.26546  0.74365  0.84632  1.0000
  S   S157      1.0  0.31733  0.53200  0.83502  1.0000
  Fe  Fe84      1.0  0.31404  0.51589  0.91414  1.0000
  S   S158      1.0  0.30667  0.53708  0.90047  1.0000
  S   S159      1.0  0.30129  0.50086  0.87956  1.0000
  Fe  Fe85      1.0  0.29518  0.52273  0.86461  1.0000
  H   H874      1.0  0.45324  0.96201  0.67964  1.0000
  Fe  Fe86      1.0  0.32909  0.54458  0.87238  1.0000
  S   S160      1.0  0.34410  0.57052  0.86604  1.0000
  S   S161      1.0  0.33732  0.52445  0.88853  1.0000
  Fe  Fe87      1.0  0.32947  0.81035  0.83909  1.0000
  S   S162      1.0  0.32318  0.78822  0.81458  1.0000
  S   S163      1.0  0.34063  0.83589  0.81772  1.0000
  Fe  Fe88      1.0  0.32359  0.79019  0.89745  1.0000
  S   S164      1.0  0.31764  0.76720  0.87505  1.0000
  S   S165      1.0  0.32250  0.78305  0.94504  1.0000
  Fe  Fe89      1.0  0.33837  0.77986  0.84472  1.0000
  S   S166      1.0  0.35642  0.76819  0.82894  1.0000
  Fe  Fe90      1.0  0.30293  0.77752  0.84767  1.0000
  S   S167      1.0  0.27692  0.76413  0.83917  1.0000
  S   S168      1.0  0.34530  0.80215  0.86848  1.0000
  S   S169      1.0  0.30804  0.80033  0.87077  1.0000
  H   H875      1.0  0.26861  0.70663  0.86078  1.0000
  Fe  Fe91      1.0  0.37585  0.89267  0.67048  1.0000
  S   S170      1.0  0.39627  0.88690  0.64848  1.0000
  S   S171      1.0  0.35669  0.87013  0.69122  1.0000
  Fe  Fe92      1.0  0.39148  0.92896  0.65310  1.0000
  S   S172      1.0  0.41268  0.92486  0.63184  1.0000
  S   S173      1.0  0.39323  0.95528  0.64670  1.0000
  Fe  Fe93      1.0  0.39535  0.90419  0.61246  1.0000
  S   S174      1.0  0.40240  0.90125  0.56618  1.0000
  Fe  Fe94      1.0  0.41127  0.90815  0.66935  1.0000
  S   S175      1.0  0.43206  0.90733  0.69368  1.0000
  S   S176      1.0  0.37374  0.90865  0.63233  1.0000
  S   S177      1.0  0.39129  0.91356  0.69277  1.0000
  C   C1087     1.0  0.41050  0.97071  0.65571  1.0000
  H   H876      1.0  0.47260  0.98900  0.50141  1.0000
  C   C1088     1.0  0.39248  0.90219  0.53445  1.0000
  C   C1089     1.0  0.37661  0.90200  0.53457  1.0000
  C   C1090     1.0  0.36915  0.90211  0.50871  1.0000
  H   H877      1.0  0.47523  0.62506  0.72679  1.0000
  H   H878      1.0  0.39706  0.55391  0.75505  1.0000
  C   C1091     1.0  0.40086  0.90295  0.50820  1.0000
  H   H879      1.0  0.37000  0.90148  0.55458  1.0000
  H   H880      1.0  0.35680  0.90165  0.50912  1.0000
  C   C1092     1.0  0.44238  0.55749  0.72993  1.0000
  H   H881      1.0  0.41313  0.90313  0.50780  1.0000
  C   C1093     1.0  0.47672  0.91876  0.63548  1.0000
  C   C1094     1.0  0.46188  0.91572  0.62386  1.0000
  C   C1095     1.0  0.44805  0.91196  0.64171  1.0000
  C   C1096     1.0  0.44909  0.91134  0.67117  1.0000
  C   C1097     1.0  0.46388  0.91393  0.68280  1.0000
  C   C1098     1.0  0.47769  0.91758  0.66491  1.0000
  H   H882      1.0  0.46105  0.91610  0.60111  1.0000
  H   H883      1.0  0.43660  0.90943  0.63263  1.0000
  H   H884      1.0  0.46468  0.91332  0.70561  1.0000
  H   H885      1.0  0.43674  0.74321  0.97971  1.0000
  C   C1099     1.0  0.34582  0.84463  0.78200  1.0000
  C   C1100     1.0  0.33937  0.83672  0.75806  1.0000
  C   C1101     1.0  0.34292  0.84465  0.73064  1.0000
  C   C1102     1.0  0.35330  0.86047  0.72639  1.0000
  C   C1103     1.0  0.36022  0.86816  0.75019  1.0000
  C   C1104     1.0  0.35639  0.86036  0.77769  1.0000
  H   H886      1.0  0.33122  0.82467  0.76078  1.0000
  H   H887      1.0  0.33739  0.83853  0.71258  1.0000
  H   H888      1.0  0.36811  0.88032  0.74753  1.0000
  H   H889      1.0  0.36146  0.86670  0.79588  1.0000
  C   C1105     1.0  0.43145  0.58896  0.67418  1.0000
  H   H890      1.0  0.28520  0.73518  0.85458  1.0000
  H   H891      1.0  0.41775  0.60982  0.79645  1.0000
  H   H892      1.0  0.34987  0.53293  0.80019  1.0000
  C   C1106     1.0  0.36058  0.82578  0.52113  1.0000
  C   C1107     1.0  0.25138  0.51657  0.86007  1.0000
  C   C1108     1.0  0.34987  0.80163  0.55197  1.0000
  H   H893      1.0  0.47028  0.89456  0.50526  1.0000
  P   P36       1.0  0.38563  0.79385  0.97244  1.0000
  C   C1109     1.0  0.48901  0.90740  0.79551  1.0000
  C   C1110     1.0  0.32555  0.79327  0.97697  1.0000
  H   H894      1.0  0.42367  0.52764  0.58007  1.0000
  C   C1111     1.0  0.26133  0.73512  0.77528  1.0000
  H   H895      1.0  0.38869  0.49765  0.51461  1.0000
  H   H896      1.0  0.31128  0.72467  0.96393  1.0000
  C   C1112     1.0  0.40631  0.78597  0.86301  1.0000
  C   C1113     1.0  0.40319  0.77488  0.84201  1.0000
  C   C1114     1.0  0.38774  0.76916  0.83206  1.0000
  C   C1115     1.0  0.37551  0.77471  0.84271  1.0000
  C   C1116     1.0  0.37870  0.78550  0.86407  1.0000
  C   C1117     1.0  0.39397  0.79105  0.87422  1.0000
  H   H897      1.0  0.41265  0.77081  0.83337  1.0000
  H   H898      1.0  0.38528  0.76054  0.81593  1.0000
  H   H899      1.0  0.36942  0.78957  0.87300  1.0000
  H   H900      1.0  0.39623  0.79953  0.89058  1.0000
  C   C1118     1.0  0.39535  0.58566  0.89345  1.0000
  C   C1119     1.0  0.38546  0.56989  0.89905  1.0000
  C   C1120     1.0  0.36980  0.56509  0.89040  1.0000
  C   C1121     1.0  0.36383  0.57612  0.87656  1.0000
  C   C1122     1.0  0.37373  0.59193  0.87101  1.0000
  C   C1123     1.0  0.38953  0.59668  0.87923  1.0000
  H   H901      1.0  0.38994  0.56136  0.91010  1.0000
  H   H902      1.0  0.36236  0.55291  0.89463  1.0000
  H   H903      1.0  0.36916  0.60052  0.86033  1.0000
  H   H904      1.0  0.39710  0.60890  0.87499  1.0000
  C   C1124     1.0  0.44658  0.69059  0.85522  1.0000
  C   C1125     1.0  0.46188  0.69499  0.86532  1.0000
  C   C1126     1.0  0.47020  0.71119  0.86873  1.0000
  C   C1127     1.0  0.46328  0.72318  0.86250  1.0000
  C   C1128     1.0  0.44788  0.71878  0.85280  1.0000
  C   C1129     1.0  0.43965  0.70258  0.84894  1.0000
  H   H905      1.0  0.46738  0.68596  0.87028  1.0000
  H   H906      1.0  0.35172  0.59694  0.97364  1.0000
  H   H907      1.0  0.44243  0.72788  0.84783  1.0000
  H   H908      1.0  0.42783  0.69930  0.84110  1.0000
  H   H909      1.0  0.37498  0.84092  0.73609  1.0000
  H   H910      1.0  0.37088  0.52477  0.87203  1.0000
  H   H911      1.0  0.41641  0.95693  0.68967  1.0000
  H   H912      1.0  0.28653  0.70326  0.98038  1.0000
  H   H913      1.0  0.38915  0.86655  0.70989  1.0000
  C   C1130     1.0  0.47547  0.49931  0.52389  1.0000
  C   C1131     1.0  0.46520  0.52407  0.67675  1.0000
  C   C1132     1.0  0.45154  0.51306  0.69009  1.0000
  C   C1133     1.0  0.43688  0.51009  0.67765  1.0000
  C   C1134     1.0  0.43588  0.51843  0.65226  1.0000
  C   C1135     1.0  0.44957  0.52927  0.63882  1.0000
  C   C1136     1.0  0.46427  0.53176  0.65069  1.0000
  H   H914      1.0  0.45224  0.50709  0.71024  1.0000
  H   H915      1.0  0.43783  0.85790  0.56081  1.0000
  H   H916      1.0  0.44889  0.53549  0.61889  1.0000
  H   H917      1.0  0.47489  0.53958  0.63947  1.0000
  C   C1137     1.0  0.36768  0.82924  0.94601  1.0000
  C   C1138     1.0  0.37964  0.83877  0.92679  1.0000
  S   S178      1.0  0.48329  0.52916  0.69315  1.0000
  H   H918      1.0  0.39883  0.97971  0.72889  1.0000
  H   H919      1.0  0.26182  0.50965  0.92128  1.0000
  C   C1139     1.0  0.47423  0.52576  0.57653  1.0000
  C   C1140     1.0  0.28601  0.71236  0.96468  1.0000
  H   H920      1.0  0.47608  0.54021  0.75018  1.0000
  H   H921      1.0  0.37250  0.79535  0.49647  1.0000
  H   H922      1.0  0.25410  0.49434  0.87526  1.0000
  H   H923      1.0  0.48909  0.92000  0.67401  1.0000
  P   P37       1.0  0.40174  0.53801  0.84004  1.0000
  C   C1141     1.0  0.35551  0.76499  0.91937  1.0000
  C   C1142     1.0  0.32784  0.80964  0.97765  1.0000
  H   H924      1.0  0.29174  0.71968  0.78150  1.0000
  C   C1143     1.0  0.43288  0.54990  0.81499  1.0000
  C   C1144     1.0  0.43377  0.57453  0.68311  1.0000
  C   C1145     1.0  0.26449  0.75779  0.95604  1.0000
  H   H925      1.0  0.42036  0.98325  0.55411  1.0000
  H   H926      1.0  0.34541  0.82361  0.55939  1.0000
  C   C1146     1.0  0.39479  0.58167  0.98226  1.0000
  C   C1147     1.0  0.39857  0.50489  0.78071  1.0000
  H   H927      1.0  0.41740  0.56810  0.86562  1.0000
  H   H928      1.0  0.46052  0.71871  0.79623  1.0000
  C   C1148     1.0  0.39300  0.52579  0.69313  1.0000
  C   C1149     1.0  0.24610  0.67183  0.80067  1.0000
  H   H929      1.0  0.37796  0.84901  0.91547  1.0000
  H   H930      1.0  0.46594  0.50305  0.51536  1.0000
  C   C1150     1.0  0.46252  0.88812  0.79802  1.0000
  C   C1151     1.0  0.44009  0.71009  0.92703  1.0000
  P   P38       1.0  0.36274  0.84649  0.51229  1.0000
  H   H931      1.0  0.46416  0.98722  0.59534  1.0000
  H   H932      1.0  0.42634  0.50169  0.68811  1.0000
  C   C1152     1.0  0.47657  0.62122  0.77203  1.0000
  H   H933      1.0  0.26320  0.53757  0.90887  1.0000
  C   C1153     1.0  0.48411  0.92707  0.51481  1.0000
  C   C1154     1.0  0.38746  0.52775  0.93592  1.0000
  H   H934      1.0  0.39813  0.57940  0.96087  1.0000
  H   H935      1.0  0.36974  0.51331  0.71249  1.0000
  H   H936      1.0  0.41155  0.79278  0.93241  1.0000
  H   H937      1.0  0.24453  0.53691  0.84613  1.0000
  H   H938      1.0  0.35628  0.78118  0.53949  1.0000
  H   H939      1.0  0.47220  0.50719  0.60880  1.0000
  C   C1155     1.0  0.46626  0.51148  0.59215  1.0000
  H   H940      1.0  0.40776  0.98777  0.62395  1.0000
  H   H941      1.0  0.34351  0.55180  0.93662  1.0000
  H   H942      1.0  0.45266  0.55759  0.56084  1.0000
  C   C1156     1.0  0.38013  0.52742  0.88703  1.0000
  H   H943      1.0  0.40040  0.95718  0.56816  1.0000
  C   C1157     1.0  0.38944  0.56241  0.82288  1.0000
  C   C1158     1.0  0.40652  0.79627  0.97652  1.0000
  C   C1159     1.0  0.38593  0.98602  0.69512  1.0000
  C   C1160     1.0  0.28376  0.52770  0.97490  1.0000
  H   H944      1.0  0.48553  0.69631  0.93158  1.0000
  H   H945      1.0  0.32452  0.50247  0.77607  1.0000
  C   C1161     1.0  0.40429  0.94641  0.52959  1.0000
  H   H946      1.0  0.36333  0.51957  0.92323  1.0000
  C   C1162     1.0  0.47399  0.90075  0.80949  1.0000
  C   C1163     1.0  0.34296  0.49436  0.79320  1.0000
  C   C1164     1.0  0.25260  0.70691  0.76604  1.0000
  H   H947      1.0  0.39809  0.50522  0.86294  1.0000
  C   C1165     1.0  0.47047  0.56096  0.73462  1.0000
  C   C1166     1.0  0.43599  0.88149  0.56398  1.0000
  C   C1167     1.0  0.41971  0.60168  0.78122  1.0000
  C   C1168     1.0  0.47982  0.61907  0.74317  1.0000
  C   C1169     1.0  0.35139  0.81766  0.54540  1.0000
  C   C1170     1.0  0.32350  0.55467  0.96072  1.0000
  H   H948      1.0  0.46360  0.69263  0.78863  1.0000
  H   H949      1.0  0.39831  0.50468  0.75776  1.0000
  H   H950      1.0  0.48410  0.88484  0.73835  1.0000
  C   C1171     1.0  0.25104  0.68000  0.67759  1.0000
  C   C1172     1.0  0.48929  0.99038  0.66522  1.0000
  C   C1173     1.0  0.45471  0.87506  0.53168  1.0000
  C   C1174     1.0  0.45231  0.57451  0.82726  1.0000
  H   H951      1.0  0.42741  0.84866  0.68599  1.0000
  C   C1175     1.0  0.41947  0.96849  0.67830  1.0000
  C   C1176     1.0  0.36706  0.86944  0.58666  1.0000
  H   H952      1.0  0.44431  0.58755  0.85896  1.0000
  H   H953      1.0  0.47411  0.85036  0.87246  1.0000
  C   C1177     1.0  0.40353  0.53389  0.92673  1.0000
  S   S179      1.0  0.27196  0.52669  0.85168  1.0000
  H   H954      1.0  0.38523  0.52950  0.50769  1.0000
  H   H955      1.0  0.42045  0.54144  0.89112  1.0000
  H   H956      1.0  0.42463  0.68877  0.91027  1.0000
  C   C1178     1.0  0.45051  0.55933  0.48885  1.0000
  H   H957      1.0  0.47243  0.85116  0.72922  1.0000
  C   C1179     1.0  0.40058  0.51959  0.82355  1.0000
  H   H958      1.0  0.41061  0.93883  0.48933  1.0000
  C   C1180     1.0  0.25934  0.66134  0.92247  1.0000
  H   H959      1.0  0.25510  0.67394  0.72051  1.0000
  H   H960      1.0  0.39553  0.93499  0.53594  1.0000
  C   C1181     1.0  0.45841  0.93573  0.54711  1.0000
  C   C1182     1.0  0.46979  0.94366  0.56580  1.0000
  C   C1183     1.0  0.46552  0.95184  0.58786  1.0000
  C   C1184     1.0  0.44988  0.95207  0.59163  1.0000
  C   C1185     1.0  0.43863  0.94464  0.57262  1.0000
  C   C1186     1.0  0.44289  0.93668  0.55023  1.0000
  H   H961      1.0  0.47291  0.54273  0.54388  1.0000
  C   C1187     1.0  0.40926  0.53008  0.51483  1.0000
  H   H962      1.0  0.47417  0.95729  0.60289  1.0000
  H   H963      1.0  0.44634  0.95767  0.60965  1.0000
  H   H964      1.0  0.42639  0.94442  0.57597  1.0000
  H   H965      1.0  0.43377  0.93043  0.53644  1.0000
  C   C1188     1.0  0.45822  0.87493  0.67102  1.0000
  C   C1189     1.0  0.46935  0.86728  0.66404  1.0000
  C   C1190     1.0  0.47425  0.85855  0.68508  1.0000
  C   C1191     1.0  0.46807  0.85754  0.71309  1.0000
  C   C1192     1.0  0.45697  0.86532  0.72039  1.0000
  C   C1193     1.0  0.45222  0.87416  0.69914  1.0000
  P   P39       1.0  0.45103  0.86592  0.75737  1.0000
  C   C1194     1.0  0.44870  0.84689  0.77596  1.0000
  C   C1195     1.0  0.26810  0.70650  0.77001  1.0000
  H   H966      1.0  0.45166  0.80251  0.98427  1.0000
  C   C1196     1.0  0.45033  0.84591  0.80538  1.0000
  C   C1197     1.0  0.44769  0.83108  0.81988  1.0000
  C   C1198     1.0  0.44358  0.81714  0.80513  1.0000
  C   C1199     1.0  0.44185  0.81797  0.77590  1.0000
  C   C1200     1.0  0.44414  0.83275  0.76142  1.0000
  C   C1201     1.0  0.43240  0.87019  0.76172  1.0000
  C   C1202     1.0  0.41846  0.85839  0.77278  1.0000
  C   C1203     1.0  0.40441  0.86217  0.77779  1.0000
  C   C1204     1.0  0.40408  0.87762  0.77135  1.0000
  C   C1205     1.0  0.41786  0.88939  0.76028  1.0000
  C   C1206     1.0  0.43200  0.88575  0.75576  1.0000
  H   H967      1.0  0.45461  0.88191  0.65477  1.0000
  H   H968      1.0  0.47446  0.86844  0.64248  1.0000
  H   H969      1.0  0.44401  0.88059  0.70415  1.0000
  H   H970      1.0  0.36007  0.80842  0.97462  1.0000
  H   H971      1.0  0.45340  0.85649  0.81729  1.0000
  H   H972      1.0  0.44871  0.83030  0.84265  1.0000
  H   H973      1.0  0.44161  0.80567  0.81644  1.0000
  H   H974      1.0  0.43866  0.80712  0.76455  1.0000
  H   H975      1.0  0.44230  0.83308  0.73893  1.0000
  H   H976      1.0  0.41834  0.84630  0.77763  1.0000
  H   H977      1.0  0.39366  0.85307  0.78623  1.0000
  H   H978      1.0  0.39310  0.88044  0.77468  1.0000
  C   C1207     1.0  0.42868  0.50621  0.48860  1.0000
  C   C1208     1.0  0.41840  0.97368  0.53972  1.0000
  C   C1209     1.0  0.48278  0.61390  0.79344  1.0000
  C   C1210     1.0  0.43686  0.59587  0.64687  1.0000
  C   C1211     1.0  0.44461  0.58844  0.62829  1.0000
  C   C1212     1.0  0.44699  0.57409  0.63701  1.0000
  C   C1213     1.0  0.44166  0.56719  0.66429  1.0000
  H   H979      1.0  0.37658  0.52573  0.55900  1.0000
  C   C1214     1.0  0.36661  0.80157  0.51015  1.0000
  H   H980      1.0  0.41547  0.87065  0.68511  1.0000
  H   H981      1.0  0.43507  0.60703  0.64012  1.0000
  H   H982      1.0  0.44885  0.59380  0.60719  1.0000
  H   H983      1.0  0.45311  0.56834  0.62274  1.0000
  H   H984      1.0  0.44383  0.55615  0.67066  1.0000
  C   C1215     1.0  0.44112  0.57705  0.84660  1.0000
  C   C1216     1.0  0.24574  0.50066  0.87073  1.0000
  H   H985      1.0  0.44258  0.89510  0.74731  1.0000
  H   H986      1.0  0.43682  0.64852  0.80283  1.0000
  C   C1217     1.0  0.37705  0.82533  0.82458  1.0000
  C   C1218     1.0  0.39077  0.82449  0.83712  1.0000
  C   C1219     1.0  0.40184  0.81929  0.82176  1.0000
  C   C1220     1.0  0.39913  0.81487  0.79390  1.0000
  C   C1221     1.0  0.38511  0.81523  0.78145  1.0000
  C   C1222     1.0  0.37414  0.82062  0.79690  1.0000
  P   P40       1.0  0.38248  0.81114  0.74461  1.0000
  C   C1223     1.0  0.38971  0.79492  0.73544  1.0000
  C   C1224     1.0  0.36161  0.80397  0.73783  1.0000
  C   C1225     1.0  0.35551  0.81044  0.71494  1.0000
  C   C1226     1.0  0.33942  0.80421  0.70940  1.0000
  C   C1227     1.0  0.32943  0.79116  0.72604  1.0000
  C   C1228     1.0  0.33556  0.78430  0.74816  1.0000
  C   C1229     1.0  0.35152  0.79080  0.75431  1.0000
  C   C1230     1.0  0.39388  0.79319  0.70702  1.0000
  C   C1231     1.0  0.39925  0.78048  0.69985  1.0000
  C   C1232     1.0  0.40011  0.76920  0.72091  1.0000
  C   C1233     1.0  0.39537  0.77049  0.74906  1.0000
  C   C1234     1.0  0.38999  0.78318  0.75626  1.0000
  C   C1235     1.0  0.39287  0.82980  0.72511  1.0000
  C   C1236     1.0  0.40800  0.83237  0.71175  1.0000
  C   C1237     1.0  0.41594  0.84692  0.69686  1.0000
  C   C1238     1.0  0.40917  0.85924  0.69615  1.0000
  C   C1239     1.0  0.39435  0.85694  0.71014  1.0000
  C   C1240     1.0  0.38629  0.84235  0.72480  1.0000
  H   H987      1.0  0.36858  0.82959  0.83634  1.0000
  H   H988      1.0  0.39272  0.82767  0.85885  1.0000
  H   H989      1.0  0.41239  0.81845  0.83163  1.0000
  H   H990      1.0  0.40795  0.81113  0.78217  1.0000
  H   H991      1.0  0.36343  0.82140  0.78755  1.0000
  H   H992      1.0  0.36303  0.82028  0.70126  1.0000
  H   H993      1.0  0.33469  0.80956  0.69227  1.0000
  H   H994      1.0  0.31695  0.78638  0.72188  1.0000
  H   H995      1.0  0.32788  0.77408  0.76091  1.0000
  H   H996      1.0  0.35600  0.78547  0.77188  1.0000
  H   H997      1.0  0.39288  0.80162  0.69040  1.0000
  H   H998      1.0  0.40261  0.77929  0.67794  1.0000
  H   H999      1.0  0.40423  0.75932  0.71539  1.0000
  H   H1000     1.0  0.39567  0.76156  0.76533  1.0000
  H   H1001     1.0  0.38584  0.78366  0.77802  1.0000
  H   H1002     1.0  0.41377  0.82327  0.71297  1.0000
  C   C1241     1.0  0.27135  0.71227  0.95421  1.0000
  C   C1242     1.0  0.41285  0.94860  0.50336  1.0000
  H   H1003     1.0  0.48329  0.85304  0.67998  1.0000
  H   H1004     1.0  0.40229  0.58075  0.72606  1.0000
  H   H1005     1.0  0.46830  0.94499  0.66112  1.0000
  C   C1243     1.0  0.24569  0.65778  0.81593  1.0000
  H   H1006     1.0  0.25836  0.67348  0.66840  1.0000
  C   C1244     1.0  0.36324  0.55759  0.80486  1.0000
  H   H1007     1.0  0.41259  0.53656  0.94213  1.0000
  H   H1008     1.0  0.40290  0.84229  0.90688  1.0000
  C   C1245     1.0  0.48550  0.80310  0.96890  1.0000
  H   H1009     1.0  0.44646  0.58290  0.76388  1.0000
  H   H1010     1.0  0.27790  0.55918  0.93773  1.0000
  C   C1246     1.0  0.37664  0.77776  0.94998  1.0000
  C   C1247     1.0  0.48107  0.88895  0.75838  1.0000
  H   H1011     1.0  0.42647  0.53372  0.74233  1.0000
  H   H1012     1.0  0.37787  0.97397  0.69416  1.0000
  C   C1248     1.0  0.27522  0.51547  0.95847  1.0000
  H   H1013     1.0  0.35012  0.87196  0.49480  1.0000
  C   C1249     1.0  0.47414  0.66720  0.77315  1.0000
  C   C1250     1.0  0.44121  0.52011  0.49308  1.0000
  C   C1251     1.0  0.43580  0.58628  0.76264  1.0000
  P   P41       1.0  0.42706  0.56545  0.71843  1.0000
  H   H1014     1.0  0.34095  0.52832  0.96893  1.0000
  C   C1252     1.0  0.24421  0.64993  0.92507  1.0000
  C   C1253     1.0  0.43338  0.59704  0.78182  1.0000
  C   C1254     1.0  0.42450  0.58001  0.74262  1.0000
  C   C1255     1.0  0.24030  0.52462  0.85446  1.0000
  H   H1015     1.0  0.32762  0.81650  0.95821  1.0000
  C   C1256     1.0  0.28345  0.78341  0.96415  1.0000
  H   H1016     1.0  0.48635  0.53247  0.58090  1.0000
  S   S180      1.0  0.30958  0.50522  0.95995  1.0000
  C   C1257     1.0  0.42153  0.55234  0.83444  1.0000
  H   H1017     1.0  0.27393  0.68446  0.93323  1.0000
  C   C1258     1.0  0.26300  0.71565  0.85625  1.0000
  C   C1259     1.0  0.44919  0.55251  0.51663  1.0000
  C   C1260     1.0  0.41105  0.58519  0.74157  1.0000
  H   H1018     1.0  0.30124  0.58311  0.94144  1.0000
  P   P42       1.0  0.44043  0.53126  0.52395  1.0000
  C   C1261     1.0  0.43254  0.79743  0.95589  1.0000
  H   H1019     1.0  0.48212  0.71445  0.87615  1.0000
  C   C1262     1.0  0.46264  0.58564  0.50576  1.0000
  C   C1263     1.0  0.40860  0.59585  0.76097  1.0000
  H   H1020     1.0  0.37079  0.52264  0.81711  1.0000
  C   C1264     1.0  0.46042  0.70632  0.95701  1.0000
  C   C1265     1.0  0.44123  0.68347  0.93796  1.0000
  H   H1021     1.0  0.37242  0.53146  0.75182  1.0000
  H   H1022     1.0  0.42557  0.59498  0.68820  1.0000
  C   C1266     1.0  0.27245  0.73186  0.85287  1.0000
  C   C1267     1.0  0.38375  0.81198  0.95576  1.0000
  C   C1268     1.0  0.24886  0.73901  0.84393  1.0000
  H   H1023     1.0  0.26027  0.72375  0.92341  1.0000
  H   H1024     1.0  0.41757  0.90134  0.75477  1.0000
  C   C1269     1.0  0.41635  0.79520  0.95306  1.0000
  H   H1025     1.0  0.31598  0.54270  0.95739  1.0000
  H   H1026     1.0  0.48056  0.87212  0.83435  1.0000
  C   C1270     1.0  0.34380  0.58514  0.97009  1.0000
  H   H1027     1.0  0.48175  0.94296  0.56451  1.0000
  H   H1028     1.0  0.45637  0.64441  0.71981  1.0000
  H   H1029     1.0  0.43011  0.53944  0.80276  1.0000
  C   C1271     1.0  0.44498  0.64513  0.76067  1.0000
  C   C1272     1.0  0.36817  0.81760  0.50354  1.0000
  H   H1030     1.0  0.25158  0.68312  0.80977  1.0000
  C   C1273     1.0  0.45536  0.99085  0.55444  1.0000
  C   C1274     1.0  0.44819  0.56096  0.81144  1.0000
  C   C1275     1.0  0.27652  0.73443  0.78036  1.0000
  H   H1031     1.0  0.42632  0.87787  0.58024  1.0000
  H   H1032     1.0  0.43680  0.67073  0.93544  1.0000
  H   H1033     1.0  0.44845  0.61979  0.97536  1.0000
  H   H1034     1.0  0.35369  0.56203  0.79862  1.0000
  H   H1035     1.0  0.36145  0.57888  0.94449  1.0000
  C   C1276     1.0  0.35747  0.79359  0.53436  1.0000
  C   C1277     1.0  0.48950  0.70146  0.78420  1.0000
  H   H1036     1.0  0.35648  0.78587  0.94134  1.0000
  C   C1278     1.0  0.36105  0.54122  0.80594  1.0000
  C   C1279     1.0  0.44680  0.65159  0.78725  1.0000
  C   C1280     1.0  0.36292  0.75359  0.91340  1.0000
  H   H1037     1.0  0.44004  0.79672  0.93752  1.0000
  H   H1038     1.0  0.45694  0.55907  0.79648  1.0000
  H   H1039     1.0  0.46684  0.99099  0.68332  1.0000
  C   C1281     1.0  0.39605  0.54645  0.73721  1.0000
  H   H1040     1.0  0.48412  0.74268  0.79797  1.0000
  C   C1282     1.0  0.45048  0.50313  0.58694  1.0000
  C   C1283     1.0  0.42419  0.96336  0.49519  1.0000
  H   H1041     1.0  0.46266  0.66707  0.81457  1.0000
  C   C1284     1.0  0.45077  0.53544  0.74802  1.0000
  H   H1042     1.0  0.29381  0.50462  0.80114  1.0000
  C   C1285     1.0  0.37301  0.53542  0.81557  1.0000
  C   C1286     1.0  0.47421  0.95766  0.66207  1.0000
  C   C1287     1.0  0.45051  0.52361  0.55083  1.0000
  H   H1043     1.0  0.48663  0.91714  0.55641  1.0000
  C   C1288     1.0  0.37748  0.56818  0.81305  1.0000
  C   C1289     1.0  0.40793  0.53680  0.89770  1.0000
  H   H1044     1.0  0.39802  0.59949  0.76048  1.0000
  H   H1045     1.0  0.43039  0.50254  0.56263  1.0000
  C   C1290     1.0  0.45300  0.71641  0.94374  1.0000
  C   C1291     1.0  0.39961  0.52624  0.57258  1.0000
  H   H1046     1.0  0.35792  0.74468  0.89838  1.0000
  H   H1047     1.0  0.35674  0.83209  0.94957  1.0000
  C   C1292     1.0  0.42715  0.97598  0.51344  1.0000
  H   H1048     1.0  0.47116  0.90549  0.82909  1.0000
  H   H1049     1.0  0.37893  0.58081  0.81314  1.0000
  H   H1050     1.0  0.37656  0.87561  0.59969  1.0000
  H   H1051     1.0  0.43486  0.71798  0.91579  1.0000
  C   C1293     1.0  0.44205  0.89752  0.55425  1.0000
  C   C1294     1.0  0.46143  0.66225  0.79375  1.0000
  C   C1295     1.0  0.39623  0.53391  0.87761  1.0000
  C   C1296     1.0  0.38362  0.76581  0.94492  1.0000
  C   C1297     1.0  0.26220  0.67572  0.93586  1.0000
  C   C1298     1.0  0.38731  0.54594  0.82423  1.0000
  C   C1299     1.0  0.45773  0.64955  0.74033  1.0000
  C   C1300     1.0  0.29478  0.58648  0.95884  1.0000
  H   H1052     1.0  0.27929  0.61594  0.97511  1.0000
  C   C1301     1.0  0.40697  0.53863  0.69445  1.0000
  H   H1053     1.0  0.31045  0.74592  0.92861  1.0000
  H   H1054     1.0  0.39999  0.57088  0.83018  1.0000
  H   H1055     1.0  0.25870  0.74619  0.77787  1.0000
  S   S181      1.0  0.48020  0.61705  0.83013  1.0000
  H   H1056     1.0  0.48833  0.61962  0.62564  1.0000
  C   C1302     1.0  0.45842  0.56711  0.72686  1.0000
  C   C1303     1.0  0.46567  0.96728  0.67250  1.0000
  H   H1057     1.0  0.27099  0.69556  0.76779  1.0000
  H   H1058     1.0  0.39185  0.51770  0.67614  1.0000
  C   C1304     1.0  0.43864  0.54156  0.74049  1.0000
  C   C1305     1.0  0.27717  0.54710  0.94414  1.0000
  C   C1306     1.0  0.27119  0.72381  0.93288  1.0000
  H   H1059     1.0  0.29363  0.60756  0.93556  1.0000
  C   C1307     1.0  0.31759  0.56512  0.97580  1.0000
  C   C1308     1.0  0.46066  0.57903  0.53365  1.0000
  C   C1309     1.0  0.34935  0.57494  0.95380  1.0000
  H   H1060     1.0  0.46419  0.58304  0.82464  1.0000
  C   C1310     1.0  0.47233  0.71776  0.79258  1.0000
  C   C1311     1.0  0.40862  0.54919  0.71639  1.0000
  H   H1061     1.0  0.45734  0.72919  0.94574  1.0000
  H   H1062     1.0  0.44792  0.52303  0.75520  1.0000
  C   C1312     1.0  0.39842  0.50535  0.83998  1.0000
  C   C1313     1.0  0.24909  0.68021  0.70712  1.0000
  C   C1314     1.0  0.45388  0.56254  0.53912  1.0000
  H   H1063     1.0  0.48356  0.97967  0.54646  1.0000
  C   C1315     1.0  0.38874  0.52685  0.55230  1.0000
  H   H1064     1.0  0.45972  0.86640  0.52303  1.0000
  C   C1316     1.0  0.32799  0.58026  0.98110  1.0000
  C   C1317     1.0  0.48610  0.85518  0.86285  1.0000
  H   H1065     1.0  0.28501  0.74499  0.90772  1.0000
  H   H1066     1.0  0.39373  0.84597  0.53085  1.0000
  H   H1067     1.0  0.45489  0.50276  0.79847  1.0000
  C   C1318     1.0  0.41531  0.52762  0.56403  1.0000
  C   C1319     1.0  0.29055  0.60039  0.95545  1.0000
  C   C1320     1.0  0.43180  0.98148  0.68738  1.0000
  C   C1321     1.0  0.33923  0.55968  0.94932  1.0000
  C   C1322     1.0  0.26865  0.53481  0.92773  1.0000
  C   C1323     1.0  0.46071  0.89108  0.52172  1.0000
  C   C1324     1.0  0.41461  0.98589  0.64138  1.0000
  C   C1325     1.0  0.41127  0.85983  0.49908  1.0000
  C   C1326     1.0  0.35130  0.86773  0.59510  1.0000
  C   C1327     1.0  0.47224  0.66061  0.74643  1.0000
  H   H1068     1.0  0.44211  0.60171  0.79735  1.0000
  C   C1328     1.0  0.44242  0.87028  0.55294  1.0000
  H   H1069     1.0  0.39436  0.76571  0.95489  1.0000
  C   C1329     1.0  0.46646  0.53171  0.55575  1.0000
  C   C1330     1.0  0.40079  0.51924  0.79386  1.0000
  C   C1331     1.0  0.47328  0.98360  0.67437  1.0000
  C   C1332     1.0  0.47419  0.70288  0.78825  1.0000
  H   H1070     1.0  0.46165  0.57934  0.71811  1.0000
  Fe  Fe95      1.0  0.32434  0.51125  0.85242  1.0000
  C   C1333     1.0  0.37690  0.75392  0.92635  1.0000
  C   C1334     1.0  0.37578  0.52439  0.91607  1.0000
  H   H1071     1.0  0.41827  0.50219  0.50317  1.0000
  H   H1072     1.0  0.24190  0.63893  0.91424  1.0000
  H   H1073     1.0  0.29178  0.79472  0.95586  1.0000
  H   H1074     1.0  0.41647  0.54009  0.67842  1.0000
  C   C1335     1.0  0.34259  0.85391  0.55258  1.0000
  H   H1075     1.0  0.48280  0.56840  0.73177  1.0000
  C   C1336     1.0  0.27995  0.72017  0.77749  1.0000
  C   C1337     1.0  0.36967  0.81587  0.96034  1.0000
  H   H1076     1.0  0.43809  0.97976  0.70577  1.0000
  C   C1338     1.0  0.43908  0.80071  0.98220  1.0000
  H   H1077     1.0  0.40651  0.81878  0.93160  1.0000
  H   H1078     1.0  0.45101  0.97820  0.55118  1.0000
  C   C1339     1.0  0.35844  0.85550  0.54404  1.0000
  C   C1340     1.0  0.42012  0.52908  0.53509  1.0000
  H   H1079     1.0  0.39595  0.52472  0.59502  1.0000
  C   C1341     1.0  0.39362  0.52898  0.52344  1.0000
  S   S182      1.0  0.33981  0.49859  0.82913  1.0000
  H   H1080     1.0  0.43692  0.90588  0.56353  1.0000
  C   C1342     1.0  0.33906  0.86003  0.57798  1.0000
  C   C1343     1.0  0.39366  0.83497  0.92195  1.0000
  C   C1344     1.0  0.48318  0.78684  0.97449  1.0000
  C   C1345     1.0  0.29963  0.73634  0.93532  1.0000
  H   H1081     1.0  0.26879  0.65915  0.90967  1.0000
  H   H1082     1.0  0.34862  0.87242  0.61491  1.0000
  H   H1083     1.0  0.32683  0.85877  0.58452  1.0000
  C   C1346     1.0  0.30005  0.72444  0.95544  1.0000
  H   H1084     1.0  0.46954  0.62877  0.77774  1.0000
  C   C1347     1.0  0.24945  0.72148  0.76784  1.0000
  C   C1348     1.0  0.44267  0.50908  0.56618  1.0000
  C   C1349     1.0  0.39569  0.82160  0.93623  1.0000
  C   C1350     1.0  0.38055  0.52329  0.71367  1.0000
  H   H1085     1.0  0.24513  0.68810  0.63705  1.0000
  H   H1086     1.0  0.43367  0.63673  0.75586  1.0000
  H   H1087     1.0  0.41287  0.53165  0.49239  1.0000
  C   C1351     1.0  0.26785  0.51904  0.93470  1.0000
  H   H1088     1.0  0.28553  0.74493  0.78700  1.0000
  C   C1352     1.0  0.43430  0.69364  0.92393  1.0000
  H   H1089     1.0  0.38268  0.74512  0.92159  1.0000
  C   C1353     1.0  0.39574  0.85327  0.51117  1.0000
  C   C1354     1.0  0.42583  0.56602  0.85022  1.0000
  H   H1090     1.0  0.42113  0.85768  0.50943  1.0000
  C   C1355     1.0  0.24645  0.71098  0.85327  1.0000
  H   H1091     1.0  0.25780  0.74946  0.94146  1.0000
  H   H1092     1.0  0.24331  0.74802  0.83889  1.0000
  H   H1093     1.0  0.34280  0.79546  0.57077  1.0000
  H   H1094     1.0  0.38302  0.86524  0.55509  1.0000
  H   H1095     1.0  0.48542  0.56612  0.51628  1.0000
  H   H1096     1.0  0.34471  0.76482  0.90929  1.0000
  C   C1356     1.0  0.38289  0.85603  0.49778  1.0000
  P   P43       1.0  0.46289  0.92326  0.52075  1.0000
  C   C1357     1.0  0.36235  0.77705  0.93748  1.0000
  C   C1358     1.0  0.37066  0.86344  0.56122  1.0000
  C   C1359     1.0  0.27471  0.77264  0.94550  1.0000
  H   H1097     1.0  0.45084  0.88328  0.80887  1.0000
  C   C1360     1.0  0.46604  0.88197  0.77252  1.0000
  C   C1361     1.0  0.28526  0.73588  0.92371  1.0000
  H   H1098     1.0  0.46494  0.58657  0.55099  1.0000
  H   H1099     1.0  0.27610  0.77573  0.92282  1.0000
  C   C1362     1.0  0.45460  0.90251  0.53326  1.0000
  C   C1363     1.0  0.24986  0.67880  0.95181  1.0000
  C   C1364     1.0  0.40702  0.95896  0.54771  1.0000
  C   C1365     1.0  0.28498  0.54367  0.96771  1.0000
  C   C1366     1.0  0.46666  0.54512  0.74515  1.0000
  H   H1100     1.0  0.40243  0.53008  0.78101  1.0000
  H   H1101     1.0  0.27494  0.50330  0.96352  1.0000
  C   C1367     1.0  0.45412  0.68974  0.95470  1.0000
  H   H1102     1.0  0.48261  0.77919  0.95702  1.0000
  H   H1103     1.0  0.26492  0.49874  0.81245  1.0000
  H   H1104     1.0  0.33293  0.84778  0.53978  1.0000
  P   P44       1.0  0.25307  0.69750  0.96844  1.0000
  C   C1368     1.0  0.48973  0.86741  0.84142  1.0000
  C   C1369     1.0  0.48565  0.73130  0.79341  1.0000
  C   C1370     1.0  0.48954  0.73440  0.96495  1.0000
  C   C1371     1.0  0.39779  0.98923  0.71463  1.0000
  S   S183      1.0  0.48844  0.81181  0.93360  1.0000
  H   H1105     1.0  0.45931  0.68159  0.96533  1.0000
  P   P45       1.0  0.47760  0.71443  0.97747  1.0000
  H   H1106     1.0  0.38404  0.52563  0.95843  1.0000
  H   H1107     1.0  0.48386  0.73132  0.92091  1.0000
  C   C1372     1.0  0.48905  0.60935  0.73535  1.0000
  H   H1108     1.0  0.48885  0.84166  0.79860  1.0000
  C   C1373     1.0  0.45418  0.92715  0.48848  1.0000
  H   H1109     1.0  0.48186  0.66387  0.73021  1.0000
  H   H1110     1.0  0.46837  0.59834  0.50142  1.0000
  H   H1111     1.0  0.25083  0.65841  0.83644  1.0000
  C   C1374     1.0  0.33367  0.49706  0.77150  1.0000
  C   C1375     1.0  0.26322  0.75358  0.98517  1.0000
  H   H1112     1.0  0.37290  0.56206  0.98536  1.0000
  H   H1113     1.0  0.41616  0.60139  0.98581  1.0000
  C   C1376     1.0  0.28249  0.60510  0.97772  1.0000
  H   H1114     1.0  0.48974  0.61787  0.57322  1.0000
  H   H1115     1.0  0.40794  0.99390  0.50471  1.0000
  C   C1377     1.0  0.45224  0.49460  0.78155  1.0000
  C   C1378     1.0  0.29080  0.57701  0.98445  1.0000
  H   H1116     1.0  0.53808  0.43815  0.45181  1.0000
  S   S184      1.0  0.55020  0.47735  0.32335  1.0000
  S   S185      1.0  0.58924  0.47590  0.35746  1.0000
  C   C1379     1.0  0.49259  0.44154  0.47752  1.0000
  S   S186      1.0  0.51000  0.42807  0.41940  1.0000
  Fe  Fe96      1.0  0.52258  0.32771  0.19243  1.0000
  S   S187      1.0  0.54691  0.32570  0.19977  1.0000
  H   H1117     1.0  0.56360  0.39857  0.01899  1.0000
  Fe  Fe97      1.0  0.52309  0.31492  0.13175  1.0000
  S   S188      1.0  0.54728  0.31255  0.13547  1.0000
  S   S189      1.0  0.51032  0.30700  0.09156  1.0000
  Fe  Fe98      1.0  0.53808  0.30192  0.17934  1.0000
  S   S190      1.0  0.54422  0.27964  0.19350  1.0000
  Fe  Fe99      1.0  0.55362  0.33629  0.15508  1.0000
  S   S191      1.0  0.57406  0.35710  0.13557  1.0000
  S   S192      1.0  0.51331  0.30314  0.17496  1.0000
  S   S193      1.0  0.52984  0.33935  0.14828  1.0000
  Fe  Fe100     1.0  0.52759  0.16716  0.12226  1.0000
  S   S194      1.0  0.53966  0.19119  0.13889  1.0000
  S   S195      1.0  0.53539  0.16548  0.07579  1.0000
  Fe  Fe101     1.0  0.51270  0.15247  0.18275  1.0000
  S   S196      1.0  0.52362  0.17582  0.20249  1.0000
  H   H1118     1.0  0.49701  0.23644  0.16803  1.0000
  Fe  Fe102     1.0  0.51681  0.18774  0.16404  1.0000
  S   S197      1.0  0.50653  0.20842  0.16331  1.0000
  Fe  Fe103     1.0  0.54570  0.17770  0.17544  1.0000
  S   S198      1.0  0.56934  0.18584  0.19545  1.0000
  S   S199      1.0  0.50398  0.16419  0.14563  1.0000
  S   S200      1.0  0.53550  0.15378  0.15763  1.0000
  Fe  Fe104     1.0  0.66691  0.15835  0.11362  1.0000
  S   S201      1.0  0.67223  0.18479  0.10918  1.0000
  S   S202      1.0  0.67142  0.14367  0.07762  1.0000
  Fe  Fe105     1.0  0.65636  0.15608  0.17802  1.0000
  S   S203      1.0  0.66114  0.18288  0.17737  1.0000
  S   S204      1.0  0.64398  0.14218  0.22000  1.0000
  Fe  Fe106     1.0  0.64940  0.18006  0.13582  1.0000
  S   S205      1.0  0.63186  0.19173  0.11990  1.0000
  Fe  Fe107     1.0  0.68373  0.18553  0.15087  1.0000
  S   S206      1.0  0.70939  0.20179  0.15518  1.0000
  S   S207      1.0  0.64320  0.15342  0.13760  1.0000
  S   S208      1.0  0.67981  0.15893  0.15407  1.0000
  Fe  Fe108     1.0  0.65930  0.45534  0.16430  1.0000
  S   S209      1.0  0.67033  0.43867  0.18661  1.0000
  S   S210      1.0  0.65024  0.47426  0.18496  1.0000
  Fe  Fe109     1.0  0.65769  0.43825  0.10768  1.0000
  S   S211      1.0  0.66762  0.42019  0.12741  1.0000
  S   S212      1.0  0.64828  0.43308  0.06358  1.0000
  Fe  Fe110     1.0  0.65175  0.41956  0.16578  1.0000
  S   S213      1.0  0.63701  0.39715  0.19141  1.0000
  Fe  Fe111     1.0  0.68554  0.44099  0.14585  1.0000
  S   S214      1.0  0.71046  0.43923  0.13567  1.0000
  S   S215      1.0  0.64029  0.43603  0.14500  1.0000
  S   S216      1.0  0.67600  0.45922  0.12456  1.0000
  Fe  Fe112     1.0  0.61818  0.06823  0.34117  1.0000
  S   S217      1.0  0.61487  0.07951  0.38205  1.0000
  S   S218      1.0  0.63676  0.08055  0.30456  1.0000
  Fe  Fe113     1.0  0.59034  0.03692  0.35870  1.0000
  S   S219      1.0  0.58479  0.04646  0.39969  1.0000
  Fe  Fe114     1.0  0.58896  0.06950  0.37435  1.0000
  S   S220      1.0  0.57242  0.08378  0.38017  1.0000
  Fe  Fe115     1.0  0.61105  0.05544  0.40470  1.0000
  S   S221      1.0  0.61894  0.04983  0.44857  1.0000
  S   S222      1.0  0.59223  0.05954  0.33264  1.0000
  S   S223      1.0  0.61673  0.04461  0.36443  1.0000
  S   S224      1.0  0.50303  0.03811  0.36484  1.0000
  C   C1380     1.0  0.55315  0.07094  0.37687  1.0000
  C   C1381     1.0  0.55070  0.05552  0.36790  1.0000
  C   C1382     1.0  0.53523  0.04539  0.36485  1.0000
  C   C1383     1.0  0.52220  0.05073  0.37034  1.0000
  C   C1384     1.0  0.52469  0.06603  0.37985  1.0000
  C   C1385     1.0  0.54011  0.07605  0.38346  1.0000
  H   H1119     1.0  0.56069  0.05138  0.36301  1.0000
  H   H1120     1.0  0.53337  0.03354  0.35767  1.0000
  H   H1121     1.0  0.51483  0.07025  0.38439  1.0000
  H   H1122     1.0  0.54192  0.08783  0.39101  1.0000
  C   C1386     1.0  0.56524  0.04783  0.46295  1.0000
  C   C1387     1.0  0.52654  0.37559  0.17266  1.0000
  C   C1388     1.0  0.65620  0.44116  0.02898  1.0000
  C   C1389     1.0  0.64721  0.43544  0.00562  1.0000
  C   C1390     1.0  0.53696  0.40674  0.38251  1.0000
  H   H1123     1.0  0.68800  0.46824  0.99243  1.0000
  C   C1391     1.0  0.67106  0.45290  0.02410  1.0000
  H   H1124     1.0  0.63572  0.42633  0.00912  1.0000
  H   H1125     1.0  0.52367  0.20006  0.08160  1.0000
  H   H1126     1.0  0.67813  0.45732  0.04186  1.0000
  C   C1392     1.0  0.53501  0.11596  0.20336  1.0000
  C   C1393     1.0  0.73244  0.46029  0.16778  1.0000
  C   C1394     1.0  0.72968  0.44859  0.14790  1.0000
  C   C1395     1.0  0.64228  0.02944  0.40757  1.0000
  C   C1396     1.0  0.60639  0.42180  0.19810  1.0000
  H   H1127     1.0  0.72257  0.46363  0.17660  1.0000
  C   C1397     1.0  0.60757  0.43701  0.20681  1.0000
  C   C1398     1.0  0.64179  0.12446  0.24219  1.0000
  C   C1399     1.0  0.65112  0.11446  0.23797  1.0000
  C   C1400     1.0  0.64938  0.10110  0.25707  1.0000
  C   C1401     1.0  0.63818  0.09736  0.28056  1.0000
  C   C1402     1.0  0.62869  0.10720  0.28445  1.0000
  C   C1403     1.0  0.63043  0.12054  0.26539  1.0000
  H   H1128     1.0  0.65972  0.11702  0.22006  1.0000
  H   H1129     1.0  0.65681  0.09361  0.25366  1.0000
  H   H1130     1.0  0.62016  0.10466  0.30245  1.0000
  H   H1131     1.0  0.62288  0.12786  0.26871  1.0000
  C   C1404     1.0  0.67033  0.14480  0.04003  1.0000
  C   C1405     1.0  0.66808  0.15771  0.02413  1.0000
  C   C1406     1.0  0.68847  0.22763  0.08982  1.0000
  C   C1407     1.0  0.69839  0.49177  0.17472  1.0000
  C   C1408     1.0  0.67256  0.13211  0.02559  1.0000
  H   H1132     1.0  0.66613  0.16751  0.03503  1.0000
  H   H1133     1.0  0.51244  0.42287  0.05324  1.0000
  C   C1409     1.0  0.54695  0.04539  0.29140  1.0000
  H   H1134     1.0  0.67414  0.12203  0.03749  1.0000
  H   H1135     1.0  0.55900  0.36374  0.08782  1.0000
  H   H1136     1.0  0.51111  0.07451  0.20873  1.0000
  P   P46       1.0  0.68608  0.18560  0.27393  1.0000
  H   H1137     1.0  0.69119  0.00882  0.31635  1.0000
  C   C1410     1.0  0.58547  0.43404  0.30832  1.0000
  C   C1411     1.0  0.58640  0.18670  0.17415  1.0000
  C   C1412     1.0  0.58623  0.18716  0.14452  1.0000
  C   C1413     1.0  0.60021  0.18850  0.12802  1.0000
  C   C1414     1.0  0.61425  0.18884  0.14107  1.0000
  C   C1415     1.0  0.61427  0.18784  0.17071  1.0000
  C   C1416     1.0  0.60044  0.18708  0.18719  1.0000
  H   H1138     1.0  0.57543  0.18685  0.13433  1.0000
  H   H1139     1.0  0.60017  0.18928  0.10509  1.0000
  H   H1140     1.0  0.62506  0.18816  0.18088  1.0000
  H   H1141     1.0  0.60061  0.18674  0.21008  1.0000
  H   H1142     1.0  0.69689  0.43874  0.03046  1.0000
  H   H1143     1.0  0.66295  0.23448  0.22892  1.0000
  C   C1417     1.0  0.53441  0.16341  0.01782  1.0000
  C   C1418     1.0  0.52553  0.16340  0.04328  1.0000
  H   H1144     1.0  0.57127  0.42890  0.24101  1.0000
  C   C1419     1.0  0.68806  0.41792  0.05878  1.0000
  C   C1420     1.0  0.70426  0.24248  0.99764  1.0000
  H   H1145     1.0  0.54695  0.16473  0.01844  1.0000
  H   H1146     1.0  0.60664  0.07605  0.46213  1.0000
  C   C1421     1.0  0.56387  0.03406  0.47993  1.0000
  C   C1422     1.0  0.59098  0.36829  0.15255  1.0000
  C   C1423     1.0  0.60196  0.38130  0.13706  1.0000
  C   C1424     1.0  0.61598  0.39027  0.14900  1.0000
  C   C1425     1.0  0.61919  0.38625  0.17654  1.0000
  C   C1426     1.0  0.60809  0.37338  0.19231  1.0000
  C   C1427     1.0  0.59395  0.36445  0.18040  1.0000
  H   H1147     1.0  0.59973  0.38435  0.11554  1.0000
  H   H1148     1.0  0.62444  0.40013  0.13665  1.0000
  H   H1149     1.0  0.61048  0.37027  0.21369  1.0000
  H   H1150     1.0  0.58549  0.35449  0.19254  1.0000
  C   C1428     1.0  0.51988  0.31406  0.05765  1.0000
  C   C1429     1.0  0.51244  0.30764  0.03320  1.0000
  C   C1430     1.0  0.51951  0.31341  0.00590  1.0000
  C   C1431     1.0  0.55547  0.30032  0.00862  1.0000
  C   C1432     1.0  0.54129  0.33235  0.02738  1.0000
  C   C1433     1.0  0.53446  0.32628  0.05463  1.0000
  H   H1151     1.0  0.60811  0.40572  0.43742  1.0000
  H   H1152     1.0  0.67121  0.19875  0.98795  1.0000
  H   H1153     1.0  0.55241  0.34203  0.02537  1.0000
  H   H1154     1.0  0.54035  0.33122  0.07330  1.0000
  C   C1434     1.0  0.53399  0.26032  0.18236  1.0000
  C   C1435     1.0  0.54192  0.24882  0.18114  1.0000
  C   C1436     1.0  0.53384  0.23304  0.17441  1.0000
  C   C1437     1.0  0.51754  0.22841  0.16995  1.0000
  C   C1438     1.0  0.50962  0.23990  0.17121  1.0000
  C   C1439     1.0  0.51785  0.25584  0.17676  1.0000
  H   H1155     1.0  0.55439  0.25214  0.18549  1.0000
  H   H1156     1.0  0.54014  0.22438  0.17323  1.0000
  H   H1157     1.0  0.57604  0.05794  0.46255  1.0000
  H   H1158     1.0  0.51154  0.26450  0.17787  1.0000
  C   C1440     1.0  0.56316  0.38185  0.05377  1.0000
  C   C1441     1.0  0.51686  0.34162  0.27650  1.0000
  H   H1159     1.0  0.54970  0.04085  0.31158  1.0000
  H   H1160     1.0  0.52400  0.33415  0.27111  1.0000
  H   H1161     1.0  0.52299  0.34283  0.32039  1.0000
  C   C1442     1.0  0.65369  0.00863  0.30214  1.0000
  H   H1162     1.0  0.65990  0.22717  0.28069  1.0000
  C   C1443     1.0  0.64279  0.47566  0.22026  1.0000
  C   C1444     1.0  0.64554  0.46680  0.24369  1.0000
  C   C1445     1.0  0.64058  0.46939  0.27145  1.0000
  H   H1163     1.0  0.65198  0.45839  0.24056  1.0000
  C   C1446     1.0  0.65176  0.03761  0.38383  1.0000
  C   C1447     1.0  0.53773  0.46467  0.35011  1.0000
  C   C1448     1.0  0.52535  0.45142  0.34293  1.0000
  C   C1449     1.0  0.51616  0.44051  0.36426  1.0000
  C   C1450     1.0  0.51950  0.44274  0.39275  1.0000
  C   C1451     1.0  0.53128  0.45647  0.39998  1.0000
  C   C1452     1.0  0.54048  0.46734  0.37867  1.0000
  H   H1164     1.0  0.52329  0.44927  0.32089  1.0000
  H   H1165     1.0  0.50678  0.43024  0.35856  1.0000
  H   H1166     1.0  0.53378  0.45845  0.42196  1.0000
  H   H1167     1.0  0.54990  0.47754  0.38446  1.0000
  H   H1168     1.0  0.50167  0.47583  0.29819  1.0000
  H   H1169     1.0  0.55159  0.21151  0.21326  1.0000
  H   H1170     1.0  0.58720  0.08993  0.32323  1.0000
  H   H1171     1.0  0.58348  0.08670  0.27192  1.0000
  H   H1172     1.0  0.49895  0.27812  0.99695  1.0000
  P   P47       1.0  0.50579  0.21629  0.99036  1.0000
  H   H1173     1.0  0.56997  0.10844  0.19128  1.0000
  C   C1453     1.0  0.58553  0.09834  0.28037  1.0000
  C   C1454     1.0  0.58767  0.10013  0.30929  1.0000
  H   H1174     1.0  0.63275  0.48819  0.13653  1.0000
  H   H1175     1.0  0.59589  0.45118  0.22949  1.0000
  H   H1176     1.0  0.52438  0.23624  0.24900  1.0000
  H   H1177     1.0  0.70919  0.15261  0.19009  1.0000
  C   C1455     1.0  0.60803  0.07004  0.48184  1.0000
  H   H1178     1.0  0.53285  0.11319  0.36325  1.0000
  H   H1179     1.0  0.52351  0.21079  0.21966  1.0000
  C   C1456     1.0  0.54011  0.13365  0.26974  1.0000
  H   H1180     1.0  0.59202  0.11629  0.34287  1.0000
  C   C1457     1.0  0.61444  0.04425  0.27460  1.0000
  H   H1181     1.0  0.55086  0.33768  0.25679  1.0000
  C   C1458     1.0  0.59048  0.11509  0.32032  1.0000
  H   H1182     1.0  0.58966  0.36765  0.03735  1.0000
  C   C1459     1.0  0.63252  0.44617  0.37031  1.0000
  C   C1460     1.0  0.62554  0.45452  0.38839  1.0000
  C   C1461     1.0  0.60917  0.45197  0.38866  1.0000
  C   C1462     1.0  0.59981  0.44127  0.37055  1.0000
  C   C1463     1.0  0.60672  0.43298  0.35203  1.0000
  C   C1464     1.0  0.62318  0.43543  0.35216  1.0000
  P   P48       1.0  0.59473  0.42100  0.32608  1.0000
  C   C1465     1.0  0.60753  0.41470  0.30158  1.0000
  C   C1466     1.0  0.57985  0.40333  0.34219  1.0000
  C   C1467     1.0  0.57656  0.40119  0.37171  1.0000
  C   C1468     1.0  0.56497  0.38736  0.38349  1.0000
  C   C1469     1.0  0.55650  0.37570  0.36596  1.0000
  C   C1470     1.0  0.55987  0.37765  0.33665  1.0000
  C   C1471     1.0  0.57147  0.39142  0.32480  1.0000
  C   C1472     1.0  0.61120  0.40063  0.30822  1.0000
  C   C1473     1.0  0.62171  0.39597  0.29030  1.0000
  C   C1474     1.0  0.62866  0.40531  0.26567  1.0000
  C   C1475     1.0  0.62526  0.41940  0.25909  1.0000
  C   C1476     1.0  0.61474  0.42411  0.27691  1.0000
  C   C1477     1.0  0.72906  0.46218  0.07012  1.0000
  H   H1183     1.0  0.63283  0.46322  0.40180  1.0000
  H   H1184     1.0  0.60381  0.45869  0.40232  1.0000
  H   H1185     1.0  0.58727  0.43995  0.37020  1.0000
  H   H1186     1.0  0.62897  0.42956  0.33766  1.0000
  H   H1187     1.0  0.58277  0.41016  0.38566  1.0000
  H   H1188     1.0  0.56226  0.38577  0.40619  1.0000
  H   H1189     1.0  0.54722  0.36519  0.37502  1.0000
  H   H1190     1.0  0.55332  0.36850  0.32318  1.0000
  H   H1191     1.0  0.57381  0.39292  0.30203  1.0000
  H   H1192     1.0  0.60612  0.39336  0.32744  1.0000
  H   H1193     1.0  0.62454  0.38514  0.29549  1.0000
  H   H1194     1.0  0.63680  0.40171  0.25172  1.0000
  H   H1195     1.0  0.63090  0.42673  0.24016  1.0000
  H   H1196     1.0  0.61253  0.43517  0.27137  1.0000
  C   C1478     1.0  0.49315  0.19880  0.30469  1.0000
  C   C1479     1.0  0.56376  0.10849  0.43171  1.0000
  C   C1480     1.0  0.56825  0.09670  0.44646  1.0000
  H   H1197     1.0  0.69748  0.18239  0.01433  1.0000
  H   H1198     1.0  0.50392  0.23601  0.03864  1.0000
  H   H1199     1.0  0.66952  0.47961  0.06146  1.0000
  H   H1200     1.0  0.62512  0.43300  0.44702  1.0000
  H   H1201     1.0  0.60291  0.01098  0.31917  1.0000
  C   C1481     1.0  0.49368  0.41036  0.02716  1.0000
  C   C1482     1.0  0.53960  0.38400  0.03194  1.0000
  H   H1202     1.0  0.70670  0.14577  0.03702  1.0000
  C   C1483     1.0  0.69999  0.42943  0.04218  1.0000
  H   H1203     1.0  0.50103  0.33393  0.07742  1.0000
  C   C1484     1.0  0.50214  0.45354  0.28250  1.0000
  H   H1204     1.0  0.72361  0.40257  0.99706  1.0000
  H   H1205     1.0  0.57135  0.11545  0.41406  1.0000
  H   H1206     1.0  0.57931  0.09460  0.44021  1.0000
  C   C1485     1.0  0.61336  0.05673  0.48114  1.0000
  H   H1207     1.0  0.61639  0.41967  0.18697  1.0000
  C   C1486     1.0  0.71122  0.18343  0.30538  1.0000
  C   C1487     1.0  0.69701  0.23865  0.06789  1.0000
  H   H1208     1.0  0.51019  0.01423  0.22611  1.0000
  C   C1488     1.0  0.53389  0.32594  0.00287  1.0000
  C   C1489     1.0  0.50831  0.26497  0.10100  1.0000
  C   C1490     1.0  0.49933  0.24906  0.10765  1.0000
  C   C1491     1.0  0.50570  0.23691  0.10154  1.0000
  C   C1492     1.0  0.52102  0.24066  0.08869  1.0000
  C   C1493     1.0  0.53012  0.25663  0.08166  1.0000
  C   C1494     1.0  0.52360  0.26878  0.08787  1.0000
  P   P49       1.0  0.54981  0.26178  0.06430  1.0000
  C   C1495     1.0  0.56475  0.27315  0.08669  1.0000
  C   C1496     1.0  0.55540  0.24420  0.05703  1.0000
  C   C1497     1.0  0.55998  0.24128  0.02943  1.0000
  C   C1498     1.0  0.56365  0.22730  0.02440  1.0000
  C   C1499     1.0  0.56316  0.21631  0.04688  1.0000
  C   C1500     1.0  0.55952  0.21955  0.07455  1.0000
  C   C1501     1.0  0.55580  0.23348  0.07969  1.0000
  C   C1502     1.0  0.58066  0.27908  0.07592  1.0000
  C   C1503     1.0  0.59241  0.28842  0.09240  1.0000
  C   C1504     1.0  0.58837  0.29181  0.11979  1.0000
  C   C1505     1.0  0.57262  0.28573  0.13077  1.0000
  C   C1506     1.0  0.56081  0.27638  0.11440  1.0000
  C   C1507     1.0  0.54951  0.27406  0.03278  1.0000
  C   C1508     1.0  0.55598  0.29076  0.03270  1.0000
  C   C1509     1.0  0.49599  0.25451  0.25078  1.0000
  H   H1209     1.0  0.64153  0.46305  0.06509  1.0000
  H   H1210     1.0  0.59472  0.99933  0.36979  1.0000
  C   C1510     1.0  0.54184  0.26719  0.00886  1.0000
  H   H1211     1.0  0.50345  0.27438  0.10626  1.0000
  C   C1511     1.0  0.70618  0.20612  0.02921  1.0000
  H   H1212     1.0  0.49893  0.22456  0.10747  1.0000
  H   H1213     1.0  0.52557  0.23100  0.08441  1.0000
  H   H1214     1.0  0.53032  0.28123  0.08280  1.0000
  H   H1215     1.0  0.56092  0.24971  0.01168  1.0000
  H   H1216     1.0  0.56688  0.22497  0.00304  1.0000
  H   H1217     1.0  0.56571  0.20533  0.04294  1.0000
  H   H1218     1.0  0.55952  0.21118  0.09202  1.0000
  H   H1219     1.0  0.55294  0.23575  0.10135  1.0000
  H   H1220     1.0  0.58391  0.27656  0.05468  1.0000
  H   H1221     1.0  0.60465  0.29303  0.08398  1.0000
  H   H1222     1.0  0.59741  0.29907  0.13263  1.0000
  H   H1223     1.0  0.56953  0.28830  0.15208  1.0000
  H   H1224     1.0  0.54872  0.27178  0.12358  1.0000
  H   H1225     1.0  0.56111  0.29652  0.05136  1.0000
  C   C1512     1.0  0.63531  0.47463  0.10087  1.0000
  C   C1513     1.0  0.65468  0.00734  0.27264  1.0000
  C   C1514     1.0  0.53122  0.39096  0.47761  1.0000
  H   H1226     1.0  0.53618  0.25442  0.00884  1.0000
  C   C1515     1.0  0.50263  0.38325  0.04098  1.0000
  C   C1516     1.0  0.50184  0.35159  0.02330  1.0000
  H   H1227     1.0  0.50450  0.08769  0.48621  1.0000
  C   C1517     1.0  0.59817  0.35085  0.01482  1.0000
  H   H1228     1.0  0.52032  0.39909  0.06568  1.0000
  H   H1229     1.0  0.52406  0.42412  0.25140  1.0000
  S   S225      1.0  0.49860  0.12839  0.20734  1.0000
  C   C1518     1.0  0.63064  0.04606  0.27071  1.0000
  S   S226      1.0  0.49750  0.38164  0.41677  1.0000
  C   C1519     1.0  0.49837  0.35541  0.26358  1.0000
  C   C1520     1.0  0.59914  0.33526  0.01587  1.0000
  C   C1521     1.0  0.59238  0.32467  0.03930  1.0000
  C   C1522     1.0  0.58464  0.32956  0.06184  1.0000
  C   C1523     1.0  0.59044  0.35567  0.03762  1.0000
  S   S227      1.0  0.50596  0.36138  0.34850  1.0000
  P   P50       1.0  0.63511  0.00839  0.31958  1.0000
  H   H1230     1.0  0.64338  0.03485  0.42789  1.0000
  H   H1231     1.0  0.51531  0.40972  0.29873  1.0000
  H   H1232     1.0  0.49639  0.18599  0.10175  1.0000
  C   C1524     1.0  0.73816  0.46147  0.04539  1.0000
  C   C1525     1.0  0.50620  0.41151  0.04485  1.0000
  C   C1526     1.0  0.51088  0.15931  0.99033  1.0000
  C   C1527     1.0  0.53172  0.10673  0.34407  1.0000
  H   H1233     1.0  0.53644  0.06158  0.31035  1.0000
  C   C1528     1.0  0.50203  0.15952  0.01574  1.0000
  H   H1234     1.0  0.70240  0.16921  0.05886  1.0000
  H   H1235     1.0  0.59307  0.31265  0.03992  1.0000
  H   H1236     1.0  0.57936  0.32140  0.08005  1.0000
  H   H1237     1.0  0.62151  0.37539  0.03781  1.0000
  H   H1238     1.0  0.49097  0.38539  0.48467  1.0000
  H   H1239     1.0  0.54411  0.41764  0.22055  1.0000
  C   C1529     1.0  0.49545  0.43691  0.28491  1.0000
  C   C1530     1.0  0.64977  0.03099  0.35732  1.0000
  C   C1531     1.0  0.55394  0.43423  0.37856  1.0000
  C   C1532     1.0  0.59111  0.12834  0.30243  1.0000
  C   C1533     1.0  0.58899  0.12670  0.27326  1.0000
  C   C1534     1.0  0.58597  0.11152  0.26248  1.0000
  P   P51       1.0  0.58796  0.14345  0.25088  1.0000
  C   C1535     1.0  0.56839  0.14539  0.25685  1.0000
  C   C1536     1.0  0.60286  0.16155  0.26013  1.0000
  C   C1537     1.0  0.59996  0.16962  0.28371  1.0000
  C   C1538     1.0  0.61106  0.18401  0.29024  1.0000
  C   C1539     1.0  0.62509  0.19053  0.27317  1.0000
  C   C1540     1.0  0.62810  0.18260  0.24972  1.0000
  C   C1541     1.0  0.61713  0.16810  0.24333  1.0000
  C   C1542     1.0  0.56606  0.16024  0.25188  1.0000
  C   C1543     1.0  0.55083  0.16169  0.25522  1.0000
  C   C1544     1.0  0.53786  0.14841  0.26412  1.0000
  C   C1545     1.0  0.55529  0.13208  0.26587  1.0000
  C   C1546     1.0  0.59157  0.14096  0.21364  1.0000
  C   C1547     1.0  0.58407  0.14740  0.19286  1.0000
  C   C1548     1.0  0.58792  0.14670  0.16400  1.0000
  C   C1549     1.0  0.59924  0.13953  0.15567  1.0000
  C   C1550     1.0  0.60668  0.13298  0.17622  1.0000
  C   C1551     1.0  0.60298  0.13383  0.20504  1.0000
  H   H1240     1.0  0.59303  0.13974  0.31154  1.0000
  H   H1241     1.0  0.58391  0.10980  0.24032  1.0000
  H   H1242     1.0  0.58898  0.16494  0.29677  1.0000
  H   H1243     1.0  0.60867  0.19024  0.30830  1.0000
  H   H1244     1.0  0.63354  0.20178  0.27799  1.0000
  H   H1245     1.0  0.63892  0.18768  0.23628  1.0000
  H   H1246     1.0  0.61983  0.16225  0.22501  1.0000
  H   H1247     1.0  0.57594  0.17063  0.24458  1.0000
  H   H1248     1.0  0.54903  0.17303  0.25006  1.0000
  H   H1249     1.0  0.52606  0.14952  0.26621  1.0000
  H   H1250     1.0  0.57552  0.15334  0.19871  1.0000
  H   H1251     1.0  0.58243  0.15215  0.14812  1.0000
  H   H1252     1.0  0.60255  0.13940  0.13333  1.0000
  H   H1253     1.0  0.61576  0.12775  0.16989  1.0000
  H   H1254     1.0  0.60945  0.12938  0.22056  1.0000
  C   C1552     1.0  0.55118  0.38615  0.14392  1.0000
  C   C1553     1.0  0.67066  0.16746  0.32335  1.0000
  H   H1255     1.0  0.57179  0.35574  0.98791  1.0000
  H   H1256     1.0  0.64448  0.00663  0.26025  1.0000
  H   H1257     1.0  0.51369  0.30842  0.98720  1.0000
  C   C1554     1.0  0.53917  0.03532  0.44582  1.0000
  H   H1258     1.0  0.67227  0.20905  0.03627  1.0000
  H   H1259     1.0  0.69610  0.22821  0.16077  1.0000
  C   C1555     1.0  0.66035  0.19670  0.00104  1.0000
  H   H1260     1.0  0.67255  0.26173  0.06413  1.0000
  C   C1556     1.0  0.70755  0.40598  0.07496  1.0000
  H   H1261     1.0  0.66492  0.41122  0.00771  1.0000
  H   H1262     1.0  0.52832  0.10378  0.46674  1.0000
  H   H1263     1.0  0.52804  0.37772  0.21744  1.0000
  H   H1264     1.0  0.56384  0.15113  0.08373  1.0000
  H   H1265     1.0  0.53268  0.45784  0.48259  1.0000
  H   H1266     1.0  0.69279  0.21822  0.09788  1.0000
  H   H1267     1.0  0.50255  0.04672  0.42470  1.0000
  C   C1557     1.0  0.51562  0.09347  0.30673  1.0000
  C   C1558     1.0  0.49750  0.36012  0.29174  1.0000
  C   C1559     1.0  0.49164  0.11972  0.24264  1.0000
  H   H1268     1.0  0.69794  0.26015  0.04298  1.0000
  C   C1560     1.0  0.50929  0.16153  0.04205  1.0000
  H   H1269     1.0  0.73171  0.41750  0.05929  1.0000
  C   C1561     1.0  0.70884  0.23287  0.16200  1.0000
  C   C1562     1.0  0.49100  0.17484  0.24567  1.0000
  C   C1563     1.0  0.51614  0.34647  0.30458  1.0000
  S   S228      1.0  0.50827  0.34021  0.21978  1.0000
  S   S229      1.0  0.59025  0.48006  0.43857  1.0000
  C   C1564     1.0  0.71248  0.19130  0.07884  1.0000
  C   C1565     1.0  0.56661  0.37789  0.24233  1.0000
  H   H1270     1.0  0.61848  0.44683  0.20199  1.0000
  C   C1566     1.0  0.63841  0.01602  0.35445  1.0000
  C   C1567     1.0  0.58371  0.34505  0.06098  1.0000
  H   H1271     1.0  0.50780  0.22073  0.32116  1.0000
  C   C1568     1.0  0.50799  0.34607  0.25569  1.0000
  H   H1272     1.0  0.64528  0.44843  0.36967  1.0000
  H   H1273     1.0  0.56138  0.41761  0.31294  1.0000
  H   H1274     1.0  0.55670  0.12047  0.26947  1.0000
  C   C1569     1.0  0.53633  0.09411  0.23517  1.0000
  C   C1570     1.0  0.49816  0.19168  0.08053  1.0000
  C   C1571     1.0  0.50733  0.99915  0.29460  1.0000
  C   C1572     1.0  0.55363  0.36945  0.07223  1.0000
  H   H1275     1.0  0.57716  0.13228  0.06552  1.0000
  H   H1276     1.0  0.55420  0.05906  0.43233  1.0000
  C   C1573     1.0  0.54326  0.42124  0.36665  1.0000
  C   C1574     1.0  0.59239  0.40912  0.20417  1.0000
  H   H1277     1.0  0.49967  0.42958  0.27085  1.0000
  H   H1278     1.0  0.55871  0.44552  0.36624  1.0000
  C   C1575     1.0  0.58873  0.43735  0.46021  1.0000
  C   C1576     1.0  0.50633  0.35562  0.31256  1.0000
  C   C1577     1.0  0.54993  0.11724  0.19084  1.0000
  H   H1279     1.0  0.51663  0.10372  0.23484  1.0000
  C   C1578     1.0  0.71602  0.20788  0.07645  1.0000
  H   H1280     1.0  0.67595  0.41840  0.05960  1.0000
  H   H1281     1.0  0.50453  0.44615  0.46766  1.0000
  H   H1282     1.0  0.65705  0.24137  0.10129  1.0000
  H   H1283     1.0  0.52995  0.12338  0.27641  1.0000
  C   C1579     1.0  0.55616  0.38907  0.03351  1.0000
  C   C1580     1.0  0.53976  0.05687  0.23926  1.0000
  C   C1581     1.0  0.56189  0.44042  0.29486  1.0000
  H   H1284     1.0  0.56201  0.07811  0.47935  1.0000
  C   C1582     1.0  0.63250  0.48058  0.27623  1.0000
  H   H1285     1.0  0.57237  0.17910  0.06461  1.0000
  H   H1286     1.0  0.69191  0.48760  0.19507  1.0000
  C   C1583     1.0  0.50870  0.01358  0.24906  1.0000
  C   C1584     1.0  0.63439  0.48657  0.22498  1.0000
  C   C1585     1.0  0.56894  0.42943  0.30574  1.0000
  C   C1586     1.0  0.54732  0.39981  0.25049  1.0000
  C   C1587     1.0  0.70667  0.18309  0.22966  1.0000
  C   C1588     1.0  0.59319  0.14977  0.03572  1.0000
  C   C1589     1.0  0.61070  0.02044  0.30504  1.0000
  C   C1590     1.0  0.55555  0.36246  0.24362  1.0000
  C   C1591     1.0  0.70280  0.18955  0.03155  1.0000
  C   C1592     1.0  0.70481  0.15881  0.20620  1.0000
  H   H1287     1.0  0.57778  0.34882  0.07856  1.0000
  H   H1288     1.0  0.62327  0.00851  0.42317  1.0000
  C   C1593     1.0  0.54310  0.09417  0.30804  1.0000
  C   C1594     1.0  0.67699  0.25218  0.07119  1.0000
  H   H1289     1.0  0.71440  0.18552  0.09850  1.0000
  C   C1595     1.0  0.55830  0.10726  0.20087  1.0000
  C   C1596     1.0  0.66685  0.00886  0.31790  1.0000
  H   H1290     1.0  0.72067  0.49036  0.18909  1.0000
  C   C1597     1.0  0.58546  0.36712  0.26527  1.0000
  C   C1598     1.0  0.51355  0.19975  0.06923  1.0000
  S   S230      1.0  0.57219  0.01385  0.34567  1.0000
  H   H1291     1.0  0.50706  0.10499  0.34023  1.0000
  C   C1599     1.0  0.52470  0.99819  0.35640  1.0000
  H   H1292     1.0  0.59502  0.47272  0.28231  1.0000
  C   C1600     1.0  0.51524  0.05944  0.45881  1.0000
  H   H1293     1.0  0.57597  0.38586  0.05519  1.0000
  H   H1294     1.0  0.49802  0.06086  0.29765  1.0000
  H   H1295     1.0  0.71279  0.19566  0.23170  1.0000
  C   C1601     1.0  0.58157  0.38013  0.25356  1.0000
  H   H1296     1.0  0.50439  0.09033  0.29686  1.0000
  H   H1297     1.0  0.60978  0.05316  0.26524  1.0000
  H   H1298     1.0  0.63846  0.05645  0.25851  1.0000
  C   C1602     1.0  0.68508  0.15882  0.24333  1.0000
  H   H1299     1.0  0.57742  0.34172  0.27531  1.0000
  H   H1300     1.0  0.52868  0.39664  0.37322  1.0000
  C   C1603     1.0  0.59474  0.44970  0.29969  1.0000
  H   H1301     1.0  0.59859  0.14128  0.02770  1.0000
  C   C1604     1.0  0.50283  0.20642  0.02550  1.0000
  C   C1605     1.0  0.57439  0.35184  0.26643  1.0000
  H   H1302     1.0  0.54583  0.12005  0.42778  1.0000
  C   C1606     1.0  0.58078  0.42670  0.22858  1.0000
  C   C1607     1.0  0.50436  0.01176  0.30831  1.0000
  C   C1608     1.0  0.58608  0.41049  0.44704  1.0000
  C   C1609     1.0  0.51719  0.10204  0.33122  1.0000
  H   H1303     1.0  0.59712  0.36885  0.27316  1.0000
  C   C1610     1.0  0.55942  0.34955  0.25586  1.0000
  H   H1304     1.0  0.59400  0.18854  0.02681  1.0000
  H   H1305     1.0  0.51396  0.36893  0.17469  1.0000
  C   C1611     1.0  0.51589  0.20733  0.04203  1.0000
  H   H1306     1.0  0.72289  0.18138  0.19560  1.0000
  H   H1307     1.0  0.51027  0.47736  0.34978  1.0000
  C   C1612     1.0  0.52991  0.37178  0.05095  1.0000
  H   H1308     1.0  0.55831  0.08830  0.23079  1.0000
  C   C1613     1.0  0.51095  0.25248  0.24728  1.0000
  H   H1309     1.0  0.54392  0.36032  0.23524  1.0000
  C   C1614     1.0  0.58772  0.46054  0.28831  1.0000
  Fe  Fe116     1.0  0.57381  0.48959  0.34101  1.0000
  H   H1310     1.0  0.52124  0.26260  0.24034  1.0000
  H   H1311     1.0  0.59031  0.39185  0.25338  1.0000
  C   C1615     1.0  0.55156  0.41841  0.42296  1.0000
  C   C1616     1.0  0.55159  0.09580  0.22314  1.0000
  H   H1312     1.0  0.60740  0.45368  0.30254  1.0000
  C   C1617     1.0  0.53072  0.39527  0.29434  1.0000
  H   H1313     1.0  0.55631  0.02995  0.26714  1.0000
  H   H1314     1.0  0.53960  0.42250  0.34533  1.0000
  C   C1618     1.0  0.67409  0.22859  0.10165  1.0000
  C   C1619     1.0  0.54060  0.41148  0.24131  1.0000
  H   H1315     1.0  0.52679  0.01160  0.46296  1.0000
  H   H1316     1.0  0.53634  0.39379  0.42189  1.0000
  C   C1620     1.0  0.54117  0.40527  0.41047  1.0000
  H   H1317     1.0  0.64326  0.46286  0.28944  1.0000
  C   C1621     1.0  0.71803  0.22268  0.15888  1.0000
  H   H1318     1.0  0.70233  0.21794  0.29300  1.0000
  H   H1319     1.0  0.52790  0.21378  0.03395  1.0000
  C   C1622     1.0  0.67502  0.21749  0.21926  1.0000
  C   C1623     1.0  0.62690  0.02197  0.30078  1.0000
  P   P52       1.0  0.56141  0.39462  0.22708  1.0000
  C   C1624     1.0  0.72444  0.18938  0.32156  1.0000
  C   C1625     1.0  0.54788  0.39755  0.47702  1.0000
  H   H1320     1.0  0.56042  0.31320  0.00866  1.0000
  C   C1626     1.0  0.50403  0.04663  0.44734  1.0000
  H   H1321     1.0  0.55451  0.00227  0.43926  1.0000
  C   C1627     1.0  0.49958  0.35741  0.08476  1.0000
  C   C1628     1.0  0.54471  0.10289  0.33236  1.0000
  H   H1322     1.0  0.55593  0.10629  0.34254  1.0000
  C   C1629     1.0  0.60447  0.03140  0.29165  1.0000
  C   C1630     1.0  0.55801  0.43289  0.40665  1.0000
  H   H1323     1.0  0.55497  0.12602  0.17342  1.0000
  C   C1631     1.0  0.52849  0.08925  0.29517  1.0000
  H   H1324     1.0  0.56605  0.44323  0.41572  1.0000
  H   H1325     1.0  0.57209  0.39670  0.16580  1.0000
  H   H1326     1.0  0.70329  0.21151  0.01012  1.0000
  C   C1632     1.0  0.54937  0.11098  0.43934  1.0000
  H   H1327     1.0  0.59198  0.03021  0.29530  1.0000
  H   H1328     1.0  0.55325  0.09124  0.29935  1.0000
  H   H1329     1.0  0.73077  0.18150  0.32935  1.0000
  H   H1330     1.0  0.64958  0.03710  0.28148  1.0000
  H   H1331     1.0  0.54975  0.03998  0.22076  1.0000
  H   H1332     1.0  0.49703  0.37937  0.09993  1.0000
  H   H1333     1.0  0.62305  0.46695  0.10281  1.0000
  S   S231      1.0  0.49028  0.39863  0.35799  1.0000
  H   H1334     1.0  0.54909  0.43715  0.29406  1.0000
  C   C1633     1.0  0.63689  0.03504  0.28387  1.0000
  H   H1335     1.0  0.66968  0.20573  0.29998  1.0000
  C   C1634     1.0  0.53963  0.05731  0.29054  1.0000
  H   H1336     1.0  0.69131  0.40510  0.14412  1.0000
  C   C1635     1.0  0.49778  0.34141  0.09252  1.0000
  C   C1636     1.0  0.71223  0.39914  0.15455  1.0000
  C   C1637     1.0  0.54997  0.02083  0.48030  1.0000
  C   C1638     1.0  0.57128  0.45593  0.28600  1.0000
  C   C1639     1.0  0.69108  0.15075  0.22314  1.0000
  C   C1640     1.0  0.53632  0.06342  0.26438  1.0000
  C   C1641     1.0  0.52825  0.10451  0.22549  1.0000
  C   C1642     1.0  0.55068  0.03922  0.26629  1.0000
  P   P53       1.0  0.52692  0.07885  0.26277  1.0000
  C   C1643     1.0  0.71618  0.24910  0.16709  1.0000
  C   C1644     1.0  0.55937  0.39112  0.16826  1.0000
  C   C1645     1.0  0.53758  0.02163  0.46322  1.0000
  H   H1337     1.0  0.60504  0.33122  0.99861  1.0000
  H   H1338     1.0  0.70890  0.25675  0.17022  1.0000
  C   C1646     1.0  0.54701  0.04490  0.24022  1.0000
  H   H1339     1.0  0.67438  0.15224  0.25601  1.0000
  H   H1340     1.0  0.56578  0.46454  0.27817  1.0000
  C   C1647     1.0  0.60268  0.41449  0.44402  1.0000
  C   C1648     1.0  0.67134  0.20902  0.27741  1.0000
  P   P54       1.0  0.50120  0.20464  0.26860  1.0000
  C   C1649     1.0  0.71266  0.21542  0.05177  1.0000
  H   H1341     1.0  0.59186  0.39741  0.19741  1.0000
  H   H1342     1.0  0.53684  0.06104  0.21893  1.0000
  C   C1650     1.0  0.54199  0.39147  0.27686  1.0000
  C   C1651     1.0  0.71845  0.38911  0.17095  1.0000
  H   H1343     1.0  0.71047  0.39717  0.08836  1.0000
  C   C1652     1.0  0.71255  0.17499  0.20937  1.0000
  H   H1344     1.0  0.65851  0.15324  0.36078  1.0000
  C   C1653     1.0  0.54556  0.20899  0.23424  1.0000
  C   C1654     1.0  0.64696  0.19961  0.04514  1.0000
  H   H1345     1.0  0.51175  0.45914  0.26673  1.0000
  C   C1655     1.0  0.69183  0.40619  0.07515  1.0000
  H   H1346     1.0  0.56573  0.20570  0.25426  1.0000
  C   C1656     1.0  0.50391  0.23602  0.99271  1.0000
  C   C1657     1.0  0.59054  0.17626  0.03525  1.0000
  C   C1658     1.0  0.57934  0.41145  0.21915  1.0000
  H   H1347     1.0  0.49300  0.41729  0.48098  1.0000
  C   C1659     1.0  0.52917  0.41512  0.25867  1.0000
  H   H1348     1.0  0.52338  0.36074  0.99584  1.0000
  C   C1660     1.0  0.53939  0.10161  0.46160  1.0000
  C   C1661     1.0  0.59802  0.16566  0.02451  1.0000
  C   C1662     1.0  0.67914  0.20129  0.25927  1.0000
  C   C1663     1.0  0.67311  0.13237  0.99590  1.0000
  C   C1664     1.0  0.49564  0.36695  0.10504  1.0000
  C   C1665     1.0  0.50656  0.06927  0.25427  1.0000
  H   H1349     1.0  0.54614  0.38174  0.28370  1.0000
  H   H1350     1.0  0.52861  0.12382  0.19583  1.0000
  C   C1666     1.0  0.50314  0.24253  0.01915  1.0000
  H   H1351     1.0  0.72975  0.41920  0.19190  1.0000
  H   H1352     1.0  0.52378  0.19840  0.30892  1.0000
  H   H1353     1.0  0.52241  0.06925  0.44462  1.0000
  H   H1354     1.0  0.71764  0.45328  0.07565  1.0000
  C   C1667     1.0  0.51265  0.23739  0.25216  1.0000
  C   C1668     1.0  0.70212  0.48905  0.05965  1.0000
  C   C1669     1.0  0.57834  0.17102  0.05665  1.0000
  C   C1670     1.0  0.52428  0.40705  0.28527  1.0000
  C   C1671     1.0  0.66886  0.00698  0.25893  1.0000
  C   C1672     1.0  0.69172  0.37488  0.19088  1.0000
  C   C1673     1.0  0.70573  0.18212  0.05651  1.0000
  H   H1355     1.0  0.50225  0.16141  0.06138  1.0000
  H   H1356     1.0  0.73980  0.21011  0.34004  1.0000
  C   C1674     1.0  0.54559  0.20188  0.28429  1.0000
  H   H1357     1.0  0.50515  0.03651  0.25063  1.0000
  H   H1358     1.0  0.67301  0.38357  0.17620  1.0000
  C   C1675     1.0  0.71953  0.41749  0.05835  1.0000
  C   C1676     1.0  0.49219  0.33504  0.12002  1.0000
  H   H1359     1.0  0.66735  0.21977  0.11804  1.0000
  H   H1360     1.0  0.50221  0.01108  0.33115  1.0000
  C   C1677     1.0  0.68100  0.20565  0.23008  1.0000
  C   C1678     1.0  0.66747  0.22526  0.23745  1.0000
  H   H1361     1.0  0.62998  0.15225  0.28915  1.0000
  C   C1679     1.0  0.54375  0.08964  0.47649  1.0000
  C   C1680     1.0  0.66744  0.49374  0.09713  1.0000
  C   C1681     1.0  0.69591  0.39704  0.15634  1.0000
  H   H1362     1.0  0.69244  0.23556  0.00618  1.0000
  H   H1363     1.0  0.67617  0.22056  0.19666  1.0000
  C   C1682     1.0  0.52171  0.20506  0.26481  1.0000
  C   C1683     1.0  0.64076  0.48664  0.11973  1.0000
  C   C1684     1.0  0.66934  0.17216  0.29498  1.0000
  H   H1364     1.0  0.68376  0.36559  0.20516  1.0000
  H   H1365     1.0  0.72003  0.40890  0.14095  1.0000
  C   C1685     1.0  0.50936  0.00007  0.26484  1.0000
  C   C1686     1.0  0.52972  0.20155  0.28803  1.0000
  H   H1366     1.0  0.53438  0.38964  0.01597  1.0000
  C   C1687     1.0  0.52970  0.20858  0.23790  1.0000
  H   H1367     1.0  0.57880  0.39858  0.44279  1.0000
  H   H1368     1.0  0.65676  0.03777  0.33892  1.0000
  C   C1688     1.0  0.55830  0.08729  0.46861  1.0000
  H   H1369     1.0  0.52983  0.03574  0.43198  1.0000
  C   C1689     1.0  0.55352  0.20567  0.25741  1.0000
  C   C1690     1.0  0.68564  0.38495  0.17451  1.0000
  H   H1370     1.0  0.63769  0.12963  0.99029  1.0000
  C   C1691     1.0  0.49278  0.20506  0.35432  1.0000
  H   H1371     1.0  0.52850  0.37427  0.12732  1.0000
  H   H1372     1.0  0.66021  0.04936  0.38579  1.0000
  H   H1373     1.0  0.68181  0.17165  0.33345  1.0000
  C   C1692     1.0  0.66572  0.22110  0.26657  1.0000
  H   H1374     1.0  0.49718  0.21321  0.37081  1.0000
  C   C1693     1.0  0.66829  0.24078  0.09220  1.0000
  H   H1375     1.0  0.72788  0.47435  0.10815  1.0000
  C   C1694     1.0  0.64131  0.15648  0.29877  1.0000
  H   H1376     1.0  0.68488  0.13828  0.22030  1.0000
  H   H1377     1.0  0.55172  0.19909  0.30216  1.0000
  H   H1378     1.0  0.72378  0.34772  0.07663  1.0000
  C   C1695     1.0  0.64274  0.15159  0.32677  1.0000
  H   H1379     1.0  0.63253  0.14341  0.33882  1.0000
  C   C1696     1.0  0.72953  0.20549  0.32756  1.0000
  H   H1380     1.0  0.65338  0.16974  0.26079  1.0000
  C   C1697     1.0  0.64576  0.47237  0.07974  1.0000
  C   C1698     1.0  0.69135  0.25119  0.05916  1.0000
  C   C1699     1.0  0.65457  0.16656  0.28283  1.0000
  C   C1700     1.0  0.63232  0.19074  0.03529  1.0000
  H   H1381     1.0  0.70004  0.48017  0.07720  1.0000
  H   H1382     1.0  0.68260  0.39753  0.08853  1.0000
  C   C1701     1.0  0.57899  0.42182  0.45563  1.0000
  H   H1383     1.0  0.52665  0.38875  0.31468  1.0000
  P   P55       1.0  0.71483  0.23647  0.05075  1.0000
  C   C1702     1.0  0.50240  0.06871  0.22581  1.0000
  C   C1703     1.0  0.59480  0.43943  0.22222  1.0000
  C   C1704     1.0  0.71581  0.42923  0.04165  1.0000
  H   H1384     1.0  0.53004  0.35475  0.08543  1.0000
  C   C1705     1.0  0.72387  0.45161  0.99060  1.0000
  C   C1706     1.0  0.70808  0.37697  0.18923  1.0000
  H   H1385     1.0  0.68683  0.19988  0.21543  1.0000
  C   C1707     1.0  0.53475  0.37851  0.14607  1.0000
  H   H1386     1.0  0.62177  0.18832  0.04936  1.0000
  H   H1387     1.0  0.64746  0.20396  0.06629  1.0000
  C   C1708     1.0  0.70288  0.19353  0.29533  1.0000
  C   C1709     1.0  0.69285  0.17509  0.24673  1.0000
  C   C1710     1.0  0.51066  0.39802  0.05178  1.0000
  C   C1711     1.0  0.53467  0.38054  0.19702  1.0000
  P   P56       1.0  0.73138  0.44511  0.02241  1.0000
  H   H1388     1.0  0.55770  0.38783  0.12349  1.0000
  C   C1712     1.0  0.61228  0.42985  0.44946  1.0000
  C   C1713     1.0  0.55115  0.38857  0.19506  1.0000
  C   C1714     1.0  0.70820  0.20975  0.30112  1.0000
  C   C1715     1.0  0.71747  0.24486  0.01440  1.0000
  C   C1716     1.0  0.49504  0.06100  0.27561  1.0000
  H   H1389     1.0  0.70747  0.17094  0.30068  1.0000
  H   H1390     1.0  0.71255  0.36919  0.20241  1.0000
  C   C1717     1.0  0.55293  0.04846  0.44587  1.0000
  C   C1718     1.0  0.50138  0.25768  0.02064  1.0000
  C   C1719     1.0  0.62550  0.37856  0.99193  1.0000
  H   H1391     1.0  0.64644  0.39605  0.04746  1.0000
  C   C1720     1.0  0.65741  0.15709  0.33907  1.0000
  P   P57       1.0  0.50847  0.36588  0.05007  1.0000
  C   C1721     1.0  0.71958  0.15830  0.99871  1.0000
  H   H1392     1.0  0.49473  0.26621  0.24650  1.0000
  C   C1722     1.0  0.53709  0.36442  0.07088  1.0000
  C   C1723     1.0  0.68102  0.00850  0.30413  1.0000
  C   C1724     1.0  0.59761  0.48942  0.47001  1.0000
  Fe  Fe117     1.0  0.49479  0.40518  0.40292  1.0000
  H   H1393     1.0  0.50111  0.29824  0.03542  1.0000
  C   C1725     1.0  0.49265  0.12886  0.26645  1.0000
  C   C1726     1.0  0.66175  0.48184  0.07785  1.0000
  C   C1727     1.0  0.67664  0.45902  0.99613  1.0000
  H   H1394     1.0  0.72066  0.21470  0.09449  1.0000
  H   H1395     1.0  0.63046  0.15101  0.01368  1.0000
  C   C1728     1.0  0.50021  0.26635  0.99582  1.0000
  C   C1729     1.0  0.52716  0.16137  0.99157  1.0000
  H   H1396     1.0  0.50149  0.03490  0.30342  1.0000
  C   C1730     1.0  0.62625  0.14779  0.99285  1.0000
  H   H1397     1.0  0.50097  0.26276  0.04103  1.0000
  C   C1731     1.0  0.73153  0.25934  0.08688  1.0000
  H   H1398     1.0  0.66620  0.00925  0.34080  1.0000
  H   H1399     1.0  0.71156  0.47536  0.03131  1.0000
  C   C1732     1.0  0.72145  0.21568  0.31726  1.0000
  C   C1733     1.0  0.51152  0.35227  0.99864  1.0000
  C   C1734     1.0  0.64372  0.39328  0.02572  1.0000
  C   C1735     1.0  0.57354  0.15518  0.06754  1.0000
  H   H1400     1.0  0.54179  0.49036  0.46484  1.0000
  C   C1736     1.0  0.66097  0.20251  0.02815  1.0000
  H   H1401     1.0  0.72377  0.35210  0.02442  1.0000
  C   C1737     1.0  0.60529  0.44127  0.45750  1.0000
  C   C1738     1.0  0.73192  0.24681  0.06987  1.0000
  C   C1739     1.0  0.63157  0.18479  0.00806  1.0000
  C   C1740     1.0  0.58100  0.14459  0.05719  1.0000
  H   H1402     1.0  0.49780  0.14168  0.26389  1.0000
  P   P58       1.0  0.61296  0.17240  0.99539  1.0000
  P   P59       1.0  0.55756  0.41683  0.45887  1.0000
  C   C1741     1.0  0.49877  0.20928  0.32620  1.0000
  H   H1403     1.0  0.53940  0.01098  0.38835  1.0000
  C   C1742     1.0  0.62913  0.48890  0.25268  1.0000
  P   P60       1.0  0.73969  0.39266  0.16961  1.0000
  C   C1743     1.0  0.65415  0.40186  0.00334  1.0000
  H   H1404     1.0  0.49778  0.17109  0.26153  1.0000
  C   C1744     1.0  0.73471  0.22915  0.15939  1.0000
  C   C1745     1.0  0.62948  0.38163  0.02009  1.0000
  C   C1746     1.0  0.50585  0.02615  0.26290  1.0000
  H   H1405     1.0  0.53104  0.00678  0.33945  1.0000
  C   C1747     1.0  0.73456  0.38435  0.98964  1.0000
  C   C1748     1.0  0.49653  0.46297  0.30060  1.0000
  H   H1406     1.0  0.70348  0.11899  0.01985  1.0000
  H   H1407     1.0  0.72722  0.37906  0.11659  1.0000
  C   C1749     1.0  0.49935  0.22419  0.26092  1.0000
  C   C1750     1.0  0.73283  0.25550  0.16819  1.0000
  Fe  Fe118     1.0  0.49064  0.37420  0.37242  1.0000
  C   C1751     1.0  0.52952  0.00056  0.38416  1.0000
  C   C1752     1.0  0.71453  0.49330  0.17132  1.0000
  C   C1753     1.0  0.49442  0.03388  0.46505  1.0000
  C   C1754     1.0  0.50376  0.02526  0.29250  1.0000
  C   C1755     1.0  0.54309  0.43972  0.47236  1.0000
  C   C1756     1.0  0.68205  0.00763  0.27465  1.0000
  C   C1757     1.0  0.73484  0.47425  0.08876  1.0000
  C   C1758     1.0  0.63091  0.01457  0.40488  1.0000
  C   C1759     1.0  0.73268  0.25362  0.00240  1.0000
  H   H1408     1.0  0.73765  0.38475  0.06652  1.0000
  C   C1760     1.0  0.50602  0.48721  0.35489  1.0000
  C   C1761     1.0  0.62897  0.00786  0.37845  1.0000
  H   H1409     1.0  0.49113  0.32272  0.12591  1.0000
  S   S232      1.0  0.62779  0.48429  0.31198  1.0000
  H   H1410     1.0  0.49138  0.35892  0.24785  1.0000
  H   H1411     1.0  0.61980  0.99656  0.37681  1.0000
  C   C1762     1.0  0.70869  0.48629  0.03371  1.0000
  H   H1412     1.0  0.72079  0.26258  0.08996  1.0000
  H   H1413     1.0  0.61264  0.45333  0.46110  1.0000
  H   H1414     1.0  0.63217  0.49350  0.20711  1.0000
  C   C1763     1.0  0.66859  0.15793  0.99392  1.0000
  C   C1764     1.0  0.64574  0.18784  0.99105  1.0000
  H   H1415     1.0  0.73871  0.47636  0.99043  1.0000
  H   H1416     1.0  0.72551  0.22821  0.32163  1.0000
  H   H1417     1.0  0.73366  0.32829  0.00357  1.0000
  H   H1418     1.0  0.52349  0.19341  0.99178  1.0000
  H   H1419     1.0  0.58364  0.44660  0.46555  1.0000
  C   C1765     1.0  0.71178  0.14467  0.01622  1.0000
  H   H1420     1.0  0.53869  0.99581  0.28865  1.0000
  C   C1766     1.0  0.73847  0.38831  0.11136  1.0000
  C   C1767     1.0  0.73497  0.35402  0.03437  1.0000
  H   H1421     1.0  0.52415  0.39714  0.46661  1.0000
  H   H1422     1.0  0.69303  0.00734  0.26400  1.0000
  C   C1768     1.0  0.49046  0.19058  0.24404  1.0000
  H   H1423     1.0  0.66960  0.00614  0.23611  1.0000
  Fe  Fe119     1.0  0.59340  0.49210  0.39381  1.0000
  C   C1769     1.0  0.73493  0.35154  0.06389  1.0000
  C   C1770     1.0  0.70995  0.12953  0.00653  1.0000
  H   H1424     1.0  0.72055  0.16993  0.00628  1.0000
  C   C1771     1.0  0.55274  0.43078  0.48137  1.0000
  H   H1425     1.0  0.49022  0.42082  0.02180  1.0000
  C   C1772     1.0  0.49001  0.38218  0.02334  1.0000
  Fe  Fe120     1.0  0.57852  0.47311  0.62049  1.0000
  S   S233      1.0  0.60382  0.47537  0.60868  1.0000
  S   S234      1.0  0.55912  0.45322  0.60422  1.0000
  H   H1426     1.0  0.68793  0.48661  0.71022  1.0000
  H   H1427     1.0  0.63300  0.38565  0.94772  1.0000
  S   S235      1.0  0.50321  0.42730  0.69759  1.0000
  Fe  Fe121     1.0  0.55277  0.32708  0.86743  1.0000
  S   S236      1.0  0.54102  0.34295  0.88857  1.0000
  S   S237      1.0  0.57625  0.33800  0.84181  1.0000
  Fe  Fe122     1.0  0.52581  0.29685  0.88779  1.0000
  S   S238      1.0  0.51210  0.31108  0.90998  1.0000
  S   S239      1.0  0.51399  0.26980  0.89190  1.0000
  Fe  Fe123     1.0  0.51863  0.32777  0.87038  1.0000
  S   S240      1.0  0.50245  0.34069  0.85081  1.0000
  Fe  Fe124     1.0  0.53577  0.32489  0.92573  1.0000
  C   C1773     1.0  0.72972  0.37210  0.94456  1.0000
  S   S241      1.0  0.53059  0.31259  0.84725  1.0000
  S   S242      1.0  0.54915  0.30991  0.90559  1.0000
  Fe  Fe125     1.0  0.51436  0.16047  0.91385  1.0000
  S   S243      1.0  0.53982  0.17583  0.91166  1.0000
  H   H1428     1.0  0.54498  0.00434  0.56433  1.0000
  Fe  Fe126     1.0  0.51424  0.15621  0.84825  1.0000
  S   S244      1.0  0.53979  0.17225  0.84313  1.0000
  H   H1429     1.0  0.49430  0.41660  0.58447  1.0000
  Fe  Fe127     1.0  0.54364  0.15843  0.88134  1.0000
  S   S245      1.0  0.56253  0.14644  0.88303  1.0000
  Fe  Fe128     1.0  0.53335  0.18831  0.87385  1.0000
  S   S246      1.0  0.54524  0.21529  0.86846  1.0000
  S   S247      1.0  0.51855  0.14182  0.88592  1.0000
  S   S248      1.0  0.50745  0.17364  0.87667  1.0000
  Fe  Fe129     1.0  0.66268  0.14835  0.83703  1.0000
  S   S249      1.0  0.66696  0.17435  0.82409  1.0000
  S   S250      1.0  0.65034  0.12610  0.81199  1.0000
  Fe  Fe130     1.0  0.67017  0.15676  0.89999  1.0000
  S   S251      1.0  0.67440  0.18297  0.89100  1.0000
  S   S252      1.0  0.67272  0.14430  0.94215  1.0000
  Fe  Fe131     1.0  0.65301  0.17507  0.86459  1.0000
  S   S253      1.0  0.63497  0.18843  0.86490  1.0000
  Fe  Fe132     1.0  0.68815  0.18033  0.85152  1.0000
  S   S254      1.0  0.71242  0.19843  0.83676  1.0000
  S   S255      1.0  0.64773  0.14902  0.87667  1.0000
  S   S256      1.0  0.68508  0.15418  0.86160  1.0000
  Fe  Fe133     1.0  0.65180  0.44969  0.83785  1.0000
  S   S257      1.0  0.65515  0.42603  0.82898  1.0000
  S   S258      1.0  0.63882  0.46358  0.81053  1.0000
  Fe  Fe134     1.0  0.66541  0.44922  0.89818  1.0000
  S   S259      1.0  0.66932  0.42567  0.89265  1.0000
  S   S260      1.0  0.67464  0.46194  0.93810  1.0000
  Fe  Fe135     1.0  0.67910  0.43570  0.84873  1.0000
  S   S261      1.0  0.70260  0.43401  0.82895  1.0000
  Fe  Fe136     1.0  0.64525  0.41842  0.87400  1.0000
  S   S262      1.0  0.62542  0.39722  0.89423  1.0000
  S   S263      1.0  0.67627  0.45982  0.85481  1.0000
  S   S264      1.0  0.64080  0.44154  0.88224  1.0000
  Fe  Fe137     1.0  0.62190  0.07406  0.66958  1.0000
  S   S265      1.0  0.60177  0.08070  0.65060  1.0000
  S   S266      1.0  0.64111  0.09378  0.69086  1.0000
  Fe  Fe138     1.0  0.60914  0.03980  0.64735  1.0000
  S   S267      1.0  0.58820  0.04450  0.62847  1.0000
  Fe  Fe139     1.0  0.60558  0.06790  0.61174  1.0000
  S   S268      1.0  0.60531  0.07794  0.56622  1.0000
  Fe  Fe140     1.0  0.58672  0.05649  0.66884  1.0000
  S   S269      1.0  0.56370  0.05067  0.69501  1.0000
  S   S270      1.0  0.62679  0.06294  0.62900  1.0000
  S   S271      1.0  0.60649  0.05018  0.68934  1.0000
  C   C1774     1.0  0.50546  0.07404  0.82527  1.0000
  S   S272      1.0  0.51397  0.07117  0.62446  1.0000
  C   C1775     1.0  0.65803  0.06077  0.53681  1.0000
  C   C1776     1.0  0.54992  0.05682  0.67613  1.0000
  C   C1777     1.0  0.55505  0.06781  0.65276  1.0000
  C   C1778     1.0  0.54393  0.07239  0.63722  1.0000
  C   C1779     1.0  0.52768  0.06592  0.64501  1.0000
  C   C1780     1.0  0.52254  0.05488  0.66829  1.0000
  C   C1781     1.0  0.53367  0.05037  0.68393  1.0000
  H   H1430     1.0  0.56757  0.07273  0.64654  1.0000
  H   H1431     1.0  0.54790  0.08082  0.61904  1.0000
  H   H1432     1.0  0.51001  0.04950  0.67384  1.0000
  H   H1433     1.0  0.52962  0.04161  0.70159  1.0000
  C   C1782     1.0  0.60746  0.06879  0.53399  1.0000
  C   C1783     1.0  0.61216  0.05508  0.53336  1.0000
  C   C1784     1.0  0.61521  0.04918  0.50708  1.0000
  C   C1785     1.0  0.64829  0.04484  0.67234  1.0000
  C   C1786     1.0  0.60516  0.07605  0.50807  1.0000
  H   H1434     1.0  0.61408  0.04942  0.55306  1.0000
  H   H1435     1.0  0.61949  0.03900  0.50684  1.0000
  H   H1436     1.0  0.60150  0.08663  0.50828  1.0000
  H   H1437     1.0  0.59267  0.41127  0.94592  1.0000
  C   C1787     1.0  0.72240  0.44041  0.87443  1.0000
  C   C1788     1.0  0.72098  0.43729  0.84569  1.0000
  H   H1438     1.0  0.58237  0.00884  0.49951  1.0000
  H   H1439     1.0  0.61272  0.13656  0.91737  1.0000
  H   H1440     1.0  0.71207  0.44072  0.88711  1.0000
  C   C1789     1.0  0.65292  0.44132  0.97767  1.0000
  C   C1790     1.0  0.52758  0.99512  0.51595  1.0000
  C   C1791     1.0  0.62706  0.46835  0.71625  1.0000
  C   C1792     1.0  0.64772  0.11766  0.77778  1.0000
  C   C1793     1.0  0.63534  0.10325  0.77493  1.0000
  C   C1794     1.0  0.63290  0.09596  0.74860  1.0000
  C   C1795     1.0  0.64288  0.10289  0.72451  1.0000
  C   C1796     1.0  0.65518  0.11736  0.72733  1.0000
  C   C1797     1.0  0.65751  0.12475  0.75357  1.0000
  H   H1441     1.0  0.62759  0.09762  0.79332  1.0000
  H   H1442     1.0  0.62347  0.08481  0.74712  1.0000
  H   H1443     1.0  0.66305  0.12290  0.70903  1.0000
  H   H1444     1.0  0.66707  0.13580  0.75517  1.0000
  C   C1798     1.0  0.71300  0.05565  0.60250  1.0000
  H   H1445     1.0  0.70781  0.42808  0.98332  1.0000
  C   C1799     1.0  0.53061  0.48824  0.50708  1.0000
  H   H1446     1.0  0.50342  0.08075  0.72765  1.0000
  H   H1447     1.0  0.71135  0.40049  0.95045  1.0000
  C   C1800     1.0  0.50133  0.05442  0.76649  1.0000
  C   C1801     1.0  0.58244  0.15838  0.87643  1.0000
  C   C1802     1.0  0.59428  0.15101  0.87633  1.0000
  C   C1803     1.0  0.61034  0.16012  0.87197  1.0000
  C   C1804     1.0  0.61474  0.17672  0.86817  1.0000
  C   C1805     1.0  0.60286  0.18411  0.86738  1.0000
  C   C1806     1.0  0.58668  0.17494  0.87143  1.0000
  H   H1448     1.0  0.59100  0.13820  0.87985  1.0000
  H   H1449     1.0  0.61928  0.15426  0.87171  1.0000
  H   H1450     1.0  0.60618  0.19694  0.86399  1.0000
  H   H1451     1.0  0.57755  0.18068  0.87115  1.0000
  C   C1807     1.0  0.58935  0.35552  0.85463  1.0000
  C   C1808     1.0  0.60381  0.36372  0.83943  1.0000
  C   C1809     1.0  0.61475  0.37716  0.85042  1.0000
  C   C1810     1.0  0.61133  0.38224  0.87692  1.0000
  C   C1811     1.0  0.59670  0.37427  0.89157  1.0000
  C   C1812     1.0  0.58571  0.36112  0.88039  1.0000
  H   H1452     1.0  0.60672  0.35943  0.81950  1.0000
  H   H1453     1.0  0.62606  0.38314  0.83903  1.0000
  H   H1454     1.0  0.59397  0.37801  0.91206  1.0000
  H   H1455     1.0  0.57475  0.35487  0.89250  1.0000
  C   C1813     1.0  0.52306  0.25480  0.88663  1.0000
  C   C1814     1.0  0.51349  0.23869  0.88851  1.0000
  C   C1815     1.0  0.52011  0.22640  0.88359  1.0000
  C   C1816     1.0  0.53638  0.23015  0.87625  1.0000
  C   C1817     1.0  0.54597  0.24626  0.87468  1.0000
  C   C1818     1.0  0.53941  0.25853  0.88015  1.0000
  H   H1456     1.0  0.50083  0.23568  0.89353  1.0000
  H   H1457     1.0  0.51261  0.21406  0.88506  1.0000
  H   H1458     1.0  0.55857  0.24926  0.86920  1.0000
  H   H1459     1.0  0.54692  0.27086  0.87867  1.0000
  H   H1460     1.0  0.49678  0.42727  0.76015  1.0000
  H   H1461     1.0  0.71287  0.48569  0.87611  1.0000
  H   H1462     1.0  0.73805  0.44528  0.90908  1.0000
  C   C1819     1.0  0.54617  0.45287  0.51673  1.0000
  H   H1463     1.0  0.56642  0.04196  0.80833  1.0000
  C   C1820     1.0  0.63703  0.45938  0.72416  1.0000
  C   C1821     1.0  0.64030  0.45726  0.75289  1.0000
  C   C1822     1.0  0.63389  0.46438  0.77418  1.0000
  H   H1464     1.0  0.56537  0.35095  0.70997  1.0000
  C   C1823     1.0  0.52112  0.49341  0.59501  1.0000
  H   H1465     1.0  0.64817  0.45053  0.75843  1.0000
  C   C1824     1.0  0.54115  0.38551  0.67927  1.0000
  C   C1825     1.0  0.54298  0.44685  0.62907  1.0000
  C   C1826     1.0  0.53125  0.43230  0.62616  1.0000
  C   C1827     1.0  0.51884  0.42649  0.64699  1.0000
  C   C1828     1.0  0.51816  0.43519  0.67077  1.0000
  C   C1829     1.0  0.52957  0.45006  0.67314  1.0000
  C   C1830     1.0  0.54200  0.45591  0.65223  1.0000
  H   H1466     1.0  0.53182  0.42541  0.60796  1.0000
  H   H1467     1.0  0.50972  0.41539  0.64425  1.0000
  H   H1468     1.0  0.52888  0.45697  0.69119  1.0000
  H   H1469     1.0  0.55081  0.46737  0.65411  1.0000
  H   H1470     1.0  0.59311  0.48175  0.54223  1.0000
  H   H1471     1.0  0.70887  0.47056  0.83249  1.0000
  C   C1831     1.0  0.50347  0.48575  0.76069  1.0000
  H   H1472     1.0  0.61776  0.21306  0.91686  1.0000
  H   H1473     1.0  0.58875  0.20449  0.90991  1.0000
  C   C1832     1.0  0.57650  0.36797  0.97937  1.0000
  P   P61       1.0  0.56310  0.36988  0.75805  1.0000
  C   C1833     1.0  0.58415  0.38023  0.75970  1.0000
  C   C1834     1.0  0.56357  0.38934  0.70898  1.0000
  C   C1835     1.0  0.58938  0.39677  0.76269  1.0000
  C   C1836     1.0  0.60535  0.40480  0.76712  1.0000
  C   C1837     1.0  0.61623  0.39632  0.76870  1.0000
  C   C1838     1.0  0.61115  0.37984  0.76576  1.0000
  C   C1839     1.0  0.59516  0.37178  0.76147  1.0000
  C   C1840     1.0  0.55388  0.37323  0.79109  1.0000
  C   C1841     1.0  0.56208  0.37391  0.81611  1.0000
  C   C1842     1.0  0.55510  0.37608  0.84205  1.0000
  C   C1843     1.0  0.53979  0.37738  0.84337  1.0000
  C   C1844     1.0  0.53158  0.37679  0.81864  1.0000
  C   C1845     1.0  0.53857  0.37479  0.79256  1.0000
  H   H1474     1.0  0.57582  0.39578  0.71249  1.0000
  C   C1846     1.0  0.59761  0.48818  0.52201  1.0000
  H   H1475     1.0  0.58099  0.40337  0.76209  1.0000
  H   H1476     1.0  0.60927  0.41754  0.76991  1.0000
  H   H1477     1.0  0.62854  0.40249  0.77271  1.0000
  H   H1478     1.0  0.61953  0.37323  0.76765  1.0000
  H   H1479     1.0  0.57374  0.37235  0.81582  1.0000
  H   H1480     1.0  0.56141  0.37623  0.86128  1.0000
  H   H1481     1.0  0.53408  0.37834  0.86366  1.0000
  H   H1482     1.0  0.51951  0.37728  0.81990  1.0000
  H   H1483     1.0  0.53175  0.37413  0.77399  1.0000
  C   C1847     1.0  0.51729  0.40659  0.78910  1.0000
  C   C1848     1.0  0.51081  0.39725  0.76680  1.0000
  C   C1849     1.0  0.51944  0.39925  0.74074  1.0000
  C   C1850     1.0  0.53453  0.41066  0.73678  1.0000
  C   C1851     1.0  0.54117  0.42010  0.75908  1.0000
  C   C1852     1.0  0.53239  0.41798  0.78528  1.0000
  P   P62       1.0  0.56011  0.43586  0.75417  1.0000
  C   C1853     1.0  0.57163  0.43512  0.78477  1.0000
  C   C1854     1.0  0.57159  0.43425  0.72250  1.0000
  C   C1855     1.0  0.58690  0.43283  0.72415  1.0000
  C   C1856     1.0  0.59632  0.43332  0.69940  1.0000
  C   C1857     1.0  0.59066  0.43546  0.67284  1.0000
  C   C1858     1.0  0.57550  0.43693  0.67099  1.0000
  C   C1859     1.0  0.56604  0.43644  0.69568  1.0000
  C   C1860     1.0  0.58364  0.44875  0.79230  1.0000
  C   C1861     1.0  0.59356  0.44762  0.81406  1.0000
  C   C1862     1.0  0.59164  0.43294  0.82843  1.0000
  C   C1863     1.0  0.57960  0.41936  0.82140  1.0000
  C   C1864     1.0  0.56961  0.42043  0.79974  1.0000
  C   C1865     1.0  0.55662  0.45486  0.74857  1.0000
  C   C1866     1.0  0.56927  0.46841  0.73864  1.0000
  H   H1484     1.0  0.61939  0.00628  0.57531  1.0000
  C   C1867     1.0  0.50693  0.04686  0.50602  1.0000
  H   H1485     1.0  0.72829  0.22768  0.95164  1.0000
  C   C1868     1.0  0.54113  0.45597  0.75095  1.0000
  H   H1486     1.0  0.51056  0.40501  0.80931  1.0000
  H   H1487     1.0  0.52353  0.22660  0.72905  1.0000
  H   H1488     1.0  0.51428  0.39210  0.72343  1.0000
  H   H1489     1.0  0.54074  0.41214  0.71620  1.0000
  H   H1490     1.0  0.53716  0.42530  0.80265  1.0000
  H   H1491     1.0  0.59196  0.43202  0.74436  1.0000
  H   H1492     1.0  0.60834  0.43285  0.70080  1.0000
  H   H1493     1.0  0.59824  0.43652  0.65374  1.0000
  H   H1494     1.0  0.57124  0.43892  0.65042  1.0000
  H   H1495     1.0  0.55457  0.43825  0.69383  1.0000
  H   H1496     1.0  0.58574  0.46019  0.78108  1.0000
  H   H1497     1.0  0.60305  0.45808  0.81944  1.0000
  H   H1498     1.0  0.59963  0.43209  0.84480  1.0000
  H   H1499     1.0  0.57825  0.40796  0.83244  1.0000
  H   H1500     1.0  0.56065  0.40964  0.79420  1.0000
  H   H1501     1.0  0.58118  0.46771  0.73498  1.0000
  C   C1869     1.0  0.51775  0.10731  0.82041  1.0000
  H   H1502     1.0  0.53096  0.44564  0.75712  1.0000
  C   C1870     1.0  0.71248  0.44049  0.97569  1.0000
  H   H1503     1.0  0.56603  0.42571  0.51604  1.0000
  C   C1871     1.0  0.50511  0.99971  0.54145  1.0000
  H   H1504     1.0  0.51364  0.23030  0.81865  1.0000
  C   C1872     1.0  0.66242  0.05483  0.62660  1.0000
  S   S273      1.0  0.61105  0.01556  0.63701  1.0000
  C   C1873     1.0  0.66614  0.07196  0.66637  1.0000
  C   C1874     1.0  0.55520  0.04945  0.54149  1.0000
  H   H1505     1.0  0.50054  0.06114  0.82738  1.0000
  C   C1875     1.0  0.72134  0.25797  0.95815  1.0000
  H   H1506     1.0  0.55369  0.34224  0.80021  1.0000
  C   C1876     1.0  0.55687  0.39374  0.68490  1.0000
  H   H1507     1.0  0.56136  0.32220  0.70587  1.0000
  H   H1508     1.0  0.58087  0.16808  0.97683  1.0000
  C   C1877     1.0  0.56186  0.34290  0.72878  1.0000
  H   H1509     1.0  0.69031  0.06991  0.54385  1.0000
  H   H1510     1.0  0.67822  0.07920  0.62532  1.0000
  C   C1878     1.0  0.71300  0.46115  0.93993  1.0000
  C   C1879     1.0  0.62014  0.47493  0.73768  1.0000
  H   H1511     1.0  0.65068  0.06680  0.49595  1.0000
  H   H1512     1.0  0.71941  0.05180  0.61891  1.0000
  C   C1880     1.0  0.52164  0.09335  0.69616  1.0000
  C   C1881     1.0  0.54331  0.08820  0.73382  1.0000
  C   C1882     1.0  0.62375  0.47317  0.76629  1.0000
  C   C1883     1.0  0.61708  0.15591  0.97896  1.0000
  C   C1884     1.0  0.49395  0.34015  0.64762  1.0000
  C   C1885     1.0  0.50817  0.09967  0.84437  1.0000
  C   C1886     1.0  0.67132  0.14526  0.97972  1.0000
  C   C1887     1.0  0.50156  0.03972  0.75658  1.0000
  H   H1513     1.0  0.55288  0.04409  0.61193  1.0000
  H   H1514     1.0  0.64294  0.08961  0.51279  1.0000
  H   H1515     1.0  0.71939  0.07632  0.53828  1.0000
  C   C1888     1.0  0.53153  0.48874  0.61254  1.0000
  H   H1516     1.0  0.67822  0.02470  0.57869  1.0000
  H   H1517     1.0  0.67588  0.48210  0.75956  1.0000
  C   C1889     1.0  0.50580  0.33631  0.79283  1.0000
  C   C1890     1.0  0.69645  0.05193  0.60582  1.0000
  C   C1891     1.0  0.53301  0.48965  0.53625  1.0000
  H   H1518     1.0  0.61101  0.32812  0.88924  1.0000
  H   H1519     1.0  0.56460  0.21648  0.93631  1.0000
  H   H1520     1.0  0.51869  0.48407  0.49968  1.0000
  H   H1521     1.0  0.54747  0.01732  0.63501  1.0000
  C   C1892     1.0  0.73457  0.26014  0.97442  1.0000
  C   C1893     1.0  0.59199  0.48127  0.49654  1.0000
  C   C1894     1.0  0.72954  0.16829  0.86432  1.0000
  H   H1522     1.0  0.58317  0.46956  0.49745  1.0000
  C   C1895     1.0  0.71591  0.12800  0.97932  1.0000
  C   C1896     1.0  0.52905  0.03967  0.59836  1.0000
  C   C1897     1.0  0.49085  0.38572  0.53053  1.0000
  C   C1898     1.0  0.51514  0.08165  0.80112  1.0000
  C   C1899     1.0  0.61206  0.15164  0.95173  1.0000
  C   C1900     1.0  0.65192  0.04235  0.64416  1.0000
  C   C1901     1.0  0.66987  0.06950  0.63822  1.0000
  H   H1523     1.0  0.53037  0.24049  0.95301  1.0000
  C   C1902     1.0  0.55390  0.08058  0.54327  1.0000
  H   H1524     1.0  0.65197  0.06185  0.70483  1.0000
  H   H1525     1.0  0.55043  0.31381  0.79579  1.0000
  C   C1903     1.0  0.58716  0.08309  0.75480  1.0000
  C   C1904     1.0  0.59338  0.08789  0.72703  1.0000
  C   C1905     1.0  0.59920  0.10411  0.71853  1.0000
  C   C1906     1.0  0.59869  0.11556  0.73778  1.0000
  C   C1907     1.0  0.59263  0.11083  0.76590  1.0000
  C   C1908     1.0  0.58667  0.09448  0.77416  1.0000
  P   P63       1.0  0.59114  0.12550  0.79046  1.0000
  C   C1909     1.0  0.57311  0.13045  0.78502  1.0000
  C   C1910     1.0  0.59132  0.11740  0.82623  1.0000
  C   C1911     1.0  0.57704  0.10947  0.84214  1.0000
  C   C1912     1.0  0.57738  0.10345  0.86994  1.0000
  C   C1913     1.0  0.59194  0.10503  0.88184  1.0000
  C   C1914     1.0  0.60619  0.11256  0.86589  1.0000
  C   C1915     1.0  0.60589  0.11870  0.83821  1.0000
  C   C1916     1.0  0.56637  0.13707  0.80670  1.0000
  C   C1917     1.0  0.55269  0.14130  0.80240  1.0000
  C   C1918     1.0  0.54563  0.13908  0.77635  1.0000
  C   C1919     1.0  0.55219  0.13242  0.75463  1.0000
  C   C1920     1.0  0.56590  0.12814  0.75889  1.0000
  C   C1921     1.0  0.60805  0.14351  0.78599  1.0000
  C   C1922     1.0  0.62278  0.14306  0.77454  1.0000
  C   C1923     1.0  0.63606  0.15680  0.77262  1.0000
  C   C1924     1.0  0.63480  0.17109  0.78236  1.0000
  C   C1925     1.0  0.62030  0.17158  0.79436  1.0000
  C   C1926     1.0  0.60699  0.15786  0.79625  1.0000
  H   H1526     1.0  0.58289  0.07052  0.76127  1.0000
  H   H1527     1.0  0.59384  0.07899  0.71226  1.0000
  H   H1528     1.0  0.60431  0.10779  0.69709  1.0000
  H   H1529     1.0  0.60309  0.12808  0.73075  1.0000
  H   H1530     1.0  0.58169  0.09047  0.79552  1.0000
  H   H1531     1.0  0.56564  0.10807  0.83330  1.0000
  H   H1532     1.0  0.56632  0.09781  0.88241  1.0000
  H   H1533     1.0  0.59220  0.10051  0.90346  1.0000
  H   H1534     1.0  0.61755  0.11380  0.87491  1.0000
  H   H1535     1.0  0.61710  0.12451  0.82632  1.0000
  H   H1536     1.0  0.57170  0.13903  0.82699  1.0000
  H   H1537     1.0  0.54749  0.14617  0.81948  1.0000
  H   H1538     1.0  0.53496  0.14233  0.77322  1.0000
  H   H1539     1.0  0.54659  0.13051  0.73455  1.0000
  H   H1540     1.0  0.57081  0.12314  0.74171  1.0000
  H   H1541     1.0  0.62421  0.13200  0.76795  1.0000
  H   H1542     1.0  0.64747  0.15620  0.76445  1.0000
  H   H1543     1.0  0.64516  0.18166  0.78145  1.0000
  H   H1544     1.0  0.61953  0.18247  0.80309  1.0000
  H   H1545     1.0  0.59609  0.15848  0.80653  1.0000
  C   C1927     1.0  0.65741  0.00502  0.57246  1.0000
  C   C1928     1.0  0.66543  0.02094  0.57759  1.0000
  C   C1929     1.0  0.52672  0.26360  0.75588  1.0000
  C   C1930     1.0  0.54325  0.06964  0.52693  1.0000
  H   H1546     1.0  0.57051  0.18181  0.93967  1.0000
  C   C1931     1.0  0.65972  0.06457  0.56537  1.0000
  H   H1547     1.0  0.54213  0.10488  0.66790  1.0000
  H   H1548     1.0  0.69021  0.04515  0.62486  1.0000
  H   H1549     1.0  0.59139  0.35892  0.76049  1.0000
  H   H1550     1.0  0.56386  0.40354  0.67050  1.0000
  H   H1551     1.0  0.58260  0.23053  0.83371  1.0000
  C   C1932     1.0  0.58959  0.01249  0.54213  1.0000
  P   P64       1.0  0.53054  0.07638  0.50384  1.0000
  C   C1933     1.0  0.57835  0.00905  0.52146  1.0000
  H   H1552     1.0  0.72902  0.48453  0.94598  1.0000
  C   C1934     1.0  0.50915  0.46263  0.56896  1.0000
  H   H1553     1.0  0.54393  0.46153  0.53041  1.0000
  C   C1935     1.0  0.50068  0.25985  0.96949  1.0000
  C   C1936     1.0  0.72788  0.17236  0.89230  1.0000
  C   C1937     1.0  0.72389  0.14161  0.96187  1.0000
  P   P65       1.0  0.54132  0.24162  0.77660  1.0000
  H   H1554     1.0  0.69790  0.43683  0.93949  1.0000
  H   H1555     1.0  0.60513  0.15774  0.94021  1.0000
  C   C1938     1.0  0.65027  0.39895  0.97530  1.0000
  C   C1939     1.0  0.52155  0.27357  0.80980  1.0000
  C   C1940     1.0  0.51703  0.28057  0.78590  1.0000
  C   C1941     1.0  0.50314  0.45600  0.59633  1.0000
  C   C1942     1.0  0.64024  0.02637  0.58008  1.0000
  C   C1943     1.0  0.50244  0.33832  0.76416  1.0000
  H   H1556     1.0  0.49905  0.45380  0.73845  1.0000
  H   H1557     1.0  0.72811  0.14006  0.94072  1.0000
  C   C1944     1.0  0.54868  0.23015  0.94394  1.0000
  H   H1558     1.0  0.58267  0.34449  0.94863  1.0000
  H   H1559     1.0  0.54739  0.30087  0.96643  1.0000
  C   C1945     1.0  0.49778  0.43947  0.60176  1.0000
  H   H1560     1.0  0.50081  0.17948  0.81523  1.0000
  H   H1561     1.0  0.50439  0.03225  0.58906  1.0000
  H   H1562     1.0  0.57949  0.25294  0.69265  1.0000
  C   C1946     1.0  0.52116  0.19306  0.78832  1.0000
  H   H1563     1.0  0.52724  0.08428  0.56434  1.0000
  C   C1947     1.0  0.61635  0.13959  0.93857  1.0000
  S   S274      1.0  0.58308  0.47854  0.66580  1.0000
  C   C1948     1.0  0.60968  0.20369  0.93085  1.0000
  C   C1949     1.0  0.59335  0.19883  0.92684  1.0000
  H   H1564     1.0  0.62936  0.12271  0.94185  1.0000
  C   C1950     1.0  0.55454  0.37657  0.72765  1.0000
  C   C1951     1.0  0.58305  0.18607  0.94364  1.0000
  H   H1565     1.0  0.51258  0.03709  0.75338  1.0000
  H   H1566     1.0  0.55959  0.04216  0.75784  1.0000
  C   C1952     1.0  0.55958  0.34874  0.75529  1.0000
  C   C1953     1.0  0.53891  0.36808  0.72130  1.0000
  H   H1567     1.0  0.53184  0.35789  0.73485  1.0000
  C   C1954     1.0  0.54018  0.23150  0.69280  1.0000
  C   C1955     1.0  0.60810  0.35284  0.95435  1.0000
  H   H1568     1.0  0.52848  0.10452  0.78022  1.0000
  C   C1956     1.0  0.58902  0.17830  0.96471  1.0000
  C   C1957     1.0  0.72594  0.15690  0.97154  1.0000
  C   C1958     1.0  0.55744  0.04717  0.80188  1.0000
  C   C1959     1.0  0.53990  0.45080  0.48994  1.0000
  C   C1960     1.0  0.61570  0.19598  0.95201  1.0000
  H   H1569     1.0  0.61228  0.48166  0.73219  1.0000
  C   C1961     1.0  0.55965  0.32663  0.72639  1.0000
  C   C1962     1.0  0.53221  0.37263  0.69742  1.0000
  H   H1570     1.0  0.58686  0.28009  0.81890  1.0000
  C   C1963     1.0  0.60537  0.18337  0.96942  1.0000
  C   C1964     1.0  0.73719  0.44307  0.88677  1.0000
  H   H1571     1.0  0.62840  0.19968  0.95415  1.0000
  C   C1965     1.0  0.52512  0.21712  0.97492  1.0000
  H   H1572     1.0  0.70856  0.46480  0.92058  1.0000
  C   C1966     1.0  0.49922  0.34331  0.81411  1.0000
  H   H1573     1.0  0.50492  0.34537  0.65795  1.0000
  H   H1574     1.0  0.53651  0.47950  0.60649  1.0000
  H   H1575     1.0  0.56281  0.27263  0.79151  1.0000
  H   H1576     1.0  0.65368  0.49290  0.65995  1.0000
  C   C1967     1.0  0.53577  0.23244  0.72129  1.0000
  H   H1577     1.0  0.49905  0.47607  0.77680  1.0000
  H   H1578     1.0  0.73230  0.30068  0.93075  1.0000
  H   H1579     1.0  0.72290  0.26301  0.93641  1.0000
  H   H1580     1.0  0.69893  0.21677  0.94923  1.0000
  C   C1968     1.0  0.56290  0.24824  0.72916  1.0000
  C   C1969     1.0  0.55532  0.33810  0.77941  1.0000
  H   H1581     1.0  0.67126  0.08355  0.67490  1.0000
  C   C1970     1.0  0.50382  0.43584  0.55261  1.0000
  H   H1582     1.0  0.63543  0.34246  0.91310  1.0000
  C   C1971     1.0  0.56215  0.00634  0.52895  1.0000
  C   C1972     1.0  0.55540  0.31612  0.75051  1.0000
  H   H1583     1.0  0.53591  0.38910  0.66081  1.0000
  H   H1584     1.0  0.52003  0.36617  0.69310  1.0000
  H   H1585     1.0  0.64564  0.09637  0.56307  1.0000
  C   C1973     1.0  0.65686  0.03172  0.58154  1.0000
  C   C1974     1.0  0.65234  0.06999  0.51779  1.0000
  H   H1586     1.0  0.63968  0.03535  0.68536  1.0000
  P   P66       1.0  0.54801  0.00267  0.50147  1.0000
  C   C1975     1.0  0.66758  0.45332  0.97279  1.0000
  C   C1976     1.0  0.54006  0.00568  0.71608  1.0000
  C   C1977     1.0  0.57846  0.23974  0.82403  1.0000
  H   H1587     1.0  0.66094  0.05056  0.52927  1.0000
  C   C1978     1.0  0.67996  0.49305  0.71695  1.0000
  H   H1588     1.0  0.52332  0.18249  0.78058  1.0000
  H   H1589     1.0  0.52208  0.12023  0.81840  1.0000
  C   C1979     1.0  0.53836  0.06084  0.81345  1.0000
  C   C1980     1.0  0.55334  0.32188  0.77698  1.0000
  H   H1590     1.0  0.59696  0.25912  0.83987  1.0000
  H   H1591     1.0  0.55320  0.36969  0.97294  1.0000
  C   C1981     1.0  0.64802  0.08290  0.52721  1.0000
  C   C1982     1.0  0.65554  0.07771  0.57452  1.0000
  C   C1983     1.0  0.65524  0.05969  0.68334  1.0000
  C   C1984     1.0  0.62394  0.34283  0.92117  1.0000
  H   H1592     1.0  0.55383  0.30353  0.74881  1.0000
  C   C1985     1.0  0.58074  0.26762  0.81589  1.0000
  H   H1593     1.0  0.61881  0.47888  0.78241  1.0000
  C   C1986     1.0  0.56702  0.26332  0.80051  1.0000
  C   C1987     1.0  0.53278  0.00506  0.69027  1.0000
  H   H1594     1.0  0.56511  0.01063  0.60026  1.0000
  H   H1595     1.0  0.65641  0.08089  0.59634  1.0000
  C   C1988     1.0  0.58646  0.25583  0.82765  1.0000
  C   C1989     1.0  0.64957  0.08671  0.55556  1.0000
  C   C1990     1.0  0.49277  0.34759  0.75625  1.0000
  C   C1991     1.0  0.51961  0.27559  0.75894  1.0000
  C   C1992     1.0  0.72309  0.48480  0.86365  1.0000
  H   H1596     1.0  0.53412  0.16106  0.97237  1.0000
  H   H1597     1.0  0.57189  0.25470  0.74288  1.0000
  H   H1598     1.0  0.64551  0.18311  0.97019  1.0000
  H   H1599     1.0  0.70537  0.21377  0.88724  1.0000
  H   H1600     1.0  0.56348  0.39755  0.95183  1.0000
  H   H1601     1.0  0.51323  0.32914  0.79854  1.0000
  C   C1993     1.0  0.68803  0.05694  0.58475  1.0000
  H   H1602     1.0  0.63336  0.03440  0.58374  1.0000
  C   C1994     1.0  0.54879  0.09645  0.70752  1.0000
  C   C1995     1.0  0.55884  0.24714  0.79698  1.0000
  C   C1996     1.0  0.55652  0.38995  0.49360  1.0000
  H   H1603     1.0  0.49985  0.35805  0.61302  1.0000
  C   C1997     1.0  0.51826  0.08617  0.52256  1.0000
  C   C1998     1.0  0.56475  0.23541  0.80867  1.0000
  S   S275      1.0  0.49181  0.38440  0.58868  1.0000
  C   C1999     1.0  0.73381  0.47504  0.82293  1.0000
  C   C2000     1.0  0.55735  0.00671  0.55762  1.0000
  H   H1604     1.0  0.51359  0.34229  0.95834  1.0000
  H   H1605     1.0  0.53546  0.27148  0.96628  1.0000
  C   C2001     1.0  0.49819  0.42940  0.57999  1.0000
  C   C2002     1.0  0.73561  0.22789  0.83673  1.0000
  H   H1606     1.0  0.55404  0.09288  0.54329  1.0000
  C   C2003     1.0  0.71836  0.39285  0.95627  1.0000
  H   H1607     1.0  0.49504  0.00301  0.66744  1.0000
  H   H1608     1.0  0.51147  0.28981  0.78838  1.0000
  C   C2004     1.0  0.49047  0.20515  0.96825  1.0000
  C   C2005     1.0  0.73461  0.43701  0.82948  1.0000
  P   P67       1.0  0.66668  0.05212  0.58968  1.0000
  H   H1609     1.0  0.63365  0.35764  0.95486  1.0000
  H   H1610     1.0  0.51069  0.37115  0.49243  1.0000
  C   C2006     1.0  0.72059  0.38191  0.93735  1.0000
  H   H1611     1.0  0.71406  0.11624  0.97153  1.0000
  H   H1612     1.0  0.50830  0.13955  0.74526  1.0000
  C   C2007     1.0  0.53433  0.23028  0.95727  1.0000
  H   H1613     1.0  0.50536  0.10672  0.86082  1.0000
  H   H1614     1.0  0.66682  0.16776  0.98167  1.0000
  C   C2008     1.0  0.69642  0.06576  0.56033  1.0000
  H   H1615     1.0  0.58476  0.32888  0.90769  1.0000
  H   H1616     1.0  0.51334  0.45712  0.52566  1.0000
  H   H1617     1.0  0.66401  0.99669  0.56973  1.0000
  H   H1618     1.0  0.56918  0.39532  0.49540  1.0000
  H   H1619     1.0  0.50424  0.42794  0.53588  1.0000
  C   C2009     1.0  0.51379  0.02868  0.59845  1.0000
  H   H1620     1.0  0.49370  0.43444  0.62308  1.0000
  H   H1621     1.0  0.55862  0.22285  0.80668  1.0000
  Fe  Fe141     1.0  0.60882  0.48308  0.65340  1.0000
  H   H1622     1.0  0.68582  0.18749  0.94910  1.0000
  H   H1623     1.0  0.50382  0.19020  0.95217  1.0000
  H   H1624     1.0  0.54103  0.20934  0.76403  1.0000
  C   C2010     1.0  0.51927  0.08846  0.55180  1.0000
  H   H1625     1.0  0.52618  0.35745  0.52015  1.0000
  C   C2011     1.0  0.55114  0.48386  0.73437  1.0000
  H   H1626     1.0  0.71865  0.17756  0.89763  1.0000
  H   H1627     1.0  0.64580  0.43681  0.95996  1.0000
  H   H1628     1.0  0.69598  0.24731  0.95689  1.0000
  C   C2012     1.0  0.71298  0.06946  0.55709  1.0000
  H   H1629     1.0  0.72661  0.30225  0.98228  1.0000
  C   C2013     1.0  0.52873  0.26169  0.80678  1.0000
  C   C2014     1.0  0.49229  0.11569  0.74102  1.0000
  H   H1630     1.0  0.52861  0.26000  0.73479  1.0000
  H   H1631     1.0  0.53139  0.05169  0.58907  1.0000
  C   C2015     1.0  0.73599  0.32798  0.98100  1.0000
  H   H1632     1.0  0.55551  0.24012  0.92972  1.0000
  H   H1633     1.0  0.49905  0.38854  0.76955  1.0000
  C   C2016     1.0  0.54873  0.37546  0.50888  1.0000
  H   H1634     1.0  0.73367  0.43463  0.80724  1.0000
  C   C2017     1.0  0.73850  0.24669  0.87405  1.0000
  C   C2018     1.0  0.54116  0.03541  0.61126  1.0000
  C   C2019     1.0  0.58809  0.39926  0.95571  1.0000
  C   C2020     1.0  0.55870  0.43264  0.50853  1.0000
  C   C2021     1.0  0.53431  0.06086  0.78497  1.0000
  C   C2022     1.0  0.50599  0.34182  0.97721  1.0000
  C   C2023     1.0  0.53795  0.09889  0.68860  1.0000
  C   C2024     1.0  0.50247  0.24474  0.96792  1.0000
  C   C2025     1.0  0.64084  0.99975  0.57141  1.0000
  C   C2026     1.0  0.56726  0.24728  0.70063  1.0000
  H   H1635     1.0  0.53970  0.05448  0.74286  1.0000
  C   C2027     1.0  0.50201  0.08303  0.84680  1.0000
  C   C2028     1.0  0.72126  0.06441  0.57815  1.0000
  C   C2029     1.0  0.51581  0.22011  0.80958  1.0000
  C   C2030     1.0  0.61021  0.33467  0.90782  1.0000
  H   H1636     1.0  0.54870  0.19333  0.96812  1.0000
  H   H1637     1.0  0.59350  0.01599  0.58646  1.0000
  H   H1638     1.0  0.55935  0.23805  0.66043  1.0000
  H   H1639     1.0  0.50320  0.39299  0.53058  1.0000
  C   C2031     1.0  0.49503  0.48623  0.73630  1.0000
  C   C2032     1.0  0.55356  0.04721  0.77353  1.0000
  H   H1640     1.0  0.60208  0.01484  0.53616  1.0000
  C   C2033     1.0  0.53055  0.20389  0.97889  1.0000
  C   C2034     1.0  0.59430  0.34415  0.94135  1.0000
  C   C2035     1.0  0.73200  0.31311  0.96905  1.0000
  C   C2036     1.0  0.53225  0.36861  0.50816  1.0000
  H   H1641     1.0  0.53047  0.01565  0.68183  1.0000
  C   C2037     1.0  0.70599  0.20878  0.95062  1.0000
  H   H1642     1.0  0.58961  0.00754  0.68756  1.0000
  C   C2038     1.0  0.69860  0.19231  0.95044  1.0000
  H   H1643     1.0  0.64559  0.48230  0.61386  1.0000
  H   H1644     1.0  0.49973  0.26655  0.95020  1.0000
  C   C2039     1.0  0.56869  0.01021  0.57818  1.0000
  C   C2040     1.0  0.73514  0.31219  0.94004  1.0000
  C   C2041     1.0  0.59871  0.39132  0.96409  1.0000
  H   H1645     1.0  0.72167  0.17038  0.84868  1.0000
  C   C2042     1.0  0.59300  0.37555  0.97600  1.0000
  P   P68       1.0  0.73602  0.17466  0.94915  1.0000
  H   H1646     1.0  0.51322  0.09518  0.68145  1.0000
  C   C2043     1.0  0.62563  0.13171  0.95241  1.0000
  H   H1647     1.0  0.64244  0.45418  0.70787  1.0000
  C   C2044     1.0  0.54218  0.05415  0.76507  1.0000
  C   C2045     1.0  0.53800  0.02024  0.62455  1.0000
  C   C2046     1.0  0.73675  0.37319  0.97082  1.0000
  H   H1648     1.0  0.55607  0.03756  0.54041  1.0000
  C   C2047     1.0  0.56473  0.07580  0.55926  1.0000
  C   C2048     1.0  0.57168  0.39153  0.95894  1.0000
  H   H1649     1.0  0.53225  0.25645  0.82546  1.0000
  C   C2049     1.0  0.56590  0.37589  0.97083  1.0000
  H   H1650     1.0  0.57296  0.08425  0.57186  1.0000
  C   C2050     1.0  0.49594  0.03393  0.49438  1.0000
  H   H1651     1.0  0.55301  0.05415  0.84376  1.0000
  C   C2051     1.0  0.49997  0.12913  0.75643  1.0000
  H   H1652     1.0  0.51001  0.09716  0.58844  1.0000
  C   C2052     1.0  0.54425  0.05411  0.52569  1.0000
  H   H1653     1.0  0.64614  0.03080  0.63620  1.0000
  C   C2053     1.0  0.49105  0.34731  0.62237  1.0000
  H   H1654     1.0  0.56029  0.44527  0.54684  1.0000
  C   C2054     1.0  0.58695  0.99722  0.67489  1.0000
  C   C2055     1.0  0.52351  0.37636  0.49257  1.0000
  C   C2056     1.0  0.63228  0.01043  0.57519  1.0000
  H   H1655     1.0  0.55544  0.36967  0.52166  1.0000
  H   H1656     1.0  0.50268  0.46349  0.61369  1.0000
  C   C2057     1.0  0.51060  0.01339  0.61153  1.0000
  C   C2058     1.0  0.71607  0.22171  0.87625  1.0000
  C   C2059     1.0  0.54486  0.20377  0.96542  1.0000
  C   C2060     1.0  0.54712  0.24076  0.73972  1.0000
  C   C2061     1.0  0.72172  0.21731  0.85082  1.0000
  C   C2062     1.0  0.72252  0.21490  0.95185  1.0000
  C   C2063     1.0  0.52123  0.09837  0.79879  1.0000
  H   H1657     1.0  0.52807  0.01740  0.53391  1.0000
  C   C2064     1.0  0.52262  0.00922  0.62530  1.0000
  H   H1658     1.0  0.57374  0.03394  0.49253  1.0000
  H   H1659     1.0  0.50271  0.23986  0.94730  1.0000
  H   H1660     1.0  0.70183  0.16927  0.94986  1.0000
  H   H1661     1.0  0.56142  0.10061  0.70155  1.0000
  H   H1662     1.0  0.71535  0.38115  0.91688  1.0000
  C   C2065     1.0  0.62288  0.35168  0.94461  1.0000
  S   S276      1.0  0.62413  0.47128  0.67935  1.0000
  C   C2066     1.0  0.70698  0.44531  0.95063  1.0000
  C   C2067     1.0  0.55385  0.21683  0.94769  1.0000
  C   C2068     1.0  0.70620  0.24911  0.96972  1.0000
  H   H1663     1.0  0.54372  0.01679  0.72665  1.0000
  H   H1664     1.0  0.55193  0.08646  0.74812  1.0000
  S   S277      1.0  0.54302  0.33414  0.96910  1.0000
  H   H1665     1.0  0.52647  0.47103  0.74480  1.0000
  H   H1666     1.0  0.51943  0.27728  0.83079  1.0000
  C   C2069     1.0  0.58477  0.01316  0.57045  1.0000
  C   C2070     1.0  0.56534  0.06024  0.55838  1.0000
  C   C2071     1.0  0.53111  0.20829  0.77899  1.0000
  C   C2072     1.0  0.50915  0.45240  0.54702  1.0000
  C   C2073     1.0  0.72077  0.47636  0.83902  1.0000
  C   C2074     1.0  0.53846  0.47042  0.74389  1.0000
  C   C2075     1.0  0.55546  0.44370  0.52606  1.0000
  C   C2076     1.0  0.72434  0.18805  0.95156  1.0000
  S   S278      1.0  0.49858  0.38514  0.66895  1.0000
  H   H1667     1.0  0.50762  0.04706  0.52887  1.0000
  C   C2077     1.0  0.52096  0.00524  0.53068  1.0000
  H   H1668     1.0  0.73409  0.06735  0.57566  1.0000
  C   C2078     1.0  0.50010  0.48985  0.54677  1.0000
  C   C2079     1.0  0.72442  0.47226  0.95440  1.0000
  S   S279      1.0  0.50115  0.15630  0.95769  1.0000
  C   C2080     1.0  0.49683  0.12934  0.78598  1.0000
  H   H1669     1.0  0.50728  0.33253  0.74804  1.0000
  H   H1670     1.0  0.71990  0.23942  0.90743  1.0000
  H   H1671     1.0  0.57388  0.05661  0.57049  1.0000
  C   C2081     1.0  0.49681  0.09795  0.52206  1.0000
  H   H1672     1.0  0.53278  0.06616  0.82928  1.0000
  C   C2082     1.0  0.56654  0.48287  0.73196  1.0000
  C   C2083     1.0  0.52688  0.08188  0.74097  1.0000
  H   H1673     1.0  0.53140  0.22492  0.67878  1.0000
  C   C2084     1.0  0.54989  0.05405  0.82181  1.0000
  P   P69       1.0  0.51958  0.06982  0.77363  1.0000
  C   C2085     1.0  0.52834  0.22199  0.78912  1.0000
  P   P70       1.0  0.51603  0.48404  0.56184  1.0000
  C   C2086     1.0  0.72982  0.46755  0.97970  1.0000
  C   C2087     1.0  0.51612  0.08499  0.72233  1.0000
  C   C2088     1.0  0.55592  0.23889  0.68247  1.0000
  C   C2089     1.0  0.59533  0.99807  0.64883  1.0000
  H   H1674     1.0  0.73187  0.46815  0.80420  1.0000
  H   H1675     1.0  0.65802  0.40602  0.95788  1.0000
  H   H1676     1.0  0.49443  0.07714  0.86526  1.0000
  H   H1677     1.0  0.53704  0.04575  0.51179  1.0000
  S   S280      1.0  0.50633  0.14718  0.80392  1.0000
  C   C2090     1.0  0.73798  0.16964  0.91273  1.0000
  C   C2091     1.0  0.70772  0.18198  0.95088  1.0000
  C   C2092     1.0  0.54363  0.49185  0.48725  1.0000
  C   C2093     1.0  0.50848  0.19134  0.80806  1.0000
  C   C2094     1.0  0.53133  0.25653  0.77988  1.0000
  C   C2095     1.0  0.50934  0.09568  0.56580  1.0000
  C   C2096     1.0  0.49090  0.33045  0.98038  1.0000
  C   C2097     1.0  0.72439  0.23628  0.88771  1.0000
  C   C2098     1.0  0.49817  0.10049  0.55094  1.0000
  C   C2099     1.0  0.50591  0.20484  0.81893  1.0000
  H   H1678     1.0  0.51603  0.28099  0.74044  1.0000
  C   C2100     1.0  0.50658  0.09056  0.50809  1.0000
  H   H1679     1.0  0.49478  0.11593  0.71835  1.0000
  C   C2101     1.0  0.59539  0.33510  0.91824  1.0000
  C   C2102     1.0  0.72529  0.39403  0.98247  1.0000
  H   H1680     1.0  0.67505  0.12246  0.98533  1.0000
  C   C2103     1.0  0.49283  0.19307  0.95200  1.0000
  H   H1681     1.0  0.50008  0.00758  0.55275  1.0000
  C   C2104     1.0  0.63041  0.13568  0.97966  1.0000
  C   C2105     1.0  0.54812  0.29336  0.98473  1.0000
  H   H1682     1.0  0.61131  0.39744  0.96027  1.0000
  C   C2106     1.0  0.67327  0.49057  0.74477  1.0000
  C   C2107     1.0  0.73169  0.20459  0.95222  1.0000
  H   H1683     1.0  0.73140  0.36389  0.92935  1.0000
  H   H1684     1.0  0.49636  0.20345  0.83491  1.0000
  H   H1685     1.0  0.49874  0.00499  0.61130  1.0000
  H   H1686     1.0  0.54396  0.49261  0.65123  1.0000
  C   C2108     1.0  0.63602  0.38738  0.96961  1.0000
  H   H1687     1.0  0.57627  0.49318  0.72379  1.0000
  C   C2109     1.0  0.73852  0.49194  0.87217  1.0000
  C   C2110     1.0  0.54134  0.27680  0.98478  1.0000
  P   P71       1.0  0.60650  0.36449  0.98428  1.0000
  C   C2111     1.0  0.51678  0.05963  0.48828  1.0000
  H   H1688     1.0  0.49014  0.10560  0.56205  1.0000
  Fe  Fe142     1.0  0.50393  0.60294  0.36001  1.0000
  H   H1689     1.0  0.52566  0.99106  0.42759  1.0000
  C   C2112     1.0  0.65670  0.49625  0.11773  1.0000
  Fe  Fe143     1.0  0.51650  0.59677  0.41833  1.0000
  S   S281      1.0  0.50918  0.57035  0.41420  1.0000
  S   S282      1.0  0.52749  0.60668  0.45897  1.0000
  Fe  Fe144     1.0  0.51908  0.57624  0.36918  1.0000
  S   S283      1.0  0.52978  0.55887  0.34846  1.0000
  C   C2113     1.0  0.51576  0.85071  0.38869  1.0000
  S   S284      1.0  0.52813  0.60285  0.37389  1.0000
  C   C2114     1.0  0.69777  0.50292  0.06260  1.0000
  H   H1690     1.0  0.55260  0.95523  0.26703  1.0000
  H   H1691     1.0  0.58563  0.87317  0.39355  1.0000
  S   S285      1.0  0.59343  0.50729  0.31407  1.0000
  H   H1692     1.0  0.69674  0.52465  0.04071  1.0000
  H   H1693     1.0  0.73528  0.49973  0.14248  1.0000
  H   H1694     1.0  0.51253  0.51800  0.28796  1.0000
  Fe  Fe145     1.0  0.59658  0.52116  0.35361  1.0000
  S   S286      1.0  0.59679  0.54687  0.35550  1.0000
  S   S287      1.0  0.61460  0.51025  0.37086  1.0000
  Fe  Fe146     1.0  0.52230  0.89847  0.41227  1.0000
  S   S288      1.0  0.52809  0.92461  0.40137  1.0000
  S   S289      1.0  0.51431  0.88885  0.45804  1.0000
  Fe  Fe147     1.0  0.52212  0.88989  0.34800  1.0000
  S   S290      1.0  0.52841  0.91597  0.33322  1.0000
  S   S291      1.0  0.51205  0.86707  0.32293  1.0000
  Fe  Fe148     1.0  0.54548  0.92136  0.36835  1.0000
  S   S292      1.0  0.56945  0.94106  0.36692  1.0000
  Fe  Fe149     1.0  0.51082  0.91743  0.36768  1.0000
  S   S293      1.0  0.54085  0.89508  0.38108  1.0000
  H   H1695     1.0  0.50550  0.84862  0.37593  1.0000
  C   C2115     1.0  0.53000  0.60261  0.27279  1.0000
  C   C2116     1.0  0.56981  0.96129  0.36281  1.0000
  C   C2117     1.0  0.55684  0.96523  0.35266  1.0000
  H   H1696     1.0  0.55352  0.56024  0.29445  1.0000
  C   C2118     1.0  0.56811  0.89588  0.43111  1.0000
  H   H1697     1.0  0.59618  0.94322  0.32436  1.0000
  C   C2119     1.0  0.58347  0.97370  0.36915  1.0000
  H   H1698     1.0  0.54618  0.95586  0.34788  1.0000
  C   C2120     1.0  0.57186  0.88228  0.42345  1.0000
  C   C2121     1.0  0.60991  0.98269  0.30305  1.0000
  H   H1699     1.0  0.59350  0.97079  0.37734  1.0000
  C   C2122     1.0  0.52954  0.59751  0.18248  1.0000
  C   C2123     1.0  0.52939  0.57898  0.22222  1.0000
  H   H1700     1.0  0.51440  0.76873  0.98895  1.0000
  C   C2124     1.0  0.49291  0.68965  0.22372  1.0000
  C   C2125     1.0  0.53572  0.98299  0.28762  1.0000
  P   P72       1.0  0.53640  0.57508  0.25637  1.0000
  C   C2126     1.0  0.55045  0.59582  0.29802  1.0000
  C   C2127     1.0  0.56527  0.53928  0.44225  1.0000
  C   C2128     1.0  0.57908  0.57222  0.22355  1.0000
  H   H1701     1.0  0.55862  0.98162  0.40965  1.0000
  H   H1702     1.0  0.52341  0.87734  0.26307  1.0000
  H   H1703     1.0  0.66916  0.55183  0.07515  1.0000
  C   C2129     1.0  0.59010  0.53434  0.45081  1.0000
  C   C2130     1.0  0.50825  0.56036  0.28915  1.0000
  H   H1704     1.0  0.61364  0.51085  0.44896  1.0000
  H   H1705     1.0  0.71006  0.53339  0.12156  1.0000
  C   C2131     1.0  0.52151  0.55822  0.27463  1.0000
  C   C2132     1.0  0.54712  0.97668  0.27622  1.0000
  H   H1706     1.0  0.51630  0.68956  0.01399  1.0000
  C   C2133     1.0  0.55244  0.98829  0.47915  1.0000
  C   C2134     1.0  0.70676  0.51117  0.01333  1.0000
  H   H1707     1.0  0.59927  0.89946  0.36893  1.0000
  C   C2135     1.0  0.54821  0.55548  0.35330  1.0000
  C   C2136     1.0  0.55007  0.54118  0.34438  1.0000
  C   C2137     1.0  0.56475  0.53828  0.34582  1.0000
  C   C2138     1.0  0.57791  0.54986  0.35553  1.0000
  C   C2139     1.0  0.57609  0.56420  0.36448  1.0000
  C   C2140     1.0  0.56127  0.56697  0.36356  1.0000
  H   H1708     1.0  0.54020  0.53241  0.33561  1.0000
  H   H1709     1.0  0.56601  0.52729  0.33847  1.0000
  H   H1710     1.0  0.58624  0.57325  0.37191  1.0000
  H   H1711     1.0  0.56011  0.57819  0.36982  1.0000
  C   C2141     1.0  0.49813  0.84168  0.28974  1.0000
  H   H1712     1.0  0.63612  0.98005  0.35243  1.0000
  C   C2142     1.0  0.49229  0.72773  0.24987  1.0000
  C   C2143     1.0  0.58713  0.91203  0.39476  1.0000
  H   H1713     1.0  0.55871  0.98460  0.26846  1.0000
  H   H1714     1.0  0.54601  0.91041  0.46937  1.0000
  H   H1715     1.0  0.52087  0.60006  0.25756  1.0000
  C   C2144     1.0  0.56452  0.57529  0.22636  1.0000
  C   C2145     1.0  0.52899  0.94995  0.28655  1.0000
  C   C2146     1.0  0.55469  0.99113  0.44951  1.0000
  Fe  Fe150     1.0  0.60948  0.49461  0.33313  1.0000
  H   H1716     1.0  0.57985  0.53298  0.41017  1.0000
  C   C2147     1.0  0.61669  0.96043  0.34014  1.0000
  H   H1717     1.0  0.49476  0.75260  0.24227  1.0000
  H   H1718     1.0  0.58631  0.57556  0.20381  1.0000
  C   C2148     1.0  0.54277  0.85725  0.42079  1.0000
  H   H1719     1.0  0.60035  0.53125  0.44289  1.0000
  C   C2149     1.0  0.54328  0.85210  0.39314  1.0000
  C   C2150     1.0  0.60379  0.95556  0.32295  1.0000
  C   C2151     1.0  0.52691  0.52190  0.45933  1.0000
  H   H1720     1.0  0.55116  0.59146  0.40832  1.0000
  H   H1721     1.0  0.59447  0.81802  0.43381  1.0000
  C   C2152     1.0  0.51597  0.54349  0.46611  1.0000
  H   H1722     1.0  0.60855  0.84603  0.44451  1.0000
  C   C2153     1.0  0.50187  0.53459  0.45449  1.0000
  H   H1723     1.0  0.59269  0.92348  0.38330  1.0000
  H   H1724     1.0  0.55730  0.58795  0.30286  1.0000
  H   H1725     1.0  0.55421  0.85107  0.38356  1.0000
  H   H1726     1.0  0.51705  0.55532  0.47302  1.0000
  C   C2154     1.0  0.54916  0.57294  0.44077  1.0000
  H   H1727     1.0  0.53425  0.60929  0.17181  1.0000
  C   C2155     1.0  0.52869  0.53729  0.46816  1.0000
  C   C2156     1.0  0.49800  0.69589  0.17288  1.0000
  P   P73       1.0  0.68824  0.50580  0.09563  1.0000
  H   H1728     1.0  0.49246  0.83560  0.30961  1.0000
  H   H1729     1.0  0.52019  0.76204  0.26617  1.0000
  H   H1730     1.0  0.54768  0.98418  0.34001  1.0000
  C   C2157     1.0  0.55790  0.96508  0.44487  1.0000
  C   C2158     1.0  0.55623  0.96237  0.47440  1.0000
  C   C2159     1.0  0.50837  0.85756  0.28975  1.0000
  H   H1731     1.0  0.54535  0.62998  0.32105  1.0000
  C   C2160     1.0  0.58877  0.53797  0.47911  1.0000
  H   H1732     1.0  0.69036  0.57073  0.10060  1.0000
  H   H1733     1.0  0.49548  0.96244  0.36865  1.0000
  S   S294      1.0  0.49579  0.57692  0.35229  1.0000
  C   C2161     1.0  0.69847  0.50061  0.12516  1.0000
  C   C2162     1.0  0.68906  0.52643  0.09705  1.0000
  C   C2163     1.0  0.67761  0.53183  0.08391  1.0000
  C   C2164     1.0  0.51524  0.85610  0.41596  1.0000
  C   C2165     1.0  0.56620  0.59759  0.47341  1.0000
  H   H1734     1.0  0.52560  0.66791  0.29546  1.0000
  H   H1735     1.0  0.50662  0.94811  0.30801  1.0000
  H   H1736     1.0  0.55881  0.89485  0.44735  1.0000
  H   H1737     1.0  0.51993  0.52478  0.37823  1.0000
  S   S295      1.0  0.49380  0.93118  0.36096  1.0000
  C   C2166     1.0  0.52086  0.97279  0.29867  1.0000
  C   C2167     1.0  0.58766  0.85347  0.44205  1.0000
  H   H1738     1.0  0.55071  0.82891  0.42902  1.0000
  H   H1739     1.0  0.59030  0.96285  0.29132  1.0000
  C   C2168     1.0  0.55252  0.56940  0.46863  1.0000
  C   C2169     1.0  0.51322  0.72188  0.27514  1.0000
  H   H1740     1.0  0.49144  0.52245  0.37634  1.0000
  S   S296      1.0  0.49993  0.83123  0.20526  1.0000
  H   H1741     1.0  0.66827  0.52372  0.07273  1.0000
  H   H1742     1.0  0.52506  0.62387  0.28522  1.0000
  C   C2170     1.0  0.50990  0.68037  0.28005  1.0000
  H   H1743     1.0  0.49976  0.67671  0.14775  1.0000
  H   H1744     1.0  0.51164  0.50128  0.44041  1.0000
  C   C2171     1.0  0.70108  0.53722  0.11125  1.0000
  C   C2172     1.0  0.51709  0.58586  0.17110  1.0000
  H   H1745     1.0  0.61918  0.95179  0.35464  1.0000
  C   C2173     1.0  0.49882  0.71647  0.26166  1.0000
  H   H1746     1.0  0.51856  0.86298  0.21847  1.0000
  C   C2174     1.0  0.55412  0.58872  0.42953  1.0000
  C   C2175     1.0  0.55719  0.97948  0.43251  1.0000
  H   H1747     1.0  0.52639  0.93715  0.28620  1.0000
  H   H1748     1.0  0.54278  0.56355  0.42760  1.0000
  C   C2176     1.0  0.51550  0.86518  0.26367  1.0000
  C   C2177     1.0  0.56340  0.83289  0.43181  1.0000
  C   C2178     1.0  0.51095  0.57069  0.18490  1.0000
  C   C2179     1.0  0.49305  0.67403  0.21956  1.0000
  C   C2180     1.0  0.56135  0.58180  0.48469  1.0000
  C   C2181     1.0  0.52978  0.84877  0.37723  1.0000
  C   C2182     1.0  0.67810  0.54776  0.08517  1.0000
  H   H1749     1.0  0.50400  0.96661  0.41725  1.0000
  C   C2183     1.0  0.53929  0.59249  0.27699  1.0000
  C   C2184     1.0  0.49823  0.53208  0.30279  1.0000
  C   C2185     1.0  0.49517  0.83352  0.26429  1.0000
  H   H1750     1.0  0.59389  0.86560  0.44717  1.0000
  S   S297      1.0  0.49342  0.59934  0.40506  1.0000
  C   C2186     1.0  0.55774  0.98135  0.34801  1.0000
  C   C2187     1.0  0.56352  0.54244  0.47091  1.0000
  C   C2188     1.0  0.70017  0.51398  0.03923  1.0000
  C   C2189     1.0  0.55513  0.57100  0.25195  1.0000
  C   C2190     1.0  0.51710  0.56722  0.21031  1.0000
  C   C2191     1.0  0.71097  0.49732  0.01054  1.0000
  S   S298      1.0  0.50345  0.89140  0.38054  1.0000
  H   H1751     1.0  0.53650  0.51687  0.46092  1.0000
  H   H1752     1.0  0.51215  0.55542  0.22068  1.0000
  H   H1753     1.0  0.55987  0.95611  0.43147  1.0000
  H   H1754     1.0  0.57684  0.88499  0.48259  1.0000
  C   C2192     1.0  0.57140  0.84887  0.43692  1.0000
  H   H1755     1.0  0.53601  0.84267  0.48087  1.0000
  C   C2193     1.0  0.54373  0.96016  0.27557  1.0000
  C   C2194     1.0  0.49568  0.66943  0.19233  1.0000
  H   H1756     1.0  0.49227  0.53965  0.45227  1.0000
  H   H1757     1.0  0.55664  0.54029  0.42729  1.0000
  H   H1758     1.0  0.51414  0.93915  0.46288  1.0000
  H   H1759     1.0  0.49000  0.59991  0.23686  1.0000
  C   C2195     1.0  0.60900  0.50457  0.46923  1.0000
  C   C2196     1.0  0.55279  0.60942  0.31351  1.0000
  C   C2197     1.0  0.50031  0.51937  0.44529  1.0000
  H   H1760     1.0  0.52825  0.86430  0.45243  1.0000
  S   S299      1.0  0.57600  0.50408  0.37913  1.0000
  H   H1761     1.0  0.56596  0.61331  0.43734  1.0000
  C   C2198     1.0  0.58310  0.88362  0.40082  1.0000
  H   H1762     1.0  0.56136  0.61184  0.32979  1.0000
  C   C2199     1.0  0.51279  0.51300  0.44783  1.0000
  C   C2200     1.0  0.52189  0.98933  0.40620  1.0000
  C   C2201     1.0  0.58436  0.56490  0.24625  1.0000
  C   C2202     1.0  0.51121  0.52978  0.28793  1.0000
  C   C2203     1.0  0.49529  0.70051  0.20007  1.0000
  H   H1763     1.0  0.50523  0.80063  0.10831  1.0000
  H   H1764     1.0  0.72141  0.50654  0.10188  1.0000
  P   P74       1.0  0.50656  0.98108  0.31448  1.0000
  H   H1765     1.0  0.51713  0.68482  0.26054  1.0000
  H   H1766     1.0  0.50924  0.65730  0.34009  1.0000
  H   H1767     1.0  0.53026  0.84524  0.35557  1.0000
  C   C2204     1.0  0.49666  0.54732  0.30319  1.0000
  C   C2205     1.0  0.51273  0.85696  0.23830  1.0000
  C   C2206     1.0  0.54379  0.61963  0.30861  1.0000
  C   C2207     1.0  0.69004  0.55841  0.09949  1.0000
  C   C2208     1.0  0.57846  0.53517  0.43236  1.0000
  C   C2209     1.0  0.50564  0.66499  0.32508  1.0000
  H   H1768     1.0  0.66066  0.50540  0.13276  1.0000
  H   H1769     1.0  0.51218  0.58862  0.15160  1.0000
  C   C2210     1.0  0.53233  0.61616  0.28841  1.0000
  H   H1770     1.0  0.59566  0.56258  0.24418  1.0000
  C   C2211     1.0  0.57509  0.56060  0.27175  1.0000
  H   H1771     1.0  0.49929  0.70416  0.15461  1.0000
  H   H1772     1.0  0.55700  0.95128  0.48400  1.0000
  H   H1773     1.0  0.57921  0.55501  0.28947  1.0000
  C   C2212     1.0  0.57174  0.82185  0.43046  1.0000
  S   S300      1.0  0.49711  0.62137  0.33206  1.0000
  C   C2213     1.0  0.51770  0.95622  0.29855  1.0000
  C   C2214     1.0  0.50260  0.84103  0.23828  1.0000
  H   H1774     1.0  0.49935  0.70696  0.01695  1.0000
  C   C2215     1.0  0.59597  0.84239  0.44072  1.0000
  C   C2216     1.0  0.49816  0.68036  0.16898  1.0000
  P   P75       1.0  0.56065  0.86303  0.44007  1.0000
  C   C2217     1.0  0.62613  0.97646  0.33902  1.0000
  H   H1775     1.0  0.56073  0.58101  0.20856  1.0000
  C   C2218     1.0  0.53575  0.59408  0.20785  1.0000
  H   H1776     1.0  0.54530  0.60330  0.21654  1.0000
  H   H1777     1.0  0.49886  0.57980  0.47125  1.0000
  H   H1778     1.0  0.50700  0.57213  0.29016  1.0000
  C   C2219     1.0  0.60043  0.96666  0.30437  1.0000
  C   C2220     1.0  0.57580  0.91072  0.41699  1.0000
  C   C2221     1.0  0.50479  0.97327  0.37275  1.0000
  C   C2222     1.0  0.52872  0.85945  0.43189  1.0000
  C   C2223     1.0  0.56257  0.60105  0.44585  1.0000
  H   H1779     1.0  0.53263  0.54069  0.26205  1.0000
  C   C2224     1.0  0.56054  0.56360  0.27454  1.0000
  C   C2225     1.0  0.52272  0.54276  0.27358  1.0000
  H   H1780     1.0  0.49905  0.74117  0.00579  1.0000
  H   H1781     1.0  0.71075  0.56139  0.12369  1.0000
  C   C2226     1.0  0.49546  0.51258  0.37035  1.0000
  C   C2227     1.0  0.51155  0.51389  0.37144  1.0000
  C   C2228     1.0  0.59079  0.89849  0.38667  1.0000
  C   C2229     1.0  0.70153  0.55315  0.11248  1.0000
  C   C2230     1.0  0.62258  0.98779  0.32097  1.0000
  H   H1782     1.0  0.70830  0.51958  0.99520  1.0000
  C   C2231     1.0  0.50821  0.93501  0.48365  1.0000
  C   C2232     1.0  0.58425  0.98986  0.36484  1.0000
  C   C2233     1.0  0.58804  0.82661  0.43477  1.0000
  H   H1783     1.0  0.49548  0.65727  0.18927  1.0000
  H   H1784     1.0  0.50461  0.85832  0.42438  1.0000
  H   H1785     1.0  0.57254  0.92112  0.42248  1.0000
  C   C2234     1.0  0.51481  0.67090  0.29984  1.0000
  C   C2235     1.0  0.55655  0.86401  0.47763  1.0000
  C   C2236     1.0  0.49555  0.68370  0.28511  1.0000
  C   C2237     1.0  0.51682  0.50119  0.36383  1.0000
  C   C2238     1.0  0.49154  0.60791  0.27959  1.0000
  H   H1786     1.0  0.56553  0.80956  0.42625  1.0000
  C   C2239     1.0  0.49270  0.79420  0.10705  1.0000
  C   C2240     1.0  0.51214  0.98462  0.35056  1.0000
  C   C2241     1.0  0.72274  0.49858  0.14499  1.0000
  H   H1787     1.0  0.49602  0.90586  0.30664  1.0000
  H   H1788     1.0  0.60725  0.99096  0.28805  1.0000
  C   C2242     1.0  0.49990  0.70088  0.99769  1.0000
  H   H1789     1.0  0.49087  0.66528  0.23723  1.0000
  H   H1790     1.0  0.49650  0.59897  0.28763  1.0000
  H   H1791     1.0  0.53200  0.74238  0.28715  1.0000
  C   C2243     1.0  0.49996  0.74406  0.25154  1.0000
  C   C2244     1.0  0.71478  0.50229  0.12200  1.0000
  H   H1792     1.0  0.52931  0.50214  0.36483  1.0000
  H   H1793     1.0  0.50134  0.56165  0.17595  1.0000
  H   H1794     1.0  0.49465  0.71242  0.20222  1.0000
  C   C2245     1.0  0.52089  0.73826  0.27679  1.0000
  H   H1795     1.0  0.51859  0.71353  0.28432  1.0000
  P   P76       1.0  0.54699  0.54897  0.48251  1.0000
  H   H1796     1.0  0.51114  0.99022  0.25380  1.0000
  C   C2246     1.0  0.51426  0.74935  0.26499  1.0000
  H   H1797     1.0  0.49468  0.76990  0.11932  1.0000
  C   C2247     1.0  0.50962  0.97562  0.40045  1.0000
  H   H1798     1.0  0.49092  0.98741  0.46153  1.0000
  H   H1799     1.0  0.62302  0.49759  0.25589  1.0000
  C   C2248     1.0  0.57148  0.99377  0.35369  1.0000
  C   C2249     1.0  0.69044  0.49555  0.15185  1.0000
  C   C2250     1.0  0.50964  0.69115  0.99601  1.0000
  H   H1800     1.0  0.56923  0.49989  0.48086  1.0000
  C   C2251     1.0  0.49160  0.66864  0.33066  1.0000
  H   H1801     1.0  0.71565  0.49497  0.99024  1.0000
  H   H1802     1.0  0.49029  0.95855  0.27314  1.0000
  H   H1803     1.0  0.67801  0.49433  0.15523  1.0000
  H   H1804     1.0  0.57265  0.60717  0.48607  1.0000
  Fe  Fe151     1.0  0.50050  0.57405  0.61909  1.0000
  S   S301      1.0  0.51147  0.55580  0.63415  1.0000
  C   C2252     1.0  0.50776  0.76048  0.97416  1.0000
  Fe  Fe152     1.0  0.50291  0.58924  0.67774  1.0000
  S   S302      1.0  0.51475  0.57223  0.69669  1.0000
  H   H1805     1.0  0.52401  0.49760  0.78364  1.0000
  Fe  Fe153     1.0  0.52877  0.57582  0.65453  1.0000
  S   S303      1.0  0.55442  0.57768  0.64426  1.0000
  H   H1806     1.0  0.62356  0.52315  0.49382  1.0000
  S   S304      1.0  0.51867  0.59445  0.63705  1.0000
  C   C2253     1.0  0.52595  0.97847  0.61802  1.0000
  C   C2254     1.0  0.49066  0.70240  0.97492  1.0000
  S   S305      1.0  0.61312  0.50909  0.63968  1.0000
  S   S306      1.0  0.57437  0.51667  0.67923  1.0000
  C   C2255     1.0  0.53783  0.96219  0.57741  1.0000
  S   S307      1.0  0.61651  0.51243  0.55288  1.0000
  C   C2256     1.0  0.55858  0.88252  0.89626  1.0000
  C   C2257     1.0  0.50714  0.69380  0.72763  1.0000
  C   C2258     1.0  0.49644  0.82920  0.76559  1.0000
  H   H1807     1.0  0.65700  0.54014  0.62656  1.0000
  P   P77       1.0  0.51861  0.98974  0.64304  1.0000
  Fe  Fe154     1.0  0.53969  0.90521  0.61457  1.0000
  S   S308      1.0  0.53789  0.92985  0.61626  1.0000
  S   S309      1.0  0.55124  0.90222  0.57199  1.0000
  Fe  Fe155     1.0  0.52302  0.89423  0.67421  1.0000
  S   S310      1.0  0.51981  0.91837  0.67858  1.0000
  S   S311      1.0  0.51221  0.87848  0.71511  1.0000
  Fe  Fe156     1.0  0.51315  0.91712  0.63345  1.0000
  Fe  Fe157     1.0  0.54501  0.92930  0.66103  1.0000
  S   S312      1.0  0.55858  0.95091  0.68477  1.0000
  S   S313      1.0  0.51424  0.89230  0.62968  1.0000
  S   S314      1.0  0.54897  0.90534  0.65891  1.0000
  C   C2259     1.0  0.53806  0.97779  0.71415  1.0000
  C   C2260     1.0  0.57225  0.96905  0.66960  1.0000
  C   C2261     1.0  0.58025  0.97003  0.64303  1.0000
  C   C2262     1.0  0.52792  0.67565  0.72884  1.0000
  H   H1808     1.0  0.50595  0.64376  0.84652  1.0000
  H   H1809     1.0  0.50406  0.90673  0.75872  1.0000
  C   C2263     1.0  0.57577  0.98270  0.68546  1.0000
  H   H1810     1.0  0.57787  0.95954  0.63082  1.0000
  C   C2264     1.0  0.59191  0.98443  0.63288  1.0000
  C   C2265     1.0  0.66537  0.51155  0.70606  1.0000
  C   C2266     1.0  0.54272  0.99205  0.72801  1.0000
  C   C2267     1.0  0.54029  0.90036  0.54090  1.0000
  C   C2268     1.0  0.52437  0.89073  0.54139  1.0000
  C   C2269     1.0  0.53113  0.97724  0.68801  1.0000
  H   H1811     1.0  0.56670  0.70672  0.64383  1.0000
  C   C2270     1.0  0.54803  0.90746  0.51472  1.0000
  H   H1812     1.0  0.51828  0.88513  0.56132  1.0000
  S   S315      1.0  0.49137  0.57174  0.57470  1.0000
  H   H1813     1.0  0.56033  0.91493  0.51411  1.0000
  C   C2271     1.0  0.51840  0.59601  0.49111  1.0000
  C   C2272     1.0  0.50632  0.85926  0.73383  1.0000
  C   C2273     1.0  0.51047  0.68315  0.97139  1.0000
  P   P78       1.0  0.53703  0.87447  0.82086  1.0000
  C   C2274     1.0  0.57621  0.87444  0.86405  1.0000
  H   H1814     1.0  0.55788  0.87845  0.76917  1.0000
  H   H1815     1.0  0.53411  0.90927  0.73792  1.0000
  C   C2275     1.0  0.55137  0.92263  0.79901  1.0000
  H   H1816     1.0  0.49511  0.83948  0.88842  1.0000
  C   C2276     1.0  0.54869  0.49501  0.54502  1.0000
  P   P79       1.0  0.54688  0.63956  0.63182  1.0000
  C   C2277     1.0  0.51531  0.62757  0.56909  1.0000
  H   H1817     1.0  0.55588  0.88610  0.91704  1.0000
  C   C2278     1.0  0.50518  0.87344  0.82881  1.0000
  H   H1818     1.0  0.50442  0.87969  0.51646  1.0000
  C   C2279     1.0  0.49251  0.90151  0.76993  1.0000
  C   C2280     1.0  0.64735  0.50521  0.59378  1.0000
  C   C2281     1.0  0.51373  0.62929  0.62808  1.0000
  C   C2282     1.0  0.67984  0.55312  0.70229  1.0000
  H   H1819     1.0  0.57547  0.54606  0.51049  1.0000
  C   C2283     1.0  0.55913  0.49719  0.49623  1.0000
  C   C2284     1.0  0.53614  0.55800  0.53345  1.0000
  C   C2285     1.0  0.51656  0.88760  0.51588  1.0000
  H   H1820     1.0  0.57370  0.50290  0.53206  1.0000
  C   C2286     1.0  0.55912  0.56004  0.65259  1.0000
  C   C2287     1.0  0.57026  0.55582  0.63521  1.0000
  C   C2288     1.0  0.57465  0.54219  0.64246  1.0000
  C   C2289     1.0  0.56832  0.53305  0.66767  1.0000
  C   C2290     1.0  0.55722  0.53731  0.68498  1.0000
  C   C2291     1.0  0.55236  0.55052  0.67719  1.0000
  H   H1821     1.0  0.57553  0.56313  0.61614  1.0000
  H   H1822     1.0  0.58328  0.53904  0.62904  1.0000
  H   H1823     1.0  0.55239  0.53036  0.70456  1.0000
  H   H1824     1.0  0.54384  0.55371  0.69078  1.0000
  C   C2292     1.0  0.50277  0.58053  0.54296  1.0000
  C   C2293     1.0  0.51736  0.59274  0.54305  1.0000
  H   H1825     1.0  0.51424  0.66278  0.88423  1.0000
  C   C2294     1.0  0.67620  0.50366  0.69774  1.0000
  C   C2295     1.0  0.51839  0.51201  0.62988  1.0000
  H   H1826     1.0  0.52239  0.59653  0.56303  1.0000
  C   C2296     1.0  0.53822  0.61363  0.72108  1.0000
  H   H1827     1.0  0.52550  0.62991  0.73184  1.0000
  H   H1828     1.0  0.71417  0.58154  0.67736  1.0000
  H   H1829     1.0  0.52857  0.88348  0.76508  1.0000
  C   C2297     1.0  0.50073  0.49932  0.71644  1.0000
  H   H1830     1.0  0.54763  0.52660  0.58042  1.0000
  H   H1831     1.0  0.56801  0.60321  0.57775  1.0000
  C   C2298     1.0  0.54182  0.97855  0.61802  1.0000
  C   C2299     1.0  0.50786  0.76555  0.94568  1.0000
  C   C2300     1.0  0.49883  0.74490  0.98370  1.0000
  H   H1832     1.0  0.54968  0.98476  0.63374  1.0000
  C   C2301     1.0  0.57574  0.54241  0.48898  1.0000
  Fe  Fe158     1.0  0.60565  0.50066  0.59615  1.0000
  H   H1833     1.0  0.51419  0.95503  0.56242  1.0000
  H   H1834     1.0  0.58108  0.88010  0.90736  1.0000
  H   H1835     1.0  0.50212  0.59430  0.75121  1.0000
  H   H1836     1.0  0.49364  0.52156  0.51145  1.0000
  C   C2302     1.0  0.51759  0.69453  0.70418  1.0000
  H   H1837     1.0  0.54226  0.95538  0.56248  1.0000
  C   C2303     1.0  0.60901  0.50334  0.52125  1.0000
  C   C2304     1.0  0.51336  0.85495  0.85916  1.0000
  C   C2305     1.0  0.54989  0.86563  0.53587  1.0000
  C   C2306     1.0  0.53564  0.49597  0.63808  1.0000
  H   H1838     1.0  0.52697  0.82092  0.78318  1.0000
  Fe  Fe159     1.0  0.49663  0.55363  0.67430  1.0000
  C   C2307     1.0  0.49965  0.66044  0.81844  1.0000
  H   H1839     1.0  0.64891  0.52921  0.58021  1.0000
  H   H1840     1.0  0.55785  0.93362  0.80827  1.0000
  C   C2308     1.0  0.49794  0.84902  0.87182  1.0000
  C   C2309     1.0  0.54020  0.85328  0.52101  1.0000
  H   H1841     1.0  0.50529  0.82056  0.72847  1.0000
  C   C2310     1.0  0.54627  0.92312  0.77143  1.0000
  H   H1842     1.0  0.52906  0.93180  0.50164  1.0000
  C   C2311     1.0  0.56544  0.87306  0.84273  1.0000
  C   C2312     1.0  0.52203  0.96203  0.57733  1.0000
  C   C2313     1.0  0.57074  0.61505  0.58570  1.0000
  H   H1843     1.0  0.55097  0.52695  0.52813  1.0000
  C   C2314     1.0  0.51619  0.97043  0.59715  1.0000
  S   S316      1.0  0.49140  0.78846  0.86089  1.0000
  H   H1844     1.0  0.51224  0.69013  0.87777  1.0000
  C   C2315     1.0  0.54020  0.89366  0.80224  1.0000
  H   H1845     1.0  0.55221  0.97165  0.51436  1.0000
  H   H1846     1.0  0.54615  0.83077  0.74160  1.0000
  H   H1847     1.0  0.55260  0.90784  0.83553  1.0000
  C   C2316     1.0  0.50885  0.92463  0.53173  1.0000
  H   H1848     1.0  0.51321  0.52091  0.63689  1.0000
  C   C2317     1.0  0.52794  0.68541  0.70474  1.0000
  C   C2318     1.0  0.51019  0.66657  0.86461  1.0000
  H   H1849     1.0  0.55115  0.49626  0.56712  1.0000
  H   H1850     1.0  0.53070  0.64421  0.68464  1.0000
  C   C2319     1.0  0.56284  0.69393  0.64163  1.0000
  C   C2320     1.0  0.49422  0.84268  0.77730  1.0000
  C   C2321     1.0  0.50421  0.58335  0.49108  1.0000
  H   H1851     1.0  0.54703  0.61083  0.60317  1.0000
  H   H1852     1.0  0.49482  0.96189  0.51948  1.0000
  H   H1853     1.0  0.54927  0.69511  0.60524  1.0000
  H   H1854     1.0  0.54022  0.96722  0.72319  1.0000
  H   H1855     1.0  0.51475  0.71441  0.78178  1.0000
  C   C2322     1.0  0.54779  0.88118  0.87498  1.0000
  H   H1856     1.0  0.49939  0.75883  0.90449  1.0000
  H   H1857     1.0  0.57541  0.68903  0.67721  1.0000
  C   C2323     1.0  0.52512  0.60049  0.51716  1.0000
  H   H1858     1.0  0.64322  0.50041  0.57372  1.0000
  H   H1859     1.0  0.53229  0.51307  0.66652  1.0000
  C   C2324     1.0  0.65910  0.50937  0.73434  1.0000
  C   C2325     1.0  0.55110  0.87634  0.84811  1.0000
  C   C2326     1.0  0.52932  0.63304  0.58343  1.0000
  H   H1860     1.0  0.68729  0.53917  0.63868  1.0000
  C   C2327     1.0  0.51753  0.49803  0.76482  1.0000
  Fe  Fe160     1.0  0.58684  0.50397  0.65011  1.0000
  C   C2328     1.0  0.52867  0.63360  0.61317  1.0000
  H   H1861     1.0  0.55621  0.61253  0.65681  1.0000
  H   H1862     1.0  0.71034  0.56369  0.63730  1.0000
  H   H1863     1.0  0.55106  0.59869  0.70386  1.0000
  H   H1864     1.0  0.54060  0.66609  0.59980  1.0000
  C   C2329     1.0  0.55296  0.66083  0.63574  1.0000
  C   C2330     1.0  0.56284  0.66748  0.65751  1.0000
  H   H1865     1.0  0.69478  0.57465  0.71912  1.0000
  C   C2331     1.0  0.51709  0.86714  0.83739  1.0000
  C   C2332     1.0  0.52310  0.51102  0.74493  1.0000
  H   H1866     1.0  0.51380  0.84676  0.70077  1.0000
  H   H1867     1.0  0.53618  0.61019  0.51733  1.0000
  H   H1868     1.0  0.59845  0.98492  0.61283  1.0000
  C   C2333     1.0  0.50190  0.68523  0.94816  1.0000
  C   C2334     1.0  0.67741  0.54316  0.67943  1.0000
  C   C2335     1.0  0.55884  0.61940  0.60029  1.0000
  H   H1869     1.0  0.53272  0.56678  0.52073  1.0000
  H   H1870     1.0  0.53563  0.60719  0.74170  1.0000
  H   H1871     1.0  0.51860  0.52203  0.70591  1.0000
  C   C2336     1.0  0.65521  0.52762  0.62371  1.0000
  H   H1872     1.0  0.65776  0.49682  0.77511  1.0000
  H   H1873     1.0  0.58090  0.65687  0.61634  1.0000
  C   C2337     1.0  0.58617  0.62578  0.58198  1.0000
  C   C2338     1.0  0.50836  0.84574  0.72200  1.0000
  P   P80       1.0  0.66054  0.52522  0.68111  1.0000
  C   C2339     1.0  0.69302  0.56696  0.70147  1.0000
  H   H1874     1.0  0.56687  0.65993  0.67207  1.0000
  C   C2340     1.0  0.57783  0.64520  0.60780  1.0000
  C   C2341     1.0  0.56773  0.68397  0.66044  1.0000
  H   H1875     1.0  0.51540  0.51325  0.53098  1.0000
  H   H1876     1.0  0.54886  0.93442  0.75919  1.0000
  C   C2342     1.0  0.51664  0.93082  0.50542  1.0000
  C   C2343     1.0  0.53798  0.90896  0.75940  1.0000
  H   H1877     1.0  0.50241  0.69853  0.83404  1.0000
  C   C2344     1.0  0.52440  0.89434  0.48963  1.0000
  C   C2345     1.0  0.58969  0.64086  0.59292  1.0000
  C   C2346     1.0  0.65062  0.52150  0.59746  1.0000
  H   H1878     1.0  0.55993  0.97044  0.59799  1.0000
  C   C2347     1.0  0.54686  0.60883  0.69980  1.0000
  C   C2348     1.0  0.54395  0.62961  0.66697  1.0000
  C   C2349     1.0  0.70395  0.57082  0.67798  1.0000
  H   H1879     1.0  0.58721  0.87180  0.85983  1.0000
  C   C2350     1.0  0.50903  0.68193  0.86099  1.0000
  C   C2351     1.0  0.55302  0.68739  0.61990  1.0000
  C   C2352     1.0  0.56228  0.63447  0.61167  1.0000
  C   C2353     1.0  0.53382  0.55743  0.56303  1.0000
  C   C2354     1.0  0.53823  0.54630  0.57993  1.0000
  H   H1880     1.0  0.52878  0.56577  0.57288  1.0000
  H   H1881     1.0  0.53696  0.54622  0.60289  1.0000
  C   C2355     1.0  0.64244  0.52901  0.69253  1.0000
  C   C2356     1.0  0.62915  0.51621  0.70269  1.0000
  C   C2357     1.0  0.61471  0.51874  0.70992  1.0000
  C   C2358     1.0  0.61334  0.53403  0.70647  1.0000
  C   C2359     1.0  0.62644  0.54681  0.69588  1.0000
  C   C2360     1.0  0.64095  0.54432  0.68879  1.0000
  H   H1882     1.0  0.62984  0.50419  0.70402  1.0000
  C   C2361     1.0  0.54434  0.53529  0.56723  1.0000
  H   H1883     1.0  0.60197  0.53586  0.71121  1.0000
  H   H1884     1.0  0.62520  0.55856  0.69253  1.0000
  H   H1885     1.0  0.65079  0.55426  0.67971  1.0000
  C   C2362     1.0  0.61467  0.51147  0.49470  1.0000
  H   H1886     1.0  0.51590  0.62672  0.54624  1.0000
  H   H1887     1.0  0.50624  0.50877  0.59135  1.0000
  H   H1888     1.0  0.52230  0.84985  0.86617  1.0000
  H   H1889     1.0  0.52261  0.83949  0.81708  1.0000
  C   C2363     1.0  0.50344  0.68666  0.83592  1.0000
  H   H1890     1.0  0.52776  0.96611  0.67747  1.0000
  H   H1891     1.0  0.59541  0.62232  0.57084  1.0000
  H   H1892     1.0  0.54848  0.99255  0.74789  1.0000
  H   H1893     1.0  0.68154  0.50551  0.67630  1.0000
  C   C2364     1.0  0.49491  0.60171  0.75680  1.0000
  H   H1894     1.0  0.56832  0.86938  0.82219  1.0000
  C   C2365     1.0  0.54837  0.90795  0.81440  1.0000
  C   C2366     1.0  0.54305  0.54750  0.52060  1.0000
  H   H1895     1.0  0.51524  0.92094  0.54842  1.0000
  C   C2367     1.0  0.49263  0.92258  0.53627  1.0000
  H   H1896     1.0  0.51272  0.62954  0.65091  1.0000
  C   C2368     1.0  0.57277  0.87913  0.89081  1.0000
  C   C2369     1.0  0.52907  0.50756  0.64672  1.0000
  C   C2370     1.0  0.49109  0.50971  0.52156  1.0000
  C   C2371     1.0  0.65678  0.51750  0.64641  1.0000
  C   C2372     1.0  0.54974  0.61677  0.67289  1.0000
  H   H1897     1.0  0.57051  0.88656  0.53355  1.0000
  C   C2373     1.0  0.70178  0.56078  0.65539  1.0000
  H   H1898     1.0  0.56154  0.85959  0.73473  1.0000
  C   C2374     1.0  0.53487  0.89434  0.77481  1.0000
  C   C2375     1.0  0.51794  0.97949  0.51168  1.0000
  H   H1899     1.0  0.53586  0.66849  0.72925  1.0000
  H   H1900     1.0  0.54703  0.86668  0.55812  1.0000
  H   H1901     1.0  0.49681  0.59838  0.80196  1.0000
  H   H1902     1.0  0.54064  0.63653  0.57125  1.0000
  H   H1903     1.0  0.53685  0.88387  0.87955  1.0000
  H   H1904     1.0  0.51766  0.66715  0.77055  1.0000
  C   C2376     1.0  0.54003  0.90471  0.48927  1.0000
  C   C2377     1.0  0.53261  0.62651  0.71556  1.0000
  H   H1905     1.0  0.59801  0.53762  0.49325  1.0000
  C   C2378     1.0  0.54811  0.67090  0.61690  1.0000
  H   H1906     1.0  0.65114  0.51564  0.74172  1.0000
  H   H1907     1.0  0.67153  0.55016  0.72075  1.0000
  C   C2379     1.0  0.54774  0.97052  0.59764  1.0000
  C   C2380     1.0  0.49975  0.62365  0.61371  1.0000
  C   C2381     1.0  0.50346  0.83086  0.73778  1.0000
  C   C2382     1.0  0.54645  0.53569  0.53764  1.0000
  C   C2383     1.0  0.68861  0.54693  0.65615  1.0000
  C   C2384     1.0  0.53548  0.63450  0.68867  1.0000
  C   C2385     1.0  0.55326  0.85526  0.75303  1.0000
  C   C2386     1.0  0.54465  0.83903  0.75691  1.0000
  C   C2387     1.0  0.53387  0.83348  0.78037  1.0000
  C   C2388     1.0  0.53139  0.84415  0.79964  1.0000
  C   C2389     1.0  0.53979  0.86054  0.79568  1.0000
  C   C2390     1.0  0.55100  0.86594  0.77250  1.0000
  C   C2391     1.0  0.51463  0.51171  0.72089  1.0000
  H   H1908     1.0  0.49894  0.70066  0.72658  1.0000
  C   C2392     1.0  0.49030  0.96433  0.65313  1.0000
  H   H1909     1.0  0.51752  0.70204  0.68545  1.0000
  C   C2393     1.0  0.50338  0.50499  0.53280  1.0000
  H   H1910     1.0  0.50766  0.88282  0.81214  1.0000
  H   H1911     1.0  0.57010  0.98200  0.70637  1.0000
  C   C2394     1.0  0.50054  0.62265  0.58426  1.0000
  H   H1912     1.0  0.53384  0.52067  0.74833  1.0000
  H   H1913     1.0  0.52248  0.97142  0.50004  1.0000
  H   H1914     1.0  0.60441  0.50875  0.71715  1.0000
  C   C2395     1.0  0.55356  0.97394  0.49151  1.0000
  C   C2396     1.0  0.56164  0.49883  0.52507  1.0000
  C   C2397     1.0  0.50551  0.65584  0.84333  1.0000
  C   C2398     1.0  0.64873  0.49504  0.61632  1.0000
  H   H1915     1.0  0.49744  0.86782  0.77093  1.0000
  C   C2399     1.0  0.50090  0.73006  0.78912  1.0000
  H   H1916     1.0  0.54905  0.49495  0.72805  1.0000
  C   C2400     1.0  0.49919  0.85756  0.76156  1.0000
  C   C2401     1.0  0.51753  0.67494  0.75237  1.0000
  H   H1917     1.0  0.60169  0.64914  0.59011  1.0000
  H   H1918     1.0  0.50218  0.67868  0.92940  1.0000
  H   H1919     1.0  0.52990  0.84459  0.53189  1.0000
  C   C2402     1.0  0.49652  0.57564  0.51681  1.0000
  C   C2403     1.0  0.49781  0.98086  0.65378  1.0000
  C   C2404     1.0  0.65338  0.50114  0.64254  1.0000
  H   H1920     1.0  0.51448  0.77773  0.93840  1.0000
  H   H1921     1.0  0.50399  0.97038  0.59648  1.0000
  C   C2405     1.0  0.50702  0.68400  0.75196  1.0000
  P   P81       1.0  0.49245  0.68220  0.78103  1.0000
  S   S317      1.0  0.49374  0.60795  0.69865  1.0000
  C   C2406     1.0  0.49575  0.98404  0.53771  1.0000
  C   C2407     1.0  0.51447  0.50503  0.60402  1.0000
  H   H1922     1.0  0.56454  0.57929  0.50587  1.0000
  C   C2408     1.0  0.49926  0.75495  0.92663  1.0000
  C   C2409     1.0  0.50211  0.97401  0.52256  1.0000
  C   C2410     1.0  0.56654  0.87608  0.49294  1.0000
  C   C2411     1.0  0.49898  0.67604  0.81415  1.0000
  H   H1923     1.0  0.53588  0.68582  0.68644  1.0000
  H   H1924     1.0  0.51120  0.74057  0.79010  1.0000
  C   C2412     1.0  0.49199  0.93313  0.48826  1.0000
  C   C2413     1.0  0.56315  0.87690  0.52192  1.0000
  H   H1925     1.0  0.49789  0.91722  0.80427  1.0000
  H   H1926     1.0  0.51754  0.67515  0.97042  1.0000
  H   H1927     1.0  0.63458  0.98735  0.56811  1.0000
  C   C2414     1.0  0.54363  0.85233  0.49207  1.0000
  C   C2415     1.0  0.66300  0.49886  0.75352  1.0000
  H   H1928     1.0  0.49424  0.50031  0.69792  1.0000
  S   S318      1.0  0.57990  0.49787  0.60593  1.0000
  C   C2416     1.0  0.49190  0.60409  0.78560  1.0000
  S   S319      1.0  0.49399  0.92462  0.61316  1.0000
  H   H1929     1.0  0.49680  0.95650  0.64601  1.0000
  H   H1930     1.0  0.49559  0.65175  0.80263  1.0000
  C   C2417     1.0  0.52870  0.99096  0.67563  1.0000
  C   C2418     1.0  0.50284  0.71523  0.78440  1.0000
  S   S320      1.0  0.49141  0.81024  0.78493  1.0000
  C   C2419     1.0  0.49221  0.69500  0.94972  1.0000
  C   C2420     1.0  0.49029  0.73937  0.93613  1.0000
  H   H1931     1.0  0.94047  0.37600  0.47898  1.0000
  S   S321      1.0  0.94032  0.46808  0.38579  1.0000
  H   H1932     1.0  0.77580  0.19095  0.02209  1.0000
  Fe  Fe161     1.0  0.88927  0.38490  0.38319  1.0000
  S   S322      1.0  0.90004  0.38329  0.34023  1.0000
  S   S323      1.0  0.88077  0.40590  0.39043  1.0000
  Fe  Fe162     1.0  0.89365  0.35479  0.40716  1.0000
  S   S324      1.0  0.90476  0.35051  0.36537  1.0000
  S   S325      1.0  0.89104  0.33803  0.44644  1.0000
  Fe  Fe163     1.0  0.91868  0.37675  0.36437  1.0000
  S   S326      1.0  0.94449  0.38773  0.34673  1.0000
  Fe  Fe164     1.0  0.88510  0.35730  0.34402  1.0000
  S   S327      1.0  0.87455  0.34667  0.30218  1.0000
  S   S328      1.0  0.90888  0.38027  0.40735  1.0000
  S   S329      1.0  0.87298  0.35954  0.38603  1.0000
  Fe  Fe165     1.0  0.79939  0.31184  0.19276  1.0000
  S   S330      1.0  0.77543  0.31575  0.18974  1.0000
  S   S331      1.0  0.81006  0.31758  0.23668  1.0000
  Fe  Fe166     1.0  0.79770  0.30069  0.13130  1.0000
  S   S332      1.0  0.77432  0.30441  0.12480  1.0000
  S   S333      1.0  0.80931  0.29053  0.09632  1.0000
  Fe  Fe167     1.0  0.78473  0.32710  0.14650  1.0000
  S   S334      1.0  0.78126  0.34961  0.12759  1.0000
  Fe  Fe168     1.0  0.76706  0.29241  0.16838  1.0000
  H   H1933     1.0  0.76368  0.40542  0.05409  1.0000
  S   S335      1.0  0.80898  0.32446  0.14997  1.0000
  S   S336      1.0  0.79018  0.28747  0.17430  1.0000
  Fe  Fe169     1.0  0.83670  0.46693  0.17740  1.0000
  S   S337      1.0  0.81430  0.45544  0.20491  1.0000
  S   S338      1.0  0.86176  0.47901  0.19381  1.0000
  Fe  Fe170     1.0  0.82023  0.45238  0.12250  1.0000
  S   S339      1.0  0.79724  0.43994  0.14758  1.0000
  S   S340      1.0  0.81830  0.44307  0.07766  1.0000
  Fe  Fe171     1.0  0.80117  0.46267  0.16926  1.0000
  S   S341      1.0  0.78023  0.47204  0.17804  1.0000
  Fe  Fe172     1.0  0.81207  0.43370  0.18034  1.0000
  S   S342      1.0  0.80759  0.40930  0.20189  1.0000
  S   S343      1.0  0.82378  0.47591  0.14274  1.0000
  S   S344      1.0  0.83490  0.44456  0.15455  1.0000
  C   C2421     1.0  0.86911  0.46967  0.11481  1.0000
  C   C2422     1.0  0.81771  0.44304  0.01967  1.0000
  C   C2423     1.0  0.82115  0.45262  0.04305  1.0000
  C   C2424     1.0  0.82701  0.46921  0.03810  1.0000
  C   C2425     1.0  0.83007  0.47603  0.00999  1.0000
  H   H1934     1.0  0.81306  0.43024  0.02329  1.0000
  H   H1935     1.0  0.82946  0.47674  0.05589  1.0000
  C   C2426     1.0  0.89299  0.45526  0.28310  1.0000
  C   C2427     1.0  0.76092  0.46301  0.16568  1.0000
  C   C2428     1.0  0.75811  0.45133  0.14570  1.0000
  H   H1936     1.0  0.76788  0.44779  0.13704  1.0000
  C   C2429     1.0  0.78822  0.36606  0.14863  1.0000
  C   C2430     1.0  0.78684  0.38087  0.13966  1.0000
  C   C2431     1.0  0.79301  0.39428  0.15558  1.0000
  C   C2432     1.0  0.80003  0.39279  0.18113  1.0000
  C   C2433     1.0  0.80098  0.37786  0.19047  1.0000
  C   C2434     1.0  0.79525  0.36455  0.17413  1.0000
  H   H1937     1.0  0.78121  0.38204  0.12016  1.0000
  H   H1938     1.0  0.79223  0.40572  0.14822  1.0000
  H   H1939     1.0  0.80633  0.37659  0.21026  1.0000
  H   H1940     1.0  0.79624  0.35313  0.18134  1.0000
  C   C2435     1.0  0.80932  0.29421  0.05900  1.0000
  C   C2436     1.0  0.79633  0.29635  0.04501  1.0000
  C   C2437     1.0  0.79705  0.29829  0.01488  1.0000
  H   H1941     1.0  0.91753  0.43438  0.32724  1.0000
  C   C2438     1.0  0.84134  0.28795  0.26438  1.0000
  C   C2439     1.0  0.82289  0.29424  0.04278  1.0000
  H   H1942     1.0  0.78569  0.29615  0.05729  1.0000
  H   H1943     1.0  0.78976  0.24188  0.21636  1.0000
  H   H1944     1.0  0.85587  0.38082  0.10917  1.0000
  H   H1945     1.0  0.83293  0.29253  0.05320  1.0000
  C   C2440     1.0  0.97469  0.40953  0.40651  1.0000
  H   H1946     1.0  0.85988  0.48810  0.05643  1.0000
  C   C2441     1.0  0.74208  0.24548  0.16372  1.0000
  C   C2442     1.0  0.84861  0.29678  0.28677  1.0000
  C   C2443     1.0  0.96089  0.44480  0.33365  1.0000
  H   H1947     1.0  0.83059  0.30071  0.21836  1.0000
  H   H1948     1.0  0.75489  0.25025  0.16411  1.0000
  C   C2444     1.0  0.82389  0.28694  0.31552  1.0000
  C   C2445     1.0  0.96642  0.45388  0.30800  1.0000
  H   H1949     1.0  0.76127  0.23869  0.21192  1.0000
  C   C2446     1.0  0.85634  0.33909  0.28443  1.0000
  C   C2447     1.0  0.85711  0.33796  0.25471  1.0000
  C   C2448     1.0  0.84319  0.33178  0.23967  1.0000
  C   C2449     1.0  0.82816  0.32631  0.25417  1.0000
  C   C2450     1.0  0.82739  0.32744  0.28388  1.0000
  C   C2451     1.0  0.84130  0.33382  0.29886  1.0000
  H   H1950     1.0  0.86861  0.34194  0.24318  1.0000
  H   H1951     1.0  0.84412  0.33115  0.21689  1.0000
  H   H1952     1.0  0.81592  0.32322  0.29548  1.0000
  H   H1953     1.0  0.84037  0.33431  0.32169  1.0000
  C   C2452     1.0  0.77405  0.43617  0.02242  1.0000
  C   C2453     1.0  0.84113  0.45226  0.29892  1.0000
  C   C2454     1.0  0.75859  0.18350  0.99039  1.0000
  C   C2455     1.0  0.87022  0.48460  0.22735  1.0000
  H   H1954     1.0  0.75246  0.34202  0.16368  1.0000
  H   H1955     1.0  0.85997  0.46315  0.03586  1.0000
  H   H1956     1.0  0.88555  0.40887  0.23632  1.0000
  C   C2456     1.0  0.74827  0.43877  0.01211  1.0000
  H   H1957     1.0  0.77477  0.36338  0.01872  1.0000
  C   C2457     1.0  0.92361  0.45106  0.38646  1.0000
  C   C2458     1.0  0.92575  0.43612  0.38892  1.0000
  C   C2459     1.0  0.91267  0.42227  0.38894  1.0000
  C   C2460     1.0  0.89728  0.42327  0.38801  1.0000
  C   C2461     1.0  0.89508  0.43825  0.38595  1.0000
  C   C2462     1.0  0.90826  0.45217  0.38466  1.0000
  H   H1958     1.0  0.93758  0.43525  0.39053  1.0000
  H   H1959     1.0  0.91460  0.41088  0.38992  1.0000
  H   H1960     1.0  0.88319  0.43904  0.38552  1.0000
  H   H1961     1.0  0.90650  0.46367  0.38272  1.0000
  H   H1962     1.0  0.87555  0.48738  0.36256  1.0000
  S   S345      1.0  0.74135  0.27582  0.17649  1.0000
  C   C2463     1.0  0.74156  0.42023  0.19844  1.0000
  H   H1963     1.0  0.87776  0.45083  0.00443  1.0000
  H   H1964     1.0  0.94543  0.42250  0.35326  1.0000
  H   H1965     1.0  0.79565  0.28611  0.25658  1.0000
  C   C2464     1.0  0.83966  0.42829  0.26152  1.0000
  C   C2465     1.0  0.85802  0.43208  0.02563  1.0000
  C   C2466     1.0  0.88789  0.43853  0.28679  1.0000
  H   H1966     1.0  0.88632  0.46126  0.27067  1.0000
  H   H1967     1.0  0.84190  0.46167  0.31317  1.0000
  H   H1968     1.0  0.74316  0.25556  0.01446  1.0000
  C   C2467     1.0  0.75307  0.47317  0.03957  1.0000
  H   H1969     1.0  0.91004  0.47729  0.29400  1.0000
  H   H1970     1.0  0.90909  0.41685  0.01439  1.0000
  C   C2468     1.0  0.74261  0.44425  0.13677  1.0000
  C   C2469     1.0  0.85393  0.44634  0.29562  1.0000
  H   H1971     1.0  0.88143  0.41689  0.02242  1.0000
  C   C2470     1.0  0.96744  0.36487  0.39782  1.0000
  C   C2471     1.0  0.82509  0.27900  0.26701  1.0000
  C   C2472     1.0  0.85145  0.37565  0.31258  1.0000
  C   C2473     1.0  0.85528  0.44775  0.36866  1.0000
  C   C2474     1.0  0.97680  0.48745  0.28437  1.0000
  C   C2475     1.0  0.75018  0.35062  0.17754  1.0000
  H   H1972     1.0  0.82629  0.26821  0.13444  1.0000
  C   C2476     1.0  0.81996  0.24848  0.24331  1.0000
  H   H1973     1.0  0.85803  0.38661  0.35196  1.0000
  H   H1974     1.0  0.89689  0.45199  0.08493  1.0000
  P   P82       1.0  0.81590  0.26713  0.23840  1.0000
  C   C2477     1.0  0.91076  0.44020  0.31469  1.0000
  C   C2478     1.0  0.96335  0.36893  0.42468  1.0000
  C   C2479     1.0  0.86637  0.45293  0.07448  1.0000
  H   H1975     1.0  0.94298  0.43310  0.44132  1.0000
  C   C2480     1.0  0.74976  0.48568  0.08303  1.0000
  H   H1976     1.0  0.84572  0.36807  0.27055  1.0000
  H   H1977     1.0  0.85487  0.39541  0.24814  1.0000
  C   C2481     1.0  0.85340  0.43448  0.27656  1.0000
  C   C2482     1.0  0.86271  0.47905  0.06942  1.0000
  H   H1978     1.0  0.94337  0.40437  0.46871  1.0000
  C   C2483     1.0  0.97513  0.40812  0.34769  1.0000
  C   C2484     1.0  0.74856  0.35975  0.22475  1.0000
  C   C2485     1.0  0.76475  0.43516  0.22242  1.0000
  C   C2486     1.0  0.77241  0.42414  0.21513  1.0000
  C   C2487     1.0  0.78823  0.27546  0.24757  1.0000
  C   C2488     1.0  0.76242  0.26041  0.23188  1.0000
  P   P83       1.0  0.86659  0.43433  0.05990  1.0000
  C   C2489     1.0  0.96104  0.39991  0.36401  1.0000
  H   H1979     1.0  0.85601  0.33770  0.44851  1.0000
  H   H1980     1.0  0.78700  0.29961  0.00407  1.0000
  H   H1981     1.0  0.77890  0.42119  0.09193  1.0000
  C   C2490     1.0  0.77214  0.27371  0.24455  1.0000
  C   C2491     1.0  0.74927  0.43308  0.21439  1.0000
  H   H1982     1.0  0.82564  0.41029  0.99213  1.0000
  H   H1983     1.0  0.77092  0.44549  0.23378  1.0000
  C   C2492     1.0  0.96082  0.48547  0.27905  1.0000
  C   C2493     1.0  0.98343  0.36779  0.38915  1.0000
  H   H1984     1.0  0.92430  0.45164  0.07671  1.0000
  H   H1985     1.0  0.93477  0.41175  0.30845  1.0000
  C   C2494     1.0  0.86291  0.46483  0.05773  1.0000
  C   C2495     1.0  0.83273  0.48600  0.43097  1.0000
  C   C2496     1.0  0.83694  0.40758  0.12525  1.0000
  C   C2497     1.0  0.84116  0.39364  0.12706  1.0000
  C   C2498     1.0  0.83443  0.29175  0.14993  1.0000
  C   C2499     1.0  0.86099  0.48462  0.25221  1.0000
  H   H1986     1.0  0.96532  0.44926  0.35367  1.0000
  H   H1987     1.0  0.84839  0.28831  0.24494  1.0000
  H   H1988     1.0  0.82790  0.40905  0.14013  1.0000
  H   H1989     1.0  0.83535  0.38433  0.14335  1.0000
  C   C2500     1.0  0.82686  0.43422  0.26492  1.0000
  C   C2501     1.0  0.81057  0.49316  0.45151  1.0000
  H   H1990     1.0  0.79905  0.23730  0.27131  1.0000
  H   H1991     1.0  0.75303  0.31052  0.03073  1.0000
  C   C2502     1.0  0.75959  0.25135  0.08033  1.0000
  C   C2503     1.0  0.86023  0.40382  0.08688  1.0000
  H   H1992     1.0  0.94203  0.49225  0.44690  1.0000
  C   C2504     1.0  0.89066  0.42451  0.03449  1.0000
  C   C2505     1.0  0.82375  0.27674  0.20398  1.0000
  H   H1993     1.0  0.82192  0.47802  0.47300  1.0000
  C   C2506     1.0  0.96390  0.48649  0.44654  1.0000
  C   C2507     1.0  0.76471  0.41121  0.19939  1.0000
  C   C2508     1.0  0.91999  0.44247  0.47100  1.0000
  C   C2509     1.0  0.91844  0.43417  0.04515  1.0000
  C   C2510     1.0  0.90631  0.44229  0.45718  1.0000
  C   C2511     1.0  0.84330  0.42057  0.02195  1.0000
  H   H1994     1.0  0.81683  0.25483  0.18195  1.0000
  H   H1995     1.0  0.98633  0.36422  0.36850  1.0000
  C   C2512     1.0  0.85029  0.47739  0.37407  1.0000
  H   H1996     1.0  0.84811  0.23102  0.22582  1.0000
  C   C2513     1.0  0.75900  0.40317  0.07596  1.0000
  H   H1997     1.0  0.87975  0.46156  0.35718  1.0000
  C   C2514     1.0  0.74603  0.24281  0.06683  1.0000
  H   H1998     1.0  0.86097  0.30424  0.28425  1.0000
  C   C2515     1.0  0.96801  0.44317  0.43153  1.0000
  H   H1999     1.0  0.78349  0.43735  0.03695  1.0000
  H   H2000     1.0  0.74661  0.23322  0.05374  1.0000
  C   C2516     1.0  0.74399  0.37522  0.18396  1.0000
  H   H2001     1.0  0.88447  0.40332  0.47102  1.0000
  C   C2517     1.0  0.83731  0.23235  0.23542  1.0000
  H   H2002     1.0  0.95093  0.36669  0.43117  1.0000
  C   C2518     1.0  0.82762  0.44630  0.28347  1.0000
  H   H2003     1.0  0.94986  0.39524  0.40618  1.0000
  C   C2519     1.0  0.89923  0.44415  0.06963  1.0000
  C   C2520     1.0  0.78490  0.25063  0.22502  1.0000
  C   C2521     1.0  0.81301  0.22161  0.26524  1.0000
  C   C2522     1.0  0.82774  0.27516  0.15308  1.0000
  H   H2004     1.0  0.77093  0.40290  0.19371  1.0000
  H   H2005     1.0  0.74954  0.35825  0.24742  1.0000
  H   H2006     1.0  0.92992  0.45344  0.47018  1.0000
  C   C2523     1.0  0.94345  0.42359  0.30820  1.0000
  C   C2524     1.0  0.91489  0.44401  0.06500  1.0000
  H   H2007     1.0  0.77051  0.24834  0.07784  1.0000
  H   H2008     1.0  0.74467  0.27734  0.11375  1.0000
  C   C2525     1.0  0.90632  0.42442  0.02990  1.0000
  H   H2009     1.0  0.96678  0.44295  0.40877  1.0000
  C   C2526     1.0  0.98476  0.44844  0.47142  1.0000
  H   H2010     1.0  0.75891  0.44278  0.05283  1.0000
  C   C2527     1.0  0.86939  0.45547  0.10319  1.0000
  C   C2528     1.0  0.88694  0.48960  0.22880  1.0000
  C   C2529     1.0  0.74926  0.40921  0.19069  1.0000
  C   C2530     1.0  0.83757  0.46312  0.37901  1.0000
  C   C2531     1.0  0.79474  0.26391  0.23794  1.0000
  H   H2011     1.0  0.83025  0.43738  0.38001  1.0000
  H   H2012     1.0  0.84033  0.42999  0.10244  1.0000
  C   C2532     1.0  0.76489  0.31908  0.02960  1.0000
  H   H2013     1.0  0.76736  0.28297  0.25116  1.0000
  C   C2533     1.0  0.95594  0.43767  0.47975  1.0000
  C   C2534     1.0  0.82236  0.26765  0.17999  1.0000
  C   C2535     1.0  0.76013  0.43933  0.03129  1.0000
  C   C2536     1.0  0.82436  0.35900  0.98971  1.0000
  H   H2014     1.0  0.83827  0.29755  0.12898  1.0000
  C   C2537     1.0  0.94862  0.43269  0.28266  1.0000
  H   H2015     1.0  0.84235  0.25643  0.21818  1.0000
  H   H2016     1.0  0.97540  0.40750  0.32485  1.0000
  C   C2538     1.0  0.82173  0.48502  0.45366  1.0000
  H   H2017     1.0  0.76838  0.41587  0.14160  1.0000
  C   C2539     1.0  0.86573  0.48144  0.09796  1.0000
  H   H2018     1.0  0.87123  0.47150  0.13705  1.0000
  C   C2540     1.0  0.77608  0.43206  0.99459  1.0000
  C   C2541     1.0  0.86551  0.47664  0.36647  1.0000
  P   P84       1.0  0.98185  0.47302  0.30724  1.0000
  C   C2542     1.0  0.86277  0.40411  0.31675  1.0000
  H   H2019     1.0  0.82806  0.47744  0.33320  1.0000
  C   C2543     1.0  0.86797  0.46191  0.36364  1.0000
  C   C2544     1.0  0.97998  0.49170  0.45244  1.0000
  H   H2020     1.0  0.83648  0.41316  0.03989  1.0000
  H   H2021     1.0  0.98713  0.48390  0.44930  1.0000
  H   H2022     1.0  0.96413  0.45460  0.26249  1.0000
  H   H2023     1.0  0.74939  0.35200  0.09985  1.0000
  P   P85       1.0  0.81527  0.35595  0.02541  1.0000
  C   C2545     1.0  0.81134  0.37335  0.03843  1.0000
  C   C2546     1.0  0.79589  0.34089  0.02686  1.0000
  C   C2547     1.0  0.78750  0.33553  0.05319  1.0000
  C   C2548     1.0  0.77210  0.32466  0.05452  1.0000
  C   C2549     1.0  0.98314  0.44838  0.44212  1.0000
  C   C2550     1.0  0.85463  0.34288  0.46849  1.0000
  C   C2551     1.0  0.78839  0.33547  0.00186  1.0000
  C   C2552     1.0  0.81351  0.37704  0.06691  1.0000
  C   C2553     1.0  0.80930  0.38981  0.07734  1.0000
  C   C2554     1.0  0.80270  0.39886  0.05978  1.0000
  C   C2555     1.0  0.80012  0.39501  0.03166  1.0000
  C   C2556     1.0  0.80443  0.38231  0.02107  1.0000
  C   C2557     1.0  0.82931  0.35094  0.04754  1.0000
  C   C2558     1.0  0.82547  0.33616  0.06294  1.0000
  C   C2559     1.0  0.83666  0.33261  0.07982  1.0000
  C   C2560     1.0  0.85180  0.34368  0.08115  1.0000
  C   C2561     1.0  0.85580  0.35835  0.06558  1.0000
  C   C2562     1.0  0.84457  0.36200  0.04891  1.0000
  H   H2024     1.0  0.89429  0.48975  0.20985  1.0000
  H   H2025     1.0  0.97454  0.40978  0.42940  1.0000
  H   H2026     1.0  0.79279  0.33988  0.07276  1.0000
  H   H2027     1.0  0.76572  0.32068  0.07495  1.0000
  C   C2563     1.0  0.86176  0.35922  0.47115  1.0000
  H   H2028     1.0  0.80201  0.37918  0.99957  1.0000
  C   C2564     1.0  0.75128  0.34861  0.20679  1.0000
  H   H2029     1.0  0.81802  0.36985  0.08139  1.0000
  H   H2030     1.0  0.81085  0.39252  0.09931  1.0000
  H   H2031     1.0  0.79958  0.40881  0.06811  1.0000
  H   H2032     1.0  0.79477  0.40187  0.01811  1.0000
  H   H2033     1.0  0.74022  0.38581  0.00965  1.0000
  H   H2034     1.0  0.81396  0.32726  0.06188  1.0000
  H   H2035     1.0  0.83358  0.32118  0.09169  1.0000
  H   H2036     1.0  0.86045  0.34079  0.09410  1.0000
  H   H2037     1.0  0.86760  0.36684  0.06634  1.0000
  H   H2038     1.0  0.84779  0.37341  0.03692  1.0000
  C   C2565     1.0  0.86260  0.40674  0.28721  1.0000
  C   C2566     1.0  0.85270  0.39169  0.10771  1.0000
  C   C2567     1.0  0.84009  0.44836  0.37635  1.0000
  C   C2568     1.0  0.86836  0.48976  0.27774  1.0000
  C   C2569     1.0  0.76758  0.41198  0.09721  1.0000
  H   H2039     1.0  0.81716  0.28662  0.33534  1.0000
  H   H2040     1.0  0.85720  0.43632  0.36629  1.0000
  H   H2041     1.0  0.94383  0.42795  0.26300  1.0000
  P   P86       1.0  0.86990  0.42686  0.27130  1.0000
  C   C2570     1.0  0.88696  0.43438  0.05441  1.0000
  C   C2571     1.0  0.76364  0.35871  0.06065  1.0000
  C   C2572     1.0  0.98899  0.41703  0.39027  1.0000
  H   H2042     1.0  0.80499  0.21194  0.27873  1.0000
  C   C2573     1.0  0.82681  0.21979  0.25245  1.0000
  H   H2043     1.0  0.82945  0.20870  0.25594  1.0000
  C   C2574     1.0  0.81655  0.27815  0.29311  1.0000
  C   C2575     1.0  0.89723  0.43106  0.30186  1.0000
  H   H2044     1.0  0.78442  0.42571  0.22132  1.0000
  H   H2045     1.0  0.86580  0.44741  0.22346  1.0000
  C   C2576     1.0  0.80964  0.23595  0.26086  1.0000
  H   H2046     1.0  0.75007  0.25932  0.22874  1.0000
  C   C2577     1.0  0.95449  0.43769  0.45019  1.0000
  H   H2047     1.0  0.74343  0.44175  0.21975  1.0000
  H   H2048     1.0  0.87177  0.44638  0.11673  1.0000
  C   C2578     1.0  0.90779  0.41450  0.48604  1.0000
  H   H2049     1.0  0.80422  0.27081  0.29614  1.0000
  C   C2579     1.0  0.90653  0.46437  0.29604  1.0000
  C   C2580     1.0  0.85054  0.37818  0.28336  1.0000
  C   C2581     1.0  0.87470  0.43939  0.18610  1.0000
  C   C2582     1.0  0.88187  0.42876  0.17494  1.0000
  C   C2583     1.0  0.88580  0.41782  0.19312  1.0000
  C   C2584     1.0  0.88232  0.41731  0.22242  1.0000
  C   C2585     1.0  0.87452  0.42751  0.23359  1.0000
  C   C2586     1.0  0.87118  0.43890  0.21532  1.0000
  C   C2587     1.0  0.85595  0.39370  0.27070  1.0000
  H   H2050     1.0  0.87180  0.44809  0.17230  1.0000
  H   H2051     1.0  0.88446  0.42907  0.15226  1.0000
  H   H2052     1.0  0.89153  0.40969  0.18457  1.0000
  C   C2588     1.0  0.76366  0.36063  0.03111  1.0000
  C   C2589     1.0  0.96069  0.40124  0.39343  1.0000
  H   H2053     1.0  0.86728  0.41400  0.33017  1.0000
  H   H2054     1.0  0.84756  0.36365  0.32234  1.0000
  H   H2055     1.0  0.82569  0.46339  0.38466  1.0000
  H   H2056     1.0  0.81779  0.45105  0.28569  1.0000
  H   H2057     1.0  0.86927  0.40215  0.07241  1.0000
  H   H2058     1.0  0.97214  0.37972  0.46326  1.0000
  C   C2590     1.0  0.91532  0.45684  0.31205  1.0000
  H   H2059     1.0  0.92560  0.46383  0.32268  1.0000
  H   H2060     1.0  0.88311  0.42792  0.44577  1.0000
  C   C2591     1.0  0.82373  0.29654  0.01316  1.0000
  C   C2592     1.0  0.77301  0.32456  0.00327  1.0000
  H   H2061     1.0  0.84552  0.30343  0.32938  1.0000
  H   H2062     1.0  0.84024  0.31379  0.17111  1.0000
  C   C2593     1.0  0.76878  0.24882  0.22228  1.0000
  H   H2063     1.0  0.90580  0.45299  0.44567  1.0000
  C   C2594     1.0  0.96008  0.44777  0.28252  1.0000
  C   C2595     1.0  0.83396  0.24670  0.23100  1.0000
  C   C2596     1.0  0.94950  0.42969  0.33361  1.0000
  H   H2064     1.0  0.89411  0.41818  0.30406  1.0000
  H   H2065     1.0  0.83888  0.41900  0.24685  1.0000
  C   C2597     1.0  0.98893  0.41695  0.36070  1.0000
  C   C2598     1.0  0.84410  0.41948  0.10396  1.0000
  C   C2599     1.0  0.83012  0.29342  0.20047  1.0000
  H   H2066     1.0  0.81641  0.42950  0.25287  1.0000
  C   C2600     1.0  0.92084  0.42857  0.48558  1.0000
  C   C2601     1.0  0.76164  0.40891  0.12551  1.0000
  C   C2602     1.0  0.85621  0.41799  0.08524  1.0000
  H   H2067     1.0  0.86422  0.45115  0.30780  1.0000
  C   C2603     1.0  0.85741  0.38861  0.32928  1.0000
  C   C2604     1.0  0.83989  0.29632  0.31228  1.0000
  C   C2605     1.0  0.83555  0.30089  0.17361  1.0000
  C   C2606     1.0  0.74715  0.39695  0.13289  1.0000
  H   H2068     1.0  0.95816  0.35961  0.38357  1.0000
  H   H2069     1.0  0.74277  0.38147  0.22770  1.0000
  H   H2070     1.0  0.95135  0.47510  0.28781  1.0000
  C   C2607     1.0  0.74801  0.46757  0.17639  1.0000
  H   H2071     1.0  0.76964  0.27040  0.10765  1.0000
  H   H2072     1.0  0.80208  0.49244  0.46914  1.0000
  C   C2608     1.0  0.89349  0.42820  0.45736  1.0000
  C   C2609     1.0  0.74511  0.26784  0.10032  1.0000
  C   C2610     1.0  0.82052  0.44985  0.99163  1.0000
  H   H2073     1.0  0.95865  0.47482  0.43839  1.0000
  H   H2074     1.0  0.86106  0.48993  0.29656  1.0000
  H   H2075     1.0  0.78708  0.43014  0.98747  1.0000
  H   H2076     1.0  0.77476  0.36049  0.07089  1.0000
  C   C2611     1.0  0.81086  0.29843  0.99889  1.0000
  C   C2612     1.0  0.89426  0.41431  0.47163  1.0000
  H   H2077     1.0  0.76042  0.47280  0.02084  1.0000
  H   H2078     1.0  0.75003  0.47656  0.19186  1.0000
  H   H2079     1.0  0.84816  0.48092  0.25165  1.0000
  C   C2613     1.0  0.74940  0.35865  0.01776  1.0000
  C   C2614     1.0  0.74929  0.35397  0.07702  1.0000
  C   C2615     1.0  0.75914  0.26387  0.09705  1.0000
  H   H2080     1.0  0.86853  0.36664  0.45312  1.0000
  C   C2616     1.0  0.97529  0.37629  0.44266  1.0000
  C   C2617     1.0  0.75883  0.48520  0.05836  1.0000
  H   H2081     1.0  0.74197  0.22146  0.15661  1.0000
  H   H2082     1.0  0.83496  0.48886  0.00634  1.0000
  H   H2083     1.0  0.77050  0.49395  0.05413  1.0000
  H   H2084     1.0  0.81917  0.48488  0.28744  1.0000
  H   H2085     1.0  0.75443  0.33850  0.21545  1.0000
  C   C2618     1.0  0.86643  0.44178  0.00203  1.0000
  C   C2619     1.0  0.74482  0.37294  0.21344  1.0000
  Fe  Fe173     1.0  0.93508  0.49054  0.37320  1.0000
  C   C2620     1.0  0.74669  0.36392  0.16609  1.0000
  C   C2621     1.0  0.83079  0.48992  0.32680  1.0000
  H   H2086     1.0  0.89608  0.36615  0.48249  1.0000
  H   H2087     1.0  0.74641  0.36544  0.14335  1.0000
  C   C2622     1.0  0.89389  0.34113  0.48320  1.0000
  H   H2088     1.0  0.93059  0.43414  0.04149  1.0000
  C   C2623     1.0  0.98527  0.48065  0.34207  1.0000
  C   C2624     1.0  0.82555  0.49409  0.30095  1.0000
  H   H2089     1.0  0.83445  0.29665  0.00115  1.0000
  C   C2625     1.0  0.74437  0.39146  0.08300  1.0000
  H   H2090     1.0  0.74943  0.17663  0.00590  1.0000
  C   C2626     1.0  0.77360  0.19167  0.99973  1.0000
  H   H2091     1.0  0.86523  0.49232  0.10718  1.0000
  H   H2092     1.0  0.74066  0.43533  0.12117  1.0000
  H   H2093     1.0  0.84140  0.47973  0.43306  1.0000
  C   C2627     1.0  0.83714  0.41883  0.99497  1.0000
  H   H2094     1.0  0.79731  0.20718  0.98765  1.0000
  H   H2095     1.0  0.96098  0.44977  0.59424  1.0000
  H   H2096     1.0  0.86653  0.37844  0.49885  1.0000
  S   S346      1.0  0.94706  0.47103  0.66956  1.0000
  Fe  Fe174     1.0  0.89964  0.38556  0.65113  1.0000
  S   S347      1.0  0.90308  0.37641  0.69460  1.0000
  S   S348      1.0  0.89454  0.40805  0.63922  1.0000
  Fe  Fe175     1.0  0.90019  0.35605  0.62147  1.0000
  S   S349      1.0  0.90317  0.34388  0.66301  1.0000
  S   S350      1.0  0.89964  0.34330  0.58011  1.0000
  Fe  Fe176     1.0  0.88472  0.35341  0.68378  1.0000
  S   S351      1.0  0.86030  0.34195  0.70832  1.0000
  Fe  Fe177     1.0  0.92124  0.36770  0.67100  1.0000
  C   C2628     1.0  0.86496  0.42719  0.83089  1.0000
  S   S352      1.0  0.88049  0.36357  0.64125  1.0000
  S   S353      1.0  0.91915  0.37899  0.62846  1.0000
  Fe  Fe178     1.0  0.80656  0.30392  0.85688  1.0000
  S   S354      1.0  0.78171  0.30408  0.84765  1.0000
  S   S355      1.0  0.82899  0.30601  0.82831  1.0000
  Fe  Fe179     1.0  0.79937  0.30200  0.92214  1.0000
  S   S356      1.0  0.77456  0.30269  0.91745  1.0000
  S   S357      1.0  0.81338  0.30111  0.96125  1.0000
  Fe  Fe180     1.0  0.77266  0.28498  0.88353  1.0000
  S   S358      1.0  0.74919  0.26415  0.89132  1.0000
  Fe  Fe181     1.0  0.78523  0.32145  0.88221  1.0000
  S   S359      1.0  0.77697  0.34320  0.87860  1.0000
  S   S360      1.0  0.79718  0.28342  0.89021  1.0000
  S   S361      1.0  0.81026  0.32223  0.88960  1.0000
  Fe  Fe182     1.0  0.82134  0.43318  0.87736  1.0000
  S   S362      1.0  0.84136  0.45619  0.87920  1.0000
  S   S363      1.0  0.82891  0.41112  0.87917  1.0000
  Fe  Fe183     1.0  0.79546  0.44931  0.87590  1.0000
  S   S364      1.0  0.81408  0.47352  0.87658  1.0000
  S   S365      1.0  0.76910  0.44614  0.88758  1.0000
  Fe  Fe184     1.0  0.82909  0.46511  0.84450  1.0000
  S   S366      1.0  0.84202  0.48076  0.80441  1.0000
  Fe  Fe185     1.0  0.82481  0.46244  0.91089  1.0000
  S   S367      1.0  0.83169  0.47541  0.95159  1.0000
  S   S368      1.0  0.80951  0.44155  0.84131  1.0000
  S   S369      1.0  0.80591  0.43873  0.91149  1.0000
  H   H2097     1.0  0.84159  0.38796  0.93730  1.0000
  C   C2629     1.0  0.77986  0.36471  0.95529  1.0000
  H   H2098     1.0  0.83778  0.28297  0.94181  1.0000
  H   H2099     1.0  0.91510  0.47434  0.71353  1.0000
  C   C2630     1.0  0.83490  0.35038  0.82626  1.0000
  C   C2631     1.0  0.79152  0.36218  0.87578  1.0000
  C   C2632     1.0  0.80773  0.36378  0.87459  1.0000
  C   C2633     1.0  0.81912  0.37894  0.87465  1.0000
  C   C2634     1.0  0.81436  0.39259  0.87582  1.0000
  C   C2635     1.0  0.79818  0.39112  0.87603  1.0000
  C   C2636     1.0  0.78676  0.37591  0.87599  1.0000
  H   H2100     1.0  0.81153  0.35336  0.87396  1.0000
  H   H2101     1.0  0.83164  0.38004  0.87417  1.0000
  H   H2102     1.0  0.79443  0.40163  0.87709  1.0000
  H   H2103     1.0  0.77423  0.37475  0.87688  1.0000
  H   H2104     1.0  0.98898  0.47433  0.51996  1.0000
  C   C2637     1.0  0.83795  0.44627  0.75538  1.0000
  H   H2105     1.0  0.84997  0.47682  0.69716  1.0000
  H   H2106     1.0  0.90384  0.42052  0.56380  1.0000
  C   C2638     1.0  0.80043  0.39008  0.94458  1.0000
  C   C2639     1.0  0.84554  0.42858  0.97167  1.0000
  H   H2107     1.0  0.74290  0.20790  0.89050  1.0000
  C   C2640     1.0  0.74947  0.43990  0.84172  1.0000
  C   C2641     1.0  0.79491  0.48728  0.93223  1.0000
  H   H2108     1.0  0.82756  0.43019  0.68118  1.0000
  C   C2642     1.0  0.85221  0.33275  0.74259  1.0000
  C   C2643     1.0  0.86093  0.32665  0.76147  1.0000
  C   C2644     1.0  0.85363  0.31858  0.78749  1.0000
  C   C2645     1.0  0.83759  0.31673  0.79540  1.0000
  C   C2646     1.0  0.82894  0.32309  0.77676  1.0000
  C   C2647     1.0  0.83617  0.33093  0.75052  1.0000
  H   H2109     1.0  0.87322  0.32784  0.75576  1.0000
  H   H2110     1.0  0.86047  0.31371  0.80161  1.0000
  H   H2111     1.0  0.81662  0.32179  0.78238  1.0000
  H   H2112     1.0  0.82926  0.33555  0.73618  1.0000
  C   C2648     1.0  0.89743  0.34343  0.54269  1.0000
  C   C2649     1.0  0.89736  0.35684  0.52548  1.0000
  H   H2113     1.0  0.82497  0.41022  0.81337  1.0000
  H   H2114     1.0  0.98365  0.47141  0.66955  1.0000
  H   H2115     1.0  0.84930  0.40304  0.83602  1.0000
  C   C2650     1.0  0.89569  0.32905  0.52987  1.0000
  H   H2116     1.0  0.89877  0.36807  0.53490  1.0000
  C   C2651     1.0  0.95231  0.44969  0.57876  1.0000
  H   H2117     1.0  0.86642  0.32109  0.60142  1.0000
  H   H2118     1.0  0.89565  0.31859  0.54273  1.0000
  H   H2119     1.0  0.79670  0.40787  0.81980  1.0000
  P   P87       1.0  0.86153  0.45062  0.67763  1.0000
  H   H2120     1.0  0.81634  0.39382  0.59477  1.0000
  H   H2121     1.0  0.79441  0.38261  0.56307  1.0000
  C   C2652     1.0  0.87102  0.48277  0.77339  1.0000
  Fe  Fe186     1.0  0.93978  0.49262  0.65735  1.0000
  H   H2122     1.0  0.86132  0.45848  0.73664  1.0000
  H   H2123     1.0  0.83588  0.33966  0.65248  1.0000
  C   C2653     1.0  0.93319  0.45324  0.65993  1.0000
  C   C2654     1.0  0.92167  0.45378  0.64099  1.0000
  C   C2655     1.0  0.91002  0.43982  0.63442  1.0000
  C   C2656     1.0  0.90992  0.42512  0.64657  1.0000
  C   C2657     1.0  0.92182  0.42431  0.66461  1.0000
  C   C2658     1.0  0.93345  0.43842  0.67139  1.0000
  H   H2124     1.0  0.92194  0.46492  0.63064  1.0000
  H   H2125     1.0  0.90114  0.44046  0.61981  1.0000
  H   H2126     1.0  0.92185  0.41290  0.67389  1.0000
  H   H2127     1.0  0.94239  0.43789  0.68599  1.0000
  C   C2659     1.0  0.88121  0.38140  0.57063  1.0000
  C   C2660     1.0  0.94109  0.34548  0.58047  1.0000
  C   C2661     1.0  0.96686  0.47907  0.51601  1.0000
  H   H2128     1.0  0.95131  0.34335  0.53929  1.0000
  C   C2662     1.0  0.93342  0.40160  0.53985  1.0000
  C   C2663     1.0  0.93193  0.38549  0.54544  1.0000
  H   H2129     1.0  0.74007  0.22467  0.81697  1.0000
  H   H2130     1.0  0.93066  0.40827  0.55690  1.0000
  H   H2131     1.0  0.92807  0.37979  0.56648  1.0000
  C   C2664     1.0  0.74971  0.16277  0.90463  1.0000
  H   H2132     1.0  0.89041  0.47557  0.69325  1.0000
  C   C2665     1.0  0.97823  0.38554  0.67899  1.0000
  H   H2133     1.0  0.87534  0.36363  0.82351  1.0000
  H   H2134     1.0  0.75980  0.43965  0.82894  1.0000
  C   C2666     1.0  0.78895  0.38904  0.79112  1.0000
  C   C2667     1.0  0.81753  0.38560  0.57910  1.0000
  H   H2135     1.0  0.83940  0.40521  0.67681  1.0000
  H   H2136     1.0  0.98352  0.36368  0.62128  1.0000
  H   H2137     1.0  0.74480  0.32541  0.90048  1.0000
  H   H2138     1.0  0.84078  0.45083  0.77615  1.0000
  S   S370      1.0  0.94628  0.36847  0.68190  1.0000
  C   C2668     1.0  0.75560  0.18438  0.96147  1.0000
  C   C2669     1.0  0.86300  0.42365  0.77250  1.0000
  C   C2670     1.0  0.90566  0.46336  0.71034  1.0000
  H   H2139     1.0  0.87207  0.47340  0.78788  1.0000
  C   C2671     1.0  0.84203  0.33945  0.63220  1.0000
  C   C2672     1.0  0.80973  0.38034  0.76903  1.0000
  H   H2140     1.0  0.90800  0.40358  0.49711  1.0000
  H   H2141     1.0  0.92068  0.45013  0.52495  1.0000
  C   C2673     1.0  0.93127  0.45932  0.56283  1.0000
  C   C2674     1.0  0.83219  0.36308  0.81094  1.0000
  H   H2142     1.0  0.86222  0.42261  0.74991  1.0000
  C   C2675     1.0  0.85453  0.41091  0.79162  1.0000
  H   H2143     1.0  0.81225  0.39684  0.93576  1.0000
  C   C2676     1.0  0.75173  0.49050  0.85626  1.0000
  H   H2144     1.0  0.89716  0.42309  0.71863  1.0000
  C   C2677     1.0  0.85905  0.33964  0.58092  1.0000
  H   H2145     1.0  0.96347  0.47164  0.49831  1.0000
  H   H2146     1.0  0.81316  0.37231  0.75529  1.0000
  H   H2147     1.0  0.86170  0.37623  0.74760  1.0000
  C   C2678     1.0  0.86091  0.38278  0.70374  1.0000
  C   C2679     1.0  0.85078  0.32889  0.62921  1.0000
  H   H2148     1.0  0.84081  0.38607  0.59102  1.0000
  C   C2680     1.0  0.93896  0.38329  0.49608  1.0000
  C   C2681     1.0  0.75532  0.21434  0.88484  1.0000
  C   C2682     1.0  0.85471  0.39088  0.68362  1.0000
  C   C2683     1.0  0.84424  0.39896  0.69241  1.0000
  H   H2149     1.0  0.77613  0.35183  0.95483  1.0000
  H   H2150     1.0  0.86887  0.37635  0.69689  1.0000
  C   C2684     1.0  0.84027  0.39919  0.72136  1.0000
  C   C2685     1.0  0.85924  0.32895  0.60354  1.0000
  H   H2151     1.0  0.83238  0.40571  0.72799  1.0000
  C   C2686     1.0  0.84176  0.35014  0.60958  1.0000
  C   C2687     1.0  0.89392  0.40985  0.56123  1.0000
  P   P88       1.0  0.93851  0.42904  0.50381  1.0000
  C   C2688     1.0  0.74216  0.32614  0.92294  1.0000
  C   C2689     1.0  0.80037  0.40033  0.80531  1.0000
  C   C2690     1.0  0.92963  0.44979  0.53956  1.0000
  H   H2152     1.0  0.85241  0.34045  0.84202  1.0000
  H   H2153     1.0  0.82495  0.34012  0.83395  1.0000
  H   H2154     1.0  0.75769  0.46295  0.95249  1.0000
  C   C2691     1.0  0.76408  0.43084  0.97571  1.0000
  H   H2155     1.0  0.74448  0.20963  0.95246  1.0000
  H   H2156     1.0  0.93095  0.33479  0.57951  1.0000
  C   C2692     1.0  0.81899  0.43061  0.72411  1.0000
  H   H2157     1.0  0.88016  0.46923  0.62854  1.0000
  C   C2693     1.0  0.86015  0.44010  0.97524  1.0000
  C   C2694     1.0  0.86068  0.36583  0.49724  1.0000
  H   H2158     1.0  0.86909  0.41380  0.60597  1.0000
  C   C2695     1.0  0.76704  0.47213  0.94051  1.0000
  H   H2159     1.0  0.97244  0.42389  0.70715  1.0000
  C   C2696     1.0  0.83065  0.43485  0.70164  1.0000
  H   H2160     1.0  0.85760  0.39799  0.53343  1.0000
  H   H2161     1.0  0.82124  0.35558  0.52372  1.0000
  H   H2162     1.0  0.84245  0.36421  0.91194  1.0000
  H   H2163     1.0  0.81366  0.43305  0.76841  1.0000
  S   S371      1.0  0.91491  0.49035  0.64614  1.0000
  C   C2697     1.0  0.74320  0.34211  0.96398  1.0000
  C   C2698     1.0  0.76789  0.19361  0.94217  1.0000
  C   C2699     1.0  0.97718  0.40649  0.60301  1.0000
  C   C2700     1.0  0.75084  0.44287  0.87052  1.0000
  H   H2164     1.0  0.93280  0.36373  0.52776  1.0000
  C   C2701     1.0  0.74923  0.48199  0.83151  1.0000
  C   C2702     1.0  0.76351  0.47954  0.91601  1.0000
  C   C2703     1.0  0.98386  0.40944  0.50299  1.0000
  H   H2165     1.0  0.79427  0.33959  0.98114  1.0000
  C   C2704     1.0  0.87427  0.47665  0.63916  1.0000
  C   C2705     1.0  0.88285  0.48930  0.75075  1.0000
  H   H2166     1.0  0.79700  0.36352  0.52763  1.0000
  C   C2706     1.0  0.77480  0.38935  0.96572  1.0000
  C   C2707     1.0  0.88157  0.43512  0.70128  1.0000
  C   C2708     1.0  0.84063  0.43224  0.60561  1.0000
  H   H2167     1.0  0.83274  0.33726  0.93681  1.0000
  C   C2709     1.0  0.83768  0.36282  0.93377  1.0000
  C   C2710     1.0  0.89588  0.35577  0.49568  1.0000
  H   H2168     1.0  0.75140  0.47584  0.90960  1.0000
  H   H2169     1.0  0.97290  0.44292  0.51265  1.0000
  H   H2170     1.0  0.75902  0.48060  0.81867  1.0000
  H   H2171     1.0  0.80714  0.48999  0.93812  1.0000
  C   C2711     1.0  0.98497  0.48909  0.55306  1.0000
  H   H2172     1.0  0.75750  0.16040  0.92010  1.0000
  H   H2173     1.0  0.97987  0.37456  0.67254  1.0000
  C   C2712     1.0  0.97953  0.40431  0.53151  1.0000
  H   H2174     1.0  0.94604  0.48679  0.51566  1.0000
  C   C2713     1.0  0.84660  0.39121  0.74175  1.0000
  H   H2175     1.0  0.86537  0.42863  0.85356  1.0000
  H   H2176     1.0  0.87077  0.38633  0.79684  1.0000
  C   C2714     1.0  0.81647  0.40158  0.80161  1.0000
  H   H2177     1.0  0.83125  0.43371  0.59286  1.0000
  C   C2715     1.0  0.96539  0.36440  0.55889  1.0000
  H   H2178     1.0  0.94380  0.41691  0.61822  1.0000
  C   C2716     1.0  0.87331  0.43985  0.81173  1.0000
  C   C2717     1.0  0.79364  0.37908  0.77291  1.0000
  H   H2179     1.0  0.82003  0.36249  0.80771  1.0000
  C   C2718     1.0  0.85683  0.38282  0.73266  1.0000
  H   H2180     1.0  0.85813  0.39089  0.66128  1.0000
  C   C2719     1.0  0.85032  0.35036  0.58369  1.0000
  H   H2181     1.0  0.85140  0.32102  0.64711  1.0000
  C   C2720     1.0  0.86330  0.36360  0.82032  1.0000
  H   H2182     1.0  0.90425  0.39443  0.58441  1.0000
  H   H2183     1.0  0.88178  0.37013  0.57965  1.0000
  H   H2184     1.0  0.96792  0.40393  0.54024  1.0000
  H   H2185     1.0  0.94477  0.46757  0.59919  1.0000
  H   H2186     1.0  0.81808  0.44231  0.97387  1.0000
  C   C2721     1.0  0.95253  0.35039  0.55779  1.0000
  H   H2187     1.0  0.82144  0.33388  0.98602  1.0000
  C   C2722     1.0  0.93787  0.40870  0.51227  1.0000
  H   H2188     1.0  0.91252  0.48564  0.50998  1.0000
  C   C2723     1.0  0.98109  0.48030  0.52884  1.0000
  C   C2724     1.0  0.83714  0.37618  0.94811  1.0000
  C   C2725     1.0  0.76944  0.37260  0.96570  1.0000
  H   H2189     1.0  0.76708  0.39579  0.97354  1.0000
  H   H2190     1.0  0.97416  0.36795  0.54118  1.0000
  C   C2726     1.0  0.86776  0.38228  0.55691  1.0000
  C   C2727     1.0  0.86065  0.37639  0.80512  1.0000
  H   H2191     1.0  0.79420  0.41095  0.95447  1.0000
  C   C2728     1.0  0.78841  0.48468  0.83485  1.0000
  C   C2729     1.0  0.78286  0.20177  0.95155  1.0000
  C   C2730     1.0  0.75016  0.43404  0.98448  1.0000
  H   H2192     1.0  0.87235  0.42405  0.69824  1.0000
  H   H2193     1.0  0.93401  0.35044  0.62237  1.0000
  C   C2731     1.0  0.95620  0.41740  0.61770  1.0000
  C   C2732     1.0  0.90764  0.44865  0.71763  1.0000
  H   H2194     1.0  0.76578  0.42797  0.95389  1.0000
  C   C2733     1.0  0.78273  0.47594  0.94859  1.0000
  C   C2734     1.0  0.85731  0.48081  0.67769  1.0000
  C   C2735     1.0  0.74122  0.16148  0.85645  1.0000
  H   H2195     1.0  0.88036  0.45110  0.81951  1.0000
  C   C2736     1.0  0.95059  0.43994  0.55575  1.0000
  C   C2737     1.0  0.82570  0.34576  0.97561  1.0000
  H   H2196     1.0  0.84058  0.42748  0.95093  1.0000
  H   H2197     1.0  0.80709  0.42289  0.72078  1.0000
  C   C2738     1.0  0.87247  0.43802  0.78253  1.0000
  C   C2739     1.0  0.93957  0.44028  0.53535  1.0000
  C   C2740     1.0  0.86770  0.39707  0.54469  1.0000
  C   C2741     1.0  0.85578  0.41271  0.82089  1.0000
  C   C2742     1.0  0.76347  0.20902  0.86351  1.0000
  H   H2198     1.0  0.74125  0.43338  0.96917  1.0000
  C   C2743     1.0  0.76294  0.22840  0.89780  1.0000
  C   C2744     1.0  0.77860  0.23731  0.88910  1.0000
  C   C2745     1.0  0.78701  0.23198  0.86792  1.0000
  C   C2746     1.0  0.77925  0.21778  0.85507  1.0000
  P   P89       1.0  0.80670  0.24438  0.85459  1.0000
  C   C2747     1.0  0.80467  0.25787  0.82613  1.0000
  C   C2748     1.0  0.81755  0.25601  0.88217  1.0000
  C   C2749     1.0  0.82864  0.27116  0.87529  1.0000
  C   C2750     1.0  0.83601  0.28076  0.89672  1.0000
  C   C2751     1.0  0.83257  0.27523  0.92518  1.0000
  C   C2752     1.0  0.82208  0.25991  0.93218  1.0000
  C   C2753     1.0  0.81471  0.25024  0.91076  1.0000
  C   C2754     1.0  0.81700  0.26414  0.80498  1.0000
  C   C2755     1.0  0.81560  0.27496  0.78351  1.0000
  C   C2756     1.0  0.80193  0.27962  0.78299  1.0000
  C   C2757     1.0  0.78963  0.27345  0.80393  1.0000
  C   C2758     1.0  0.79104  0.26272  0.82553  1.0000
  C   C2759     1.0  0.81777  0.23189  0.84127  1.0000
  C   C2760     1.0  0.82868  0.22762  0.85809  1.0000
  C   C2761     1.0  0.83727  0.21802  0.84752  1.0000
  C   C2762     1.0  0.83501  0.21259  0.82017  1.0000
  C   C2763     1.0  0.82413  0.21672  0.80336  1.0000
  C   C2764     1.0  0.81553  0.22632  0.81384  1.0000
  H   H2199     1.0  0.75731  0.19841  0.85284  1.0000
  H   H2200     1.0  0.88065  0.42220  0.53758  1.0000
  C   C2765     1.0  0.97413  0.41330  0.69874  1.0000
  H   H2201     1.0  0.78385  0.24865  0.89825  1.0000
  H   H2202     1.0  0.78510  0.21364  0.83793  1.0000
  H   H2203     1.0  0.83120  0.27594  0.85351  1.0000
  H   H2204     1.0  0.84393  0.29274  0.89122  1.0000
  H   H2205     1.0  0.74232  0.15826  0.83474  1.0000
  C   C2766     1.0  0.83075  0.37431  0.97617  1.0000
  H   H2206     1.0  0.80648  0.23850  0.91661  1.0000
  H   H2207     1.0  0.82791  0.26111  0.80554  1.0000
  H   H2208     1.0  0.82538  0.28025  0.76788  1.0000
  H   H2209     1.0  0.80108  0.28835  0.76681  1.0000
  H   H2210     1.0  0.77914  0.27726  0.80382  1.0000
  H   H2211     1.0  0.78164  0.25854  0.84206  1.0000
  H   H2212     1.0  0.83066  0.23175  0.87928  1.0000
  H   H2213     1.0  0.84577  0.21487  0.86050  1.0000
  H   H2214     1.0  0.84173  0.20522  0.81196  1.0000
  H   H2215     1.0  0.82240  0.21254  0.78212  1.0000
  H   H2216     1.0  0.80715  0.22943  0.80052  1.0000
  C   C2767     1.0  0.86543  0.42922  0.63769  1.0000
  H   H2217     1.0  0.78111  0.47385  0.84658  1.0000
  H   H2218     1.0  0.81936  0.25575  0.95430  1.0000
  C   C2768     1.0  0.74389  0.24253  0.84814  1.0000
  H   H2219     1.0  0.89288  0.48490  0.74819  1.0000
  P   P90       1.0  0.84191  0.39241  0.77911  1.0000
  C   C2769     1.0  0.85042  0.35058  0.83084  1.0000
  H   H2220     1.0  0.77645  0.38786  0.79461  1.0000
  H   H2221     1.0  0.78475  0.37015  0.76225  1.0000
  C   C2770     1.0  0.83215  0.34765  0.94768  1.0000
  C   C2771     1.0  0.84507  0.37617  0.80007  1.0000
  C   C2772     1.0  0.82127  0.39153  0.78350  1.0000
  C   C2773     1.0  0.96070  0.40024  0.69360  1.0000
  H   H2222     1.0  0.96292  0.43680  0.64562  1.0000
  H   H2223     1.0  0.76749  0.32022  0.98386  1.0000
  C   C2774     1.0  0.89418  0.39514  0.57286  1.0000
  H   H2224     1.0  0.95675  0.37496  0.62467  1.0000
  C   C2775     1.0  0.95557  0.36833  0.60573  1.0000
  H   H2225     1.0  0.80299  0.36727  0.93577  1.0000
  C   C2776     1.0  0.94271  0.35437  0.60453  1.0000
  H   H2226     1.0  0.92381  0.46688  0.56572  1.0000
  H   H2227     1.0  0.95279  0.39792  0.59071  1.0000
  H   H2228     1.0  0.87903  0.44781  0.76766  1.0000
  C   C2777     1.0  0.89554  0.43452  0.71329  1.0000
  P   P91       1.0  0.85075  0.36463  0.55461  1.0000
  H   H2229     1.0  0.91868  0.44822  0.72615  1.0000
  C   C2778     1.0  0.89377  0.32788  0.50065  1.0000
  H   H2230     1.0  0.86605  0.33976  0.56152  1.0000
  H   H2231     1.0  0.76590  0.19462  0.91983  1.0000
  H   H2232     1.0  0.83511  0.35832  0.61276  1.0000
  C   C2779     1.0  0.96687  0.37360  0.58277  1.0000
  C   C2780     1.0  0.80000  0.48379  0.81454  1.0000
  C   C2781     1.0  0.80662  0.36849  0.54136  1.0000
  C   C2782     1.0  0.83289  0.37035  0.55697  1.0000
  C   C2783     1.0  0.74621  0.34102  0.93478  1.0000
  C   C2784     1.0  0.79523  0.37343  0.94465  1.0000
  C   C2785     1.0  0.80516  0.37926  0.56131  1.0000
  C   C2786     1.0  0.96135  0.40657  0.60230  1.0000
  H   H2233     1.0  0.95792  0.43223  0.55391  1.0000
  C   C2787     1.0  0.95695  0.48748  0.52590  1.0000
  H   H2234     1.0  0.75447  0.25046  0.83697  1.0000
  H   H2235     1.0  0.86647  0.44791  0.95726  1.0000
  C   C2788     1.0  0.98282  0.42909  0.63306  1.0000
  C   C2789     1.0  0.96270  0.38612  0.68436  1.0000
  C   C2790     1.0  0.82041  0.36401  0.53920  1.0000
  C   C2791     1.0  0.83136  0.38120  0.57691  1.0000
  H   H2236     1.0  0.83814  0.33207  0.53552  1.0000
  H   H2237     1.0  0.94884  0.40084  0.69812  1.0000
  C   C2792     1.0  0.75132  0.15873  0.87659  1.0000
  C   C2793     1.0  0.85641  0.43877  0.64701  1.0000
  C   C2794     1.0  0.96693  0.42862  0.63315  1.0000
  C   C2795     1.0  0.88076  0.41080  0.54683  1.0000
  P   P92       1.0  0.74950  0.36135  0.97954  1.0000
  C   C2796     1.0  0.89170  0.46398  0.69830  1.0000
  C   C2797     1.0  0.87972  0.44984  0.69283  1.0000
  C   C2798     1.0  0.85784  0.48838  0.77708  1.0000
  C   C2799     1.0  0.86192  0.42106  0.61288  1.0000
  C   C2800     1.0  0.82266  0.43628  0.75098  1.0000
  H   H2238     1.0  0.84720  0.41665  0.57710  1.0000
  C   C2801     1.0  0.84407  0.44033  0.63055  1.0000
  C   C2802     1.0  0.84608  0.44487  0.70596  1.0000
  C   C2803     1.0  0.86443  0.47079  0.66393  1.0000
  H   H2239     1.0  0.75211  0.35161  0.92113  1.0000
  H   H2240     1.0  0.87548  0.42832  0.64891  1.0000
  C   C2804     1.0  0.79022  0.39803  0.95510  1.0000
  H   H2241     1.0  0.75641  0.23294  0.91340  1.0000
  H   H2242     1.0  0.83736  0.44815  0.63668  1.0000
  C   C2805     1.0  0.84959  0.42262  0.59674  1.0000
  C   C2806     1.0  0.78572  0.20081  0.98034  1.0000
  C   C2807     1.0  0.84484  0.33978  0.51778  1.0000
  C   C2808     1.0  0.85242  0.35611  0.52092  1.0000
  C   C2809     1.0  0.94294  0.45961  0.58191  1.0000
  C   C2810     1.0  0.93470  0.37637  0.52358  1.0000
  H   H2243     1.0  0.80171  0.47241  0.81078  1.0000
  C   C2811     1.0  0.84958  0.45057  0.73297  1.0000
  H   H2244     1.0  0.76029  0.15333  0.87050  1.0000
  C   C2812     1.0  0.87706  0.49234  0.62842  1.0000
  H   H2245     1.0  0.79221  0.20889  0.93647  1.0000
  H   H2246     1.0  0.78557  0.46983  0.96704  1.0000
  H   H2247     1.0  0.89223  0.31652  0.49145  1.0000
  C   C2813     1.0  0.98935  0.48173  0.65515  1.0000
  H   H2248     1.0  0.74633  0.26681  0.96512  1.0000
  C   C2814     1.0  0.98789  0.41798  0.61842  1.0000
  C   C2815     1.0  0.82697  0.46639  0.98660  1.0000
  H   H2249     1.0  0.98465  0.45669  0.56436  1.0000
  P   P93       1.0  0.98350  0.39166  0.58463  1.0000
  C   C2816     1.0  0.84613  0.33318  0.49174  1.0000
  C   C2817     1.0  0.77570  0.49089  0.89938  1.0000
  C   C2818     1.0  0.94055  0.39939  0.49039  1.0000
  C   C2819     1.0  0.97124  0.44313  0.49017  1.0000
  H   H2250     1.0  0.98988  0.46770  0.61954  1.0000
  H   H2251     1.0  0.97569  0.41297  0.48983  1.0000
  H   H2252     1.0  0.84077  0.32048  0.48965  1.0000
  C   C2820     1.0  0.98968  0.41270  0.69343  1.0000
  H   H2253     1.0  0.83079  0.38480  0.98705  1.0000
  C   C2821     1.0  0.89550  0.53319  0.39290  1.0000
  S   S372      1.0  0.95142  0.51286  0.38896  1.0000
  C   C2822     1.0  0.97090  0.54982  0.43271  1.0000
  H   H2254     1.0  0.95415  0.51945  0.46273  1.0000
  C   C2823     1.0  0.97572  0.55042  0.46069  1.0000
  C   C2824     1.0  0.88538  0.52491  0.41584  1.0000
  Fe  Fe187     1.0  0.95280  0.52290  0.34440  1.0000
  S   S373      1.0  0.97764  0.53353  0.32245  1.0000
  S   S374      1.0  0.93158  0.53164  0.35188  1.0000
  C   C2825     1.0  0.96371  0.57125  0.46864  1.0000
  P   P94       1.0  0.98722  0.53794  0.47248  1.0000
  C   C2826     1.0  0.96238  0.55970  0.42294  1.0000
  H   H2255     1.0  0.97358  0.54161  0.41845  1.0000
  S   S375      1.0  0.92670  0.53109  0.43807  1.0000
  H   H2256     1.0  0.95170  0.57765  0.43349  1.0000
  C   C2827     1.0  0.95866  0.57030  0.44095  1.0000
  C   C2828     1.0  0.81042  0.50230  0.42667  1.0000
  S   S376      1.0  0.89362  0.50123  0.31223  1.0000
  C   C2829     1.0  0.87053  0.51399  0.41112  1.0000
  C   C2830     1.0  0.91923  0.50528  0.47818  1.0000
  H   H2257     1.0  0.95824  0.55879  0.40160  1.0000
  H   H2258     1.0  0.84837  0.52732  0.34875  1.0000
  H   H2259     1.0  0.90707  0.54150  0.39663  1.0000
  H   H2260     1.0  0.97940  0.55689  0.36491  1.0000
  H   H2261     1.0  0.90713  0.49848  0.25481  1.0000
  Fe  Fe188     1.0  0.91640  0.50746  0.33794  1.0000
  C   C2831     1.0  0.92502  0.52187  0.47300  1.0000
  C   C2832     1.0  0.97774  0.51740  0.46464  1.0000
  H   H2262     1.0  0.89886  0.53652  0.34730  1.0000
  C   C2833     1.0  0.82142  0.50333  0.40394  1.0000
  Fe  Fe189     1.0  0.92932  0.51965  0.39621  1.0000
  H   H2263     1.0  0.88926  0.52680  0.43727  1.0000
  H   H2264     1.0  0.83912  0.53451  0.30305  1.0000
  C   C2834     1.0  0.95453  0.49633  0.45132  1.0000
  H   H2265     1.0  0.82114  0.51055  0.38499  1.0000
  H   H2266     1.0  0.80180  0.50867  0.42505  1.0000
  C   C2835     1.0  0.98447  0.51365  0.25939  1.0000
  C   C2836     1.0  0.96142  0.51175  0.46027  1.0000
  C   C2837     1.0  0.83679  0.52205  0.30972  1.0000
  C   C2838     1.0  0.96860  0.51142  0.25370  1.0000
  C   C2839     1.0  0.87614  0.51942  0.36038  1.0000
  C   C2840     1.0  0.89087  0.53044  0.36519  1.0000
  C   C2841     1.0  0.82866  0.51015  0.29229  1.0000
  H   H2267     1.0  0.87310  0.51705  0.33868  1.0000
  C   C2842     1.0  0.84210  0.51792  0.33553  1.0000
  C   C2843     1.0  0.86574  0.51122  0.38329  1.0000
  H   H2268     1.0  0.96537  0.52089  0.24273  1.0000
  H   H2269     1.0  0.96082  0.57948  0.48259  1.0000
  H   H2270     1.0  0.97479  0.49956  0.33507  1.0000
  H   H2271     1.0  0.91572  0.49772  0.46062  1.0000
  C   C2844     1.0  0.95680  0.49731  0.26337  1.0000
  H   H2272     1.0  0.86302  0.50760  0.42923  1.0000
  C   C2845     1.0  0.98819  0.50285  0.37218  1.0000
  C   C2846     1.0  0.97232  0.56144  0.47845  1.0000
  C   C2847     1.0  0.98857  0.50173  0.27466  1.0000
  H   H2273     1.0  0.82475  0.51335  0.27209  1.0000
  C   C2848     1.0  0.83958  0.50181  0.34388  1.0000
  H   H2274     1.0  0.98603  0.51400  0.37620  1.0000
  S   S377      1.0  0.93780  0.49973  0.32782  1.0000
  C   C2849     1.0  0.98684  0.50701  0.46191  1.0000
  S   S378      1.0  0.91272  0.49650  0.38311  1.0000
  H   H2275     1.0  0.94442  0.49583  0.25981  1.0000
  P   P95       1.0  0.84697  0.49648  0.37679  1.0000
  H   H2276     1.0  0.75441  0.49472  0.09801  1.0000
  C   C2850     1.0  0.88507  0.49476  0.27915  1.0000
  C   C2851     1.0  0.83263  0.49514  0.40590  1.0000
  C   C2852     1.0  0.98180  0.49458  0.34868  1.0000
  C   C2853     1.0  0.89430  0.49457  0.25439  1.0000
  Fe  Fe190     1.0  0.95143  0.52860  0.64479  1.0000
  S   S379      1.0  0.92675  0.52852  0.63339  1.0000
  S   S380      1.0  0.97287  0.55097  0.63318  1.0000
  H   H2277     1.0  0.96949  0.58810  0.59082  1.0000
  H   H2278     1.0  0.98691  0.61625  0.58319  1.0000
  Fe  Fe191     1.0  0.91747  0.51137  0.67244  1.0000
  H   H2279     1.0  0.87261  0.51461  0.63456  1.0000
  H   H2280     1.0  0.96595  0.53385  0.57189  1.0000
  C   C2854     1.0  0.92158  0.50806  0.52955  1.0000
  C   C2855     1.0  0.97655  0.53586  0.55798  1.0000
  Fe  Fe192     1.0  0.92625  0.50721  0.60839  1.0000
  C   C2856     1.0  0.98446  0.57896  0.56403  1.0000
  S   S381      1.0  0.89592  0.51098  0.70261  1.0000
  C   C2857     1.0  0.91742  0.49846  0.50625  1.0000
  H   H2281     1.0  0.85495  0.50434  0.67790  1.0000
  H   H2282     1.0  0.97688  0.56671  0.56790  1.0000
  H   H2283     1.0  0.86776  0.51702  0.72232  1.0000
  H   H2284     1.0  0.78554  0.52292  0.91084  1.0000
  C   C2858     1.0  0.88178  0.50173  0.73190  1.0000
  H   H2285     1.0  0.76240  0.55116  0.84013  1.0000
  S   S382      1.0  0.94227  0.51316  0.68533  1.0000
  C   C2859     1.0  0.86005  0.49648  0.66676  1.0000
  H   H2286     1.0  0.84707  0.50536  0.76062  1.0000
  C   C2860     1.0  0.87001  0.50228  0.64230  1.0000
  S   S383      1.0  0.91795  0.49869  0.56457  1.0000
  C   C2861     1.0  0.77295  0.52085  0.87201  1.0000
  H   H2287     1.0  0.93103  0.53221  0.54193  1.0000
  C   C2862     1.0  0.78044  0.52886  0.89520  1.0000
  H   H2288     1.0  0.98612  0.56154  0.81368  1.0000
  H   H2289     1.0  0.93389  0.54432  0.49254  1.0000
  C   C2863     1.0  0.77493  0.55284  0.87860  1.0000
  C   C2864     1.0  0.92784  0.52464  0.52431  1.0000
  H   H2290     1.0  0.79519  0.52493  0.82907  1.0000
  H   H2291     1.0  0.97741  0.50404  0.58192  1.0000
  C   C2865     1.0  0.76645  0.52901  0.85221  1.0000
  H   H2292     1.0  0.76067  0.52306  0.83412  1.0000
  H   H2293     1.0  0.78727  0.55094  0.91629  1.0000
  C   C2866     1.0  0.78142  0.54480  0.89842  1.0000
  H   H2294     1.0  0.81572  0.52314  0.79374  1.0000
  H   H2295     1.0  0.77573  0.56520  0.88112  1.0000
  C   C2867     1.0  0.76743  0.54494  0.85552  1.0000
  C   C2868     1.0  0.96084  0.49646  0.54961  1.0000
  C   C2869     1.0  0.98027  0.59106  0.57708  1.0000
  C   C2870     1.0  0.80793  0.51241  0.80501  1.0000
  H   H2296     1.0  0.96369  0.53246  0.51999  1.0000
  C   C2871     1.0  0.97535  0.53523  0.52858  1.0000
  S   S384      1.0  0.95095  0.50794  0.61843  1.0000
  C   C2872     1.0  0.79625  0.51334  0.82514  1.0000
  H   H2297     1.0  0.80112  0.50310  0.89481  1.0000
  H   H2298     1.0  0.98676  0.53942  0.68184  1.0000
  H   H2299     1.0  0.97629  0.56261  0.49981  1.0000
  C   C2873     1.0  0.78637  0.49944  0.84020  1.0000
  C   C2874     1.0  0.98909  0.53835  0.51045  1.0000
  C   C2875     1.0  0.92940  0.53148  0.49624  1.0000
  P   P96       1.0  0.77160  0.50031  0.86714  1.0000
  C   C2876     1.0  0.86875  0.50735  0.73620  1.0000
  H   H2300     1.0  0.95292  0.50269  0.55753  1.0000
  C   C2877     1.0  0.97471  0.49715  0.56334  1.0000
  C   C2878     1.0  0.85693  0.50070  0.75814  1.0000
  H   H2301     1.0  0.74017  0.49854  0.89119  1.0000
  H   H2302     1.0  0.88509  0.49694  0.60980  1.0000
  C   C2879     1.0  0.80981  0.49764  0.79974  1.0000
  H   H2303     1.0  0.81906  0.49693  0.78456  1.0000
  H   H2304     1.0  0.98989  0.49859  0.68693  1.0000
  C   C2880     1.0  0.79144  0.49467  0.90765  1.0000
