data_image0
_chemical_formula_structural       H2CH2SH3C5H2CH2SCFeCH2CH2C2H4CHSCH3CHC3HC2HCPC6SCH3C5HC3H2C7H3CHCH2CHCHC2H2C2HCH3C2HCPC3FeSCSHFeSFeS3FeSCHCSHC4HFeC2HCH2C5H4CH3SH5CH2CHC3H4C2FeH2SH2SHCPH2C2SCH2C3PC16FeH3FeCHC3HCH5SH2C2HCHC2H3CHC2HFeS2FeS2FeS2FeSFeS3HCFeCH2C2FeHFeS2FeS2FeSFeCS2HSCHSCFeSFeSCH2C4HC5HC8H4C6HCH4FeCH2C6H4C6H4C2HCH2C7H4C2S2C2H2C3HCH3CPC6PCHCHSC2H2C2HC4SH6C3H3C4HSH2CH2FeC5H2PHC2HC3H2C2HCHSCH3CHC2HC3H2C3PH4C2HC6HC2HCHC10HC3H5CH3CH6CHC10H9PCHC2H3C4H7CH4C6PC3H2CHC11H4CHCSC2H7CH2CHSHC2H3C3H2CPC2H2C5H2C4H2C2H3C2H3FeH2C5PHCHCHP2C3HCH2FeCH2CHC4HCHCHC2HC3HC2FeHCSH3C2SC4SHC4H3C2H3C7H2C2H2C2HC3HC2H2SH2SCH4CHCH2CH3CHCPC3H8CH2CHCHCHC2SHC2H3C4HC3FeC3H2C8SCHCFeSH3CHC3FeSHSCH2C2HCH2C2SHFeS2FeSCFeSFeS4FeS3HCHC2S2CH2CSCH2C7H4C6H4C6H5CSCH2C9H5CH3C4H4CPC5HC4H3C2H3C2HC2HC7PC7HC8H9C3H7CHCHCHC3H4C3H3CHCFeH2CHCHC2H3PC2HCH3PC2H2CH3C2H3C3H3C6PC2HCHC9HC3H5CH2FeSH2FeC6H2CHCHC2HC2HCH4C3H3CHC3PFeC2SC3HC4H4C2HCSC2H2CH3C4H3SHCSC2HCSC3HCHC2H2C4H2C2H2SHC2HFeHSCHCPCHCHC3SCH2CHC2HC2HFeC2HSCHC3H5CHC3HC2FeC3HC3HCPSC2H4CH3C3H2CHCH2CHFeSCFeSFeS2FeS2FeSFeS3FeS2FeSCFeSFeS3HCH2C8H4C5H2CHC2HSH2CH3C6H3C6H5CHCFeC3HC3HC3HC3HCH2C5HCH3C3H2C6H2C3HC2SHCHSHC2H3SHCH2C2HC2H2C2H2SHCH3CHC2H3C2HC2SCH3CHPC2HPC6HCHCH2CH2CHPC6HSC5SHC3H2CH4C3H2C4HCHCPH2C2HCH2C2HC2HC2HC2HCHC6PC12H2CHC2H6CH8SH2SCHCH2C2H4C2FeC2PCSH2C2HC2H3CHCH6CFeHCHCHC3HCHC3H2C3HCSC2H2CHC3H6CHFeC2HCH2CHCH2CH2C4H2CFeCH2C2HCHCHCFeC4H3C3HCSH3CPC2SFeSCSC2SFeS2FeSFeS3FeS2FeS2FeSFeCS2CHC2PCH2PCHCHC2H6C2HC6H4C3HFeH2C3H2CH2C6H4C6H3CHC3H3C9HSCH5CH7C3HC2HCH2C4H3C2HC2SHCHC2H3CHCPHC3HCHC5HC3HC2H2C4HC3HCH4C4HC2SHCHCH2C2H5C3HC2H4C4H3C3HCH2CH2C2HSC2FeCHSH2C5HCH4CH5C2HFe2CH2C3H3CHCHCSC3H3CSHC2SHSCHFeSH2Fe2S2C3HCSC2HFeC2HCHPFeC3H2C2HCH2C2HCH2CHC3HSFeHC2H2CH2PH3CSC3H2C2S2C3H2CFeCHC4HC4FeHCH3C3HCH2CH2C2H3FeH3CFeHC2HCH4CSHCSFeCH2CHCHCHCHC2SHCHC2PHCSC2HCH3C3HCHC2HSC2HSC3HCSH2CHCH4C5FeC6PC3H2C2HC2HC2H2SC2H2C2HCH2CHC4H3C3FeS2FeS2FeSFeCS2FeS2FeS2FeSFeS3H2SH4C9H4CHC6H2C6H7C5H2C7H3CH6CHC2H3C4HC4HC2HC2PC7H3C2HC2H2CHPCH4C4HCHC2H3C6H2C4SHC2HCH6S2H3CH2C6PC18H26PHC4HFeCHC5H2CH2C5H5CSH2SC2H2CHC3SC4HCHC3FeHC2PHCFeC4HCHC2H2CH2CHPC4HC2HC3HCHC3HC4HCSHFeS2FeSCFeSFeS3FeSCFeS2FeSFeS3FeS2FeS2FeSFeS3H4C6H4C2H2C2HC4H3CH4C7H4C2HCH2CH2CH2CH2C2HC7H3CH2C5H4C6PCHC8SH4CH4C3H2CHCH7C4HC2HC2HC2HCH2C2H2C3H2CHC2PC2HC6PC16HCH7CHCH5CH2CHCHCHCHC4H4SHC2H2C3HCHCHC2H3C4HCPH2CHPSH3C6HCH2C2H7C3HCHC2H2C4SHCFeH4C2HCHCH2PHC2HCHC3HC2HPHCH2C2HC3H2CHC4H3SHC2HC4HCHC2H5CHC2HCHCHC6SC3H3C2H3C3HCHCPC2HCH2CSC2H4FeHS2C2SCFeS2FeS2FeSFeS3CPFeSFeS2FeSFeCS2C6H5C2HCHC6H4C2HC3H4CH2C2FeHC6H4CHC4HC2HS2C2H4C3H2CH2C6PHC4HCHCH2C3H3PH8CHC3HC2HCH2C2HC3HPC9H2C8PCH9C3H5CHC5SH2SCHCHC5HC5HC3HC10HC2H2C3HC3H2C3PFeHCH3C2HCH2PCHCHC3HCH2CH2CH2CHCHC3H2SHSCSH3C5H4C2HCHCHC3H4C5PC2HC2H3C3H3CHCHCH2CH2C3H2CHC2H2C4HCH2C2H2CHSC3H2FeH4CHSC2HC4HC3HCH4PCHS2HC2H2CHC6H4C2H6CSCHPHSH5C12HC3HCH6C3HC3HC2FeSCH2C2HCSCSCHC2FeC2H5SFeH2SCH2C3HCFe2S2FeSCFeSFeS3CSC6H4C5H3CH2C5H2CHC2H4C3HC5HCH2C4HC2HCHC3HSPCH4CHC3H2CHCHC2HC2PFeCH7C2H3CSHCHCHC3HC4HCH2C4PC5H3C2SCSC5H2CH2CH3C2H2C3H4CH2C2PH2CHCH2CHC2HC2HC6HCHC3HCH3C2HCH4CH2C2HCH2CH2CFeH2CHCH3CHS2HC4HC2HC2H2CHC3H3CHCH2CHC3FeH2CHC3SH3CHC3HCH3SC2HCH2C2H2C3SC2HC2PHCFeC3HC2H2CH3C2H3CPC3HC4FeS2FeS2FeSFeS3HSHCPHC2HPC2HC2H2C3SHCH2SC7H4C4HC2H5SH2CSHC2HC2HCHC3FeC4H2CHCH2C2HCH3C5H3C3H2FeC9H2C2H4CSHCHC3HC2H5CH2C3HC3H4CH4C3SCH2CHSC8HC2H3CH2CHC4HC3HC2HCFeH5CHC4PCHC2HC3HC5HC2H2CH2CH2C5FeHFeSFeS2FeS2FeS2FeSFeS3FeS2FeSHCSHPSCHFeHSC3SHCSHCH7CH2CFeH2C2FeSHC5SH4C6H4C6H4C2HC2HC6H4CH2C3H2SHC2SHC2HC2H2CHC3HCPH3C2HCH2SHC3HSCHCH2CH3C2FeHCHCHCH2CPC3HC5HCHC2HCHCFeH2CH3C2H3CHCHCHC3H3C6HC2H2C7PC18H21CHC7PC9H2SC6H6C2H3CHC2SH2CHSHC2SFeCH2CHCHC2H2SH3C3HSCHCHC2HCHCHSH2C2HC2H3C2SHC3HCHC2H5FeC5PCH2CH3PC2HCHFeCHC3H2C2HC4HC2PSCHCHC2FeHCHCPC2HC3H2C6HCHSC3H3C3HCHPH2CH7C2H2C2HC5H5CHC3H2C3H2C2H2C2H4C2HC3FeC2H3C3HCHC3HC2HC3HCH4CHCHCSC2H7C7HC2HSHC3FeHC3HCSH2FeS2C2HC2SFeS2FeSCFeSFeS3CFeCSFeHCH3SC7H4C6H4C6H4C5HSC8H5C2HCSHFe2C2PC2H2FeCHC12SHCH2CSCH10CH2FeH3CHC7PC18H20CH4CHSHS2C2FeCSC2HC5H2C3HPS2H2CH3C7PC8SCHC7HC2H8CH9CHSHC2H3SC3HCPSH2C7H2CHC2HC2SCHC9SHPHFeHCHSHCH2CHCH2CH4FeC6SCH6CHC2H2CH4CSFeCH2C2HCH2SPHCH2C3HCH2C3HCH2CSFeCHFeC2HCH3C2H3C3FeC3H2CSHC2HCSCH4SC2H2CPFeHCHC3SCHCFeS2FeHSC2HCFeS2FeSCFeSFeS3FeS2FeSCFeSFeS3C3HC5H2C6H6FeCHCHC6H3C7H6CHC3H3C2H3CHCH3S2C3HC3HC3H3CHCH2C2PC7HC11H5CH7C6PCFeC2H2C4HC3H5CH2C2H3SHCH2C5PCH3PC2HCHC4H7C2H2CHC3H2CH2S2FePCHC2H2CFeHSHSH4C6H5C3HCHSC2SC5HC12H2PH2CSCH3FeHC2HCHCH4C4SC5HC4H4CH2PSC2FeCSHC4H3CH3C2H2C2H4CHCH3CSC2FeCHCSC3H4C2H2CSC2SCFeSFeHSFeS3HSFeS3CH4CHC3HCH4C4HC4H4C2HCH3C2FeHSPHSC5H3CHC2HC2H3C6H4CSH2SC6H4C2SHC3HC4HPH2C9H4CFeC3HCFeCPH5C2HC5HCHC4H2C2HCH2CFeHCH2CHCH3CHC5HPC2HCHC11H2CH10CFeSCHFeCHCHCH2CHC4SC5HSHC2H3C2H2PHC3HC6PC5HC12H7C2H12C5HCH2CH3CHCHC2H3CHCHC10FeH2CHC2H3C3HC3HFeCSCH2CH3CHCH2C4H2CS2CHCHC3HCHC4HFeH2CH3C2HCHC2HCH2CHC2SC3FeC6H4C5HCH3SHC4H2CH3S2HFeCHC2H2SC2HCHC2HFeSCH2SCHC4HCHCHC4HC2HCHCFeH3C2H3C3HPH2C3SC2HSC2HC2HCHSH3CH2CHC2HC2H3CHC3SC6PCHCHPSC2HC5H2CSHSC3HC2H2CH2CHCH3FeCH2CH4CSCHCH2SH2FeS2FeSHFe2S3FeS2FeS2FeCFeS3HSH3CHSH2C6H4C6H4C6HCH2CHCHSCHCHCPHC6H2CHPHCHCSH4CHSHCHCH5C2SC3HCHC2H2SCH2CH2CH2C4HC2H2C8H2C3HC2HC3H6SC2HC2HCH2C4PC7HC12H8C3H5CH2FeC5H2CHC2HCHC3HCH5C2HCH2C3H6FeH2CHFeS2C3SC2H2CHFeSCFeS2FeSFeS3FeS2FeS2FeSFeS3FeS2FeSCFeCFeCS2C3HC2H4CH2C6H8C7H4C3HC3H2C2H4PCH2C6H5CH2C2H2C2H3C2SH3CHCHCSHSCHC3HCH4CH2FeCHC2HCH4C3HC5HCHPC12HCHC6HC3H2C4HC3H2C3SHCHC6H2CHCHCHC2SH2C2HCHC3H2PH2CH2C3H7C2H2C2HCHC3HC2P2C3H4CHC2HC2HC2H3CHC3H3C2FeCH2CHCH2C3HCHC3H2CPSH2C2H2CHC3H2CHCHC2HC4H7CH2C5HC2H3C3HC5H3C2H4CFeHCH2CHCHCH4C2H4CHC2HCHCHPHSFeSHFeHFeS2Fe2S2FeSCSH2CHC2H2CHCHCH3CSHSC3H5C2HCHCSCHCH2CH3C2HCPHC7H5C8H3C6H4CHCHC4HCHCHC3HC2HCH2C2HC4HCSHC2H2CHC3PC3HCH2C2HPHSCSC5HCH7SH2C3H3CH2C7H2C2HC3SCH3C3H2CHC2HC4HC7H2C6PC2HCH2C2H2C8H6C2H8CHCHC7H6C2H2CSH3CHC3PC9HC8HC2H2PH5FeCHCHC3HCHCSHPSH2CH4CHC5H4SHC2H2C5SC2HC3HCHCH3CH2PHC2H2C2FeHC3H2PC3HC4H3C2H3C2H2CHCH2C4HCHC2H2CHCHCHCH3CSFeHC2SC3H2CH2C4H2CHCHC2SC2HCHFeCH2C8PHC7HC9H4FeH6CFeCH3CHSC4H3CH3C2H3PCHC7SCHSCH2CHFeHC2HSH3CHCSH2C2H3C3SCH2CSFeH2C2HCHCHSHFeS2FeS2FeSFeHS2HSC6H4C2HC3HCH3CH2CH2CHCH2CFeHC8PC5HC7HSHC2HCH2CH3C3HCH3CHC7HSHC2PCH2C5PH2C3H4CHC6HCH3C3H3C5H3CH2CH4CH2CHCHC3H
_chemical_formula_sum              "H3072 C3840 S512 Fe256 P128"
_cell_length_a       59.342
_cell_length_b       59.9055
_cell_length_c       101.126
_cell_angle_alpha    78.9014
_cell_angle_beta     79.0624
_cell_angle_gamma    77.702

_space_group_name_H-M_alt    "P 1"
_space_group_IT_number       1

loop_
  _space_group_symop_operation_xyz
  'x, y, z'

loop_
  _atom_site_type_symbol
  _atom_site_label
  _atom_site_symmetry_multiplicity
  _atom_site_fract_x
  _atom_site_fract_y
  _atom_site_fract_z
  _atom_site_occupancy
  H   H1        1.0  0.22179  0.20210  0.01452  1.0000
  H   H2        1.0  0.10596  0.04665  0.02127  1.0000
  C   C1        1.0  0.05478  0.10332  0.02915  1.0000
  H   H3        1.0  0.02020  0.01223  0.99333  1.0000
  H   H4        1.0  0.29992  0.23001  0.01633  1.0000
  S   S1        1.0  0.11607  0.08421  0.99963  1.0000
  H   H5        1.0  0.08817  0.18881  0.98606  1.0000
  H   H6        1.0  0.20551  0.16657  0.01693  1.0000
  H   H7        1.0  0.19066  0.23722  0.01115  1.0000
  C   C2        1.0  0.21186  0.29502  0.00851  1.0000
  C   C3        1.0  0.02696  0.15943  0.99100  1.0000
  C   C4        1.0  0.08078  0.05232  0.98869  1.0000
  C   C5        1.0  0.06505  0.02475  0.04751  1.0000
  C   C6        1.0  0.19128  0.29086  0.01709  1.0000
  H   H8        1.0  0.01619  0.05495  0.00167  1.0000
  H   H9        1.0  0.14374  0.19774  0.00280  1.0000
  C   C7        1.0  0.07504  0.01477  0.00940  1.0000
  H   H10       1.0  0.22944  0.99981  0.09287  1.0000
  H   H11       1.0  0.99995  0.02331  0.04367  1.0000
  S   S2        1.0  0.14900  0.24529  0.99934  1.0000
  C   C8        1.0  0.05655  0.08143  0.02574  1.0000
  Fe  Fe1       1.0  0.14539  0.28409  0.99218  1.0000
  C   C9        1.0  0.12973  0.05487  0.00283  1.0000
  H   H12       1.0  0.04239  0.31599  0.06352  1.0000
  H   H13       1.0  0.05420  0.16613  0.02167  1.0000
  C   C10       1.0  0.12091  0.04004  0.01429  1.0000
  H   H14       1.0  0.09563  0.21212  0.00204  1.0000
  H   H15       1.0  0.05359  0.26616  0.99743  1.0000
  C   C11       1.0  0.03466  0.11308  0.03723  1.0000
  C   C12       1.0  0.06326  0.05498  0.99990  1.0000
  H   H16       1.0  0.00383  0.06962  0.04244  1.0000
  H   H17       1.0  0.08612  0.01183  0.06349  1.0000
  H   H18       1.0  0.07015  0.04154  0.04553  1.0000
  H   H19       1.0  0.07965  0.15103  0.00163  1.0000
  C   C13       1.0  0.01810  0.07891  0.03858  1.0000
  H   H20       1.0  0.03475  0.99234  0.03565  1.0000
  S   S3        1.0  0.12859  0.30986  0.00650  1.0000
  C   C14       1.0  0.21792  0.25695  0.00189  1.0000
  H   H21       1.0  0.07987  0.29415  0.99597  1.0000
  H   H22       1.0  0.03334  0.13006  0.03987  1.0000
  H   H23       1.0  0.18070  0.30427  0.02262  1.0000
  C   C15       1.0  0.06083  0.03651  0.01061  1.0000
  H   H24       1.0  0.06917  0.11259  0.02551  1.0000
  C   C16       1.0  0.04673  0.28451  0.99627  1.0000
  C   C17       1.0  0.13117  0.01644  0.01665  1.0000
  C   C18       1.0  0.00461  0.04706  0.01000  1.0000
  H   H25       1.0  0.07250  0.07422  0.01965  1.0000
  C   C19       1.0  0.16019  0.02280  0.99671  1.0000
  C   C20       1.0  0.15087  0.00778  0.00783  1.0000
  H   H26       1.0  0.05867  0.30201  0.04145  1.0000
  C   C21       1.0  0.18397  0.26983  0.01810  1.0000
  P   P1        1.0  0.03993  0.04085  0.02581  1.0000
  C   C22       1.0  0.09605  0.24291  0.98709  1.0000
  C   C23       1.0  0.02237  0.17007  0.01341  1.0000
  C   C24       1.0  0.01146  0.03851  0.02287  1.0000
  C   C25       1.0  0.01637  0.10084  0.04200  1.0000
  C   C26       1.0  0.22506  0.27822  0.00087  1.0000
  C   C27       1.0  0.06091  0.15590  0.00182  1.0000
  S   S4        1.0  0.00557  0.27244  0.99485  1.0000
  C   C28       1.0  0.09583  0.03110  0.98799  1.0000
  H   H27       1.0  0.01146  0.17611  0.02235  1.0000
  H   H28       1.0  0.16760  0.26688  0.02438  1.0000
  H   H29       1.0  0.05246  0.07180  0.00055  1.0000
  C   C29       1.0  0.04656  0.16426  0.01311  1.0000
  C   C30       1.0  0.05109  0.15371  0.99074  1.0000
  C   C31       1.0  0.21790  0.19711  0.00558  1.0000
  C   C32       1.0  0.09261  0.01217  0.99818  1.0000
  C   C33       1.0  0.14859  0.20344  0.99201  1.0000
  H   H30       1.0  0.21705  0.31165  0.00744  1.0000
  C   C34       1.0  0.05015  0.01962  0.03970  1.0000
  C   C35       1.0  0.02305  0.29239  0.99533  1.0000
  C   C36       1.0  0.03801  0.06921  0.03018  1.0000
  H   H31       1.0  0.10449  0.99578  0.99780  1.0000
  H   H32       1.0  0.99568  0.21671  0.00532  1.0000
  C   C37       1.0  0.07426  0.00790  0.05769  1.0000
  C   C38       1.0  0.14936  0.04610  0.99401  1.0000
  C   C39       1.0  0.19722  0.25293  0.01054  1.0000
  C   C40       1.0  0.04501  0.99723  0.04206  1.0000
  C   C41       1.0  0.09359  0.21991  0.99164  1.0000
  C   C42       1.0  0.20890  0.17686  0.00697  1.0000
  C   C43       1.0  0.01242  0.16788  0.00227  1.0000
  H   H33       1.0  0.17587  0.01638  0.99014  1.0000
  H   H34       1.0  0.12403  0.00507  0.02536  1.0000
  H   H35       1.0  0.09985  0.25288  0.99400  1.0000
  C   C44       1.0  0.27136  0.23309  0.00534  1.0000
  H   H36       1.0  0.07339  0.99994  0.01730  1.0000
  C   C45       1.0  0.06153  0.30031  0.99543  1.0000
  H   H37       1.0  0.00285  0.12655  0.01415  1.0000
  H   H38       1.0  0.21416  0.00812  0.11637  1.0000
  C   C46       1.0  0.03510  0.99971  0.98984  1.0000
  H   H39       1.0  0.25990  0.24509  0.01150  1.0000
  C   C47       1.0  0.27879  0.20978  0.98732  1.0000
  H   H40       1.0  0.00084  0.10835  0.04834  1.0000
  C   C48       1.0  0.01389  0.31607  0.99423  1.0000
  C   C49       1.0  0.29406  0.22445  0.00818  1.0000
  H   H41       1.0  0.19688  0.15443  0.99657  1.0000
  H   H42       1.0  0.03207  0.09647  0.98525  1.0000
  C   C50       1.0  0.21404  0.99135  0.11386  1.0000
  C   C51       1.0  0.20414  0.16994  0.99551  1.0000
  H   H43       1.0  0.32667  0.20179  0.00285  1.0000
  C   C52       1.0  0.30912  0.20853  0.00060  1.0000
  H   H44       1.0  0.15648  0.05738  0.98525  1.0000
  H   H45       1.0  0.31306  0.18865  0.98439  1.0000
  H   H46       1.0  0.14730  0.17072  0.98632  1.0000
  C   C53       1.0  0.26366  0.22598  0.99478  1.0000
  C   C54       1.0  0.15245  0.22620  0.98742  1.0000
  H   H47       1.0  0.24053  0.28206  0.99393  1.0000
  C   C55       1.0  0.22159  0.21095  0.99275  1.0000
  P   P2        1.0  0.23436  0.23640  0.99105  1.0000
  C   C56       1.0  0.30147  0.20116  0.99019  1.0000
  C   C57       1.0  0.99543  0.02936  0.03355  1.0000
  C   C58       1.0  0.22263  0.98668  0.10063  1.0000
  Fe  Fe2       1.0  0.44690  0.07090  0.43984  1.0000
  S   S5        1.0  0.41517  0.08603  0.42984  1.0000
  C   C59       1.0  0.46058  0.20308  0.47451  1.0000
  S   S6        1.0  0.45024  0.08265  0.40046  1.0000
  H   H48       1.0  0.37079  0.01129  0.37999  1.0000
  Fe  Fe3       1.0  0.43874  0.10811  0.41540  1.0000
  S   S7        1.0  0.43190  0.14670  0.40748  1.0000
  Fe  Fe4       1.0  0.42986  0.05916  0.41589  1.0000
  S   S8        1.0  0.41005  0.03266  0.41251  1.0000
  S   S9        1.0  0.46924  0.09476  0.42653  1.0000
  S   S10       1.0  0.45983  0.04286  0.42713  1.0000
  Fe  Fe5       1.0  0.43626  0.25554  0.44163  1.0000
  S   S11       1.0  0.47058  0.25470  0.44808  1.0000
  C   C60       1.0  0.36211  0.04179  0.44361  1.0000
  H   H49       1.0  0.30757  0.05606  0.36983  1.0000
  C   C61       1.0  0.43305  0.20616  0.42116  1.0000
  S   S12       1.0  0.42416  0.22074  0.44649  1.0000
  H   H50       1.0  0.35024  0.01302  0.45743  1.0000
  C   C62       1.0  0.34866  0.02445  0.44782  1.0000
  C   C63       1.0  0.43677  0.12109  0.46469  1.0000
  C   C64       1.0  0.41802  0.01744  0.39840  1.0000
  C   C65       1.0  0.48090  0.02607  0.38093  1.0000
  H   H51       1.0  0.44847  0.21808  0.47057  1.0000
  Fe  Fe6       1.0  0.47586  0.28274  0.43031  1.0000
  C   C66       1.0  0.42072  0.01761  0.37406  1.0000
  C   C67       1.0  0.41992  0.02932  0.38502  1.0000
  H   H52       1.0  0.48079  0.22324  0.48135  1.0000
  C   C68       1.0  0.47886  0.20595  0.48055  1.0000
  H   H53       1.0  0.42124  0.02713  0.36381  1.0000
  H   H54       1.0  0.41967  0.04773  0.38316  1.0000
  C   C69       1.0  0.43171  0.16677  0.41832  1.0000
  C   C70       1.0  0.43450  0.18957  0.41269  1.0000
  C   C71       1.0  0.42814  0.20020  0.43534  1.0000
  C   C72       1.0  0.42556  0.17734  0.44095  1.0000
  C   C73       1.0  0.42768  0.16064  0.43250  1.0000
  H   H55       1.0  0.42152  0.17259  0.45188  1.0000
  H   H56       1.0  0.42540  0.14321  0.43689  1.0000
  H   H57       1.0  0.40645  0.05146  0.46160  1.0000
  H   H58       1.0  0.41171  0.12844  0.38896  1.0000
  C   C74       1.0  0.33326  0.02182  0.43959  1.0000
  H   H59       1.0  0.25744  0.14171  0.41554  1.0000
  H   H60       1.0  0.41044  0.09676  0.37671  1.0000
  H   H61       1.0  0.49112  0.09062  0.38059  1.0000
  S   S13       1.0  0.41691  0.28291  0.45433  1.0000
  H   H62       1.0  0.33930  0.02247  0.36578  1.0000
  H   H63       1.0  0.37077  0.06981  0.42817  1.0000
  H   H64       1.0  0.26362  0.10604  0.43258  1.0000
  H   H65       1.0  0.41096  0.11041  0.45618  1.0000
  H   H66       1.0  0.38018  0.07292  0.38455  1.0000
  C   C75       1.0  0.33120  0.03663  0.42719  1.0000
  H   H67       1.0  0.47337  0.14612  0.44726  1.0000
  H   H68       1.0  0.30748  0.07855  0.38784  1.0000
  C   C76       1.0  0.44525  0.98911  0.43591  1.0000
  H   H69       1.0  0.43503  0.22370  0.41671  1.0000
  C   C77       1.0  0.45812  0.18093  0.47323  1.0000
  C   C78       1.0  0.28986  0.13217  0.40243  1.0000
  C   C79       1.0  0.47366  0.16135  0.47827  1.0000
  H   H70       1.0  0.32304  0.11848  0.39147  1.0000
  H   H71       1.0  0.38293  0.13567  0.40951  1.0000
  H   H72       1.0  0.28726  0.14783  0.39503  1.0000
  H   H73       1.0  0.35219  0.11188  0.41768  1.0000
  C   C80       1.0  0.38036  0.08646  0.39017  1.0000
  C   C81       1.0  0.42026  0.99379  0.37631  1.0000
  Fe  Fe7       1.0  0.45186  0.28344  0.45948  1.0000
  H   H74       1.0  0.43245  0.00478  0.43704  1.0000
  H   H75       1.0  0.29922  0.07668  0.42929  1.0000
  S   S14       1.0  0.46089  0.28194  0.48035  1.0000
  H   H76       1.0  0.36369  0.99936  0.41537  1.0000
  H   H77       1.0  0.31916  0.03440  0.42093  1.0000
  S   S15       1.0  0.44302  0.28146  0.42257  1.0000
  H   H78       1.0  0.39485  0.99522  0.46901  1.0000
  C   C82       1.0  0.35995  0.05674  0.43127  1.0000
  P   P3        1.0  0.47033  0.13261  0.47688  1.0000
  H   H79       1.0  0.37436  0.04363  0.44986  1.0000
  H   H80       1.0  0.37055  0.03315  0.39840  1.0000
  C   C83       1.0  0.41393  0.11992  0.46359  1.0000
  C   C84       1.0  0.33905  0.03213  0.37386  1.0000
  S   S16       1.0  0.45086  0.06479  0.46194  1.0000
  C   C85       1.0  0.39755  0.10011  0.38558  1.0000
  H   H81       1.0  0.43759  0.19448  0.40172  1.0000
  H   H82       1.0  0.32298  0.00824  0.44281  1.0000
  C   C86       1.0  0.39510  0.13067  0.47212  1.0000
  C   C87       1.0  0.47715  0.01876  0.36935  1.0000
  C   C88       1.0  0.34446  0.05429  0.42296  1.0000
  P   P4        1.0  0.34031  0.07422  0.40736  1.0000
  C   C89       1.0  0.33914  0.05754  0.39447  1.0000
  C   C90       1.0  0.31375  0.09524  0.41003  1.0000
  C   C91       1.0  0.29683  0.09194  0.42164  1.0000
  C   C92       1.0  0.27656  0.10863  0.42357  1.0000
  C   C93       1.0  0.27308  0.12873  0.41398  1.0000
  C   C94       1.0  0.44096  0.13278  0.47446  1.0000
  C   C95       1.0  0.31012  0.11551  0.40045  1.0000
  C   C96       1.0  0.35661  0.03817  0.39231  1.0000
  C   C97       1.0  0.48659  0.00983  0.39226  1.0000
  C   C98       1.0  0.41829  0.99351  0.40061  1.0000
  C   C99       1.0  0.32126  0.05109  0.37612  1.0000
  C   C100      1.0  0.32130  0.06383  0.38637  1.0000
  C   C101      1.0  0.36380  0.09047  0.40179  1.0000
  C   C102      1.0  0.36475  0.10841  0.40870  1.0000
  C   C103      1.0  0.38199  0.12201  0.40408  1.0000
  C   C104      1.0  0.39829  0.11793  0.39249  1.0000
  Fe  Fe8       1.0  0.47913  0.06804  0.41275  1.0000
  H   H83       1.0  0.46303  0.99800  0.47727  1.0000
  H   H84       1.0  0.47222  0.03135  0.36068  1.0000
  H   H85       1.0  0.47317  0.19858  0.44205  1.0000
  Fe  Fe9       1.0  0.42644  0.30887  0.43578  1.0000
  C   C105      1.0  0.43149  0.05111  0.47453  1.0000
  H   H86       1.0  0.47925  0.04434  0.38122  1.0000
  C   C106      1.0  0.41084  0.04646  0.47178  1.0000
  C   C107      1.0  0.49213  0.12399  0.46279  1.0000
  C   C108      1.0  0.35905  0.31488  0.47413  1.0000
  H   H87       1.0  0.45106  0.11245  0.45805  1.0000
  C   C109      1.0  0.35673  0.02571  0.38193  1.0000
  H   H88       1.0  0.48435  0.18358  0.42009  1.0000
  H   H89       1.0  0.44418  0.17932  0.46815  1.0000
  H   H90       1.0  0.37997  0.03168  0.48029  1.0000
  H   H91       1.0  0.37744  0.12975  0.47120  1.0000
  H   H92       1.0  0.35949  0.29636  0.47636  1.0000
  S   S17       1.0  0.45972  0.31160  0.44224  1.0000
  H   H93       1.0  0.45751  0.00113  0.41506  1.0000
  H   H94       1.0  0.36030  0.31666  0.45248  1.0000
  C   C110      1.0  0.48903  0.13378  0.44935  1.0000
  C   C111      1.0  0.39591  0.03539  0.48234  1.0000
  H   H95       1.0  0.42372  0.31941  0.47319  1.0000
  C   C112      1.0  0.47914  0.99517  0.36909  1.0000
  H   H96       1.0  0.48959  0.01589  0.40110  1.0000
  C   C113      1.0  0.49143  0.19405  0.43787  1.0000
  C   C114      1.0  0.39911  0.14237  0.48190  1.0000
  H   H97       1.0  0.47675  0.08227  0.48259  1.0000
  H   H98       1.0  0.28593  0.99077  0.27627  1.0000
  H   H99       1.0  0.47558  0.98948  0.36026  1.0000
  C   C115      1.0  0.42197  0.14320  0.48318  1.0000
  H   H100      1.0  0.49221  0.13246  0.37421  1.0000
  C   C116      1.0  0.45967  0.98699  0.42338  1.0000
  C   C117      1.0  0.36158  0.13972  0.67057  1.0000
  H   H101      1.0  0.20677  0.08393  0.72116  1.0000
  Fe  Fe10      1.0  0.10309  0.28416  0.69398  1.0000
  S   S18       1.0  0.09676  0.24952  0.70593  1.0000
  S   S19       1.0  0.10161  0.29528  0.67166  1.0000
  Fe  Fe11      1.0  0.11259  0.13293  0.68542  1.0000
  S   S20       1.0  0.11485  0.10093  0.67636  1.0000
  S   S21       1.0  0.10958  0.16787  0.67210  1.0000
  Fe  Fe12      1.0  0.11920  0.10593  0.71333  1.0000
  S   S22       1.0  0.12168  0.07199  0.70659  1.0000
  S   S23       1.0  0.39873  0.10256  0.72222  1.0000
  Fe  Fe13      1.0  0.14473  0.08621  0.68798  1.0000
  S   S24       1.0  0.17831  0.06406  0.67952  1.0000
  Fe  Fe14      1.0  0.09153  0.08978  0.69560  1.0000
  S   S25       1.0  0.06096  0.07156  0.69756  1.0000
  S   S26       1.0  0.14434  0.11913  0.69552  1.0000
  S   S27       1.0  0.08708  0.12288  0.70394  1.0000
  H   H102      1.0  0.21054  0.19106  0.59247  1.0000
  C   C118      1.0  0.24226  0.16931  0.59800  1.0000
  Fe  Fe15      1.0  0.40268  0.30454  0.73307  1.0000
  C   C119      1.0  0.43778  0.13286  0.66960  1.0000
  H   H103      1.0  0.34105  0.11129  0.73105  1.0000
  H   H104      1.0  0.45220  0.07925  0.62623  1.0000
  C   C120      1.0  0.17789  0.15253  0.71285  1.0000
  C   C121      1.0  0.41159  0.23165  0.70894  1.0000
  Fe  Fe16      1.0  0.45155  0.99864  0.53482  1.0000
  H   H105      1.0  0.04513  0.04378  0.65546  1.0000
  Fe  Fe17      1.0  0.33209  0.13260  0.63509  1.0000
  S   S28       1.0  0.35783  0.09938  0.63454  1.0000
  S   S29       1.0  0.34516  0.16532  0.63484  1.0000
  Fe  Fe18      1.0  0.29014  0.10887  0.63828  1.0000
  S   S30       1.0  0.31230  0.07347  0.63768  1.0000
  S   S31       1.0  0.25106  0.12111  0.64116  1.0000
  Fe  Fe19      1.0  0.33233  0.08441  0.65148  1.0000
  S   S32       1.0  0.34053  0.06493  0.67192  1.0000
  Fe  Fe20      1.0  0.33613  0.09138  0.62065  1.0000
  C   C122      1.0  0.18834  0.27766  0.62155  1.0000
  S   S33       1.0  0.30843  0.11837  0.65319  1.0000
  S   S34       1.0  0.31208  0.12599  0.62016  1.0000
  H   H106      1.0  0.46967  0.10025  0.58003  1.0000
  S   S35       1.0  0.29500  0.29410  0.64295  1.0000
  C   C123      1.0  0.99681  0.30641  0.63663  1.0000
  H   H107      1.0  0.34090  0.15125  0.73182  1.0000
  S   S36       1.0  0.33481  0.29551  0.61571  1.0000
  C   C124      1.0  0.48299  0.01164  0.59237  1.0000
  Fe  Fe21      1.0  0.29800  0.28967  0.62115  1.0000
  S   S37       1.0  0.28570  0.26165  0.61396  1.0000
  Fe  Fe22      1.0  0.33041  0.30373  0.63691  1.0000
  S   S38       1.0  0.35701  0.28701  0.65070  1.0000
  C   C125      1.0  0.14194  0.02571  0.63686  1.0000
  H   H108      1.0  0.37982  0.31186  0.51772  1.0000
  H   H109      1.0  0.40395  0.24970  0.70688  1.0000
  C   C126      1.0  0.16969  0.09370  0.72721  1.0000
  C   C127      1.0  0.43574  0.22487  0.70867  1.0000
  C   C128      1.0  0.41830  0.08107  0.54532  1.0000
  C   C129      1.0  0.43120  0.18468  0.71383  1.0000
  H   H110      1.0  0.08323  0.29641  0.60833  1.0000
  C   C130      1.0  0.25729  0.16294  0.60770  1.0000
  C   C131      1.0  0.40160  0.18096  0.63675  1.0000
  C   C132      1.0  0.38144  0.24665  0.61393  1.0000
  C   C133      1.0  0.28267  0.18088  0.65596  1.0000
  C   C134      1.0  0.38041  0.29362  0.66998  1.0000
  H   H111      1.0  0.48301  0.05387  0.50345  1.0000
  C   C135      1.0  0.43712  0.04483  0.48771  1.0000
  C   C136      1.0  0.26825  0.08882  0.68630  1.0000
  C   C137      1.0  0.32968  0.19161  0.62743  1.0000
  C   C138      1.0  0.31031  0.19263  0.62116  1.0000
  C   C139      1.0  0.29729  0.21424  0.61638  1.0000
  C   C140      1.0  0.30332  0.23469  0.61827  1.0000
  C   C141      1.0  0.32291  0.23355  0.62428  1.0000
  C   C142      1.0  0.33637  0.21211  0.62852  1.0000
  H   H112      1.0  0.30512  0.17686  0.62023  1.0000
  H   H113      1.0  0.28205  0.21503  0.61178  1.0000
  H   H114      1.0  0.32737  0.24919  0.62597  1.0000
  H   H115      1.0  0.35165  0.21140  0.63298  1.0000
  C   C143      1.0  0.36608  0.07036  0.67613  1.0000
  C   C144      1.0  0.36662  0.07303  0.68952  1.0000
  C   C145      1.0  0.38727  0.07597  0.69325  1.0000
  C   C146      1.0  0.40762  0.07578  0.68366  1.0000
  C   C147      1.0  0.40703  0.07345  0.67021  1.0000
  C   C148      1.0  0.38621  0.07100  0.66641  1.0000
  H   H116      1.0  0.35099  0.07324  0.69701  1.0000
  C   C149      1.0  0.24528  0.08560  0.68751  1.0000
  H   H117      1.0  0.38595  0.06867  0.65611  1.0000
  H   H118      1.0  0.40599  0.15472  0.60911  1.0000
  H   H119      1.0  0.30322  0.04790  0.72623  1.0000
  H   H120      1.0  0.37860  0.22017  0.71212  1.0000
  Fe  Fe23      1.0  0.43652  0.27950  0.71193  1.0000
  C   C150      1.0  0.25096  0.20290  0.64407  1.0000
  H   H121      1.0  0.35760  0.03650  0.61342  1.0000
  H   H122      1.0  0.16557  0.09154  0.71764  1.0000
  C   C151      1.0  0.19894  0.07974  0.66915  1.0000
  C   C152      1.0  0.22112  0.06810  0.66404  1.0000
  C   C153      1.0  0.23766  0.08054  0.65567  1.0000
  C   C154      1.0  0.23187  0.10461  0.65226  1.0000
  C   C155      1.0  0.20979  0.11611  0.65743  1.0000
  C   C156      1.0  0.19341  0.10381  0.66589  1.0000
  H   H123      1.0  0.22553  0.04948  0.66658  1.0000
  H   H124      1.0  0.25468  0.07152  0.65170  1.0000
  H   H125      1.0  0.20538  0.13464  0.65479  1.0000
  H   H126      1.0  0.17633  0.11292  0.66963  1.0000
  C   C157      1.0  0.04072  0.07927  0.68593  1.0000
  C   C158      1.0  0.01906  0.07199  0.68967  1.0000
  C   C159      1.0  0.47345  0.11963  0.50476  1.0000
  C   C160      1.0  0.00750  0.09106  0.66787  1.0000
  C   C161      1.0  0.02929  0.09801  0.66407  1.0000
  C   C162      1.0  0.04579  0.09233  0.67307  1.0000
  H   H127      1.0  0.01502  0.06184  0.69960  1.0000
  H   H128      1.0  0.36543  0.24675  0.61023  1.0000
  H   H129      1.0  0.03349  0.10763  0.65405  1.0000
  H   H130      1.0  0.06251  0.09774  0.67001  1.0000
  C   C163      1.0  0.19306  0.08915  0.72926  1.0000
  C   C164      1.0  0.39251  0.02401  0.71217  1.0000
  H   H131      1.0  0.46992  0.29914  0.50312  1.0000
  C   C165      1.0  0.22145  0.25169  0.72900  1.0000
  H   H132      1.0  0.38451  0.15058  0.48857  1.0000
  H   H133      1.0  0.48860  0.22313  0.64425  1.0000
  C   C166      1.0  0.44807  0.30702  0.48745  1.0000
  C   C167      1.0  0.10038  0.22710  0.69632  1.0000
  C   C168      1.0  0.09444  0.20582  0.70281  1.0000
  C   C169      1.0  0.09775  0.18742  0.69550  1.0000
  C   C170      1.0  0.10634  0.19043  0.68153  1.0000
  C   C171      1.0  0.11208  0.21178  0.67497  1.0000
  C   C172      1.0  0.10932  0.23001  0.68239  1.0000
  H   H134      1.0  0.08736  0.20353  0.71356  1.0000
  H   H135      1.0  0.09320  0.17107  0.70064  1.0000
  H   H136      1.0  0.11902  0.21412  0.66421  1.0000
  H   H137      1.0  0.11435  0.24618  0.67734  1.0000
  C   C173      1.0  0.14398  0.17951  0.72099  1.0000
  C   C174      1.0  0.25235  0.17333  0.61944  1.0000
  S   S39       1.0  0.38918  0.17057  0.71725  1.0000
  S   S40       1.0  0.16555  0.29983  0.65537  1.0000
  C   C175      1.0  0.99889  0.20087  0.68563  1.0000
  C   C176      1.0  0.39726  0.21493  0.71175  1.0000
  H   H138      1.0  0.17949  0.29489  0.61790  1.0000
  H   H139      1.0  0.25447  0.16438  0.72773  1.0000
  C   C177      1.0  0.42244  0.03363  0.49814  1.0000
  C   C178      1.0  0.40193  0.02870  0.49549  1.0000
  C   C179      1.0  0.09424  0.07434  0.63341  1.0000
  H   H140      1.0  0.10486  0.28241  0.72273  1.0000
  C   C180      1.0  0.25106  0.30208  0.67987  1.0000
  H   H141      1.0  0.42711  0.02879  0.50826  1.0000
  H   H142      1.0  0.17962  0.04795  0.64048  1.0000
  H   H143      1.0  0.18918  0.17749  0.68381  1.0000
  C   C181      1.0  0.15212  0.02034  0.66846  1.0000
  P   P5        1.0  0.45010  0.24586  0.62930  1.0000
  C   C182      1.0  0.08089  0.14009  0.65297  1.0000
  C   C183      1.0  0.07888  0.13762  0.63983  1.0000
  C   C184      1.0  0.05717  0.14395  0.63549  1.0000
  C   C185      1.0  0.03755  0.15299  0.64422  1.0000
  C   C186      1.0  0.03924  0.15532  0.65760  1.0000
  C   C187      1.0  0.06117  0.14826  0.66194  1.0000
  P   P6        1.0  0.01352  0.16725  0.66885  1.0000
  C   C188      1.0  0.17704  0.26393  0.63247  1.0000
  H   H144      1.0  0.10780  0.08265  0.62691  1.0000
  C   C189      1.0  0.26898  0.99186  0.73259  1.0000
  H   H145      1.0  0.44283  0.20239  0.62224  1.0000
  S   S41       1.0  0.44064  0.28780  0.73193  1.0000
  C   C190      1.0  0.01466  0.11993  0.70400  1.0000
  C   C191      1.0  0.02121  0.13514  0.69224  1.0000
  H   H146      1.0  0.15954  0.27058  0.63722  1.0000
  H   H147      1.0  0.39030  0.06261  0.61727  1.0000
  C   C192      1.0  0.48557  0.16943  0.63920  1.0000
  C   C193      1.0  0.34001  0.01140  0.72056  1.0000
  H   H148      1.0  0.13904  0.12906  0.64194  1.0000
  C   C194      1.0  0.01779  0.19018  0.67696  1.0000
  C   C195      1.0  0.03963  0.19662  0.67560  1.0000
  C   C196      1.0  0.04255  0.21297  0.68301  1.0000
  C   C197      1.0  0.02373  0.22311  0.69178  1.0000
  S   S42       1.0  0.48209  0.01745  0.52914  1.0000
  H   H149      1.0  0.38073  0.29471  0.62214  1.0000
  H   H150      1.0  0.09781  0.13598  0.65622  1.0000
  H   H151      1.0  0.09417  0.13106  0.63298  1.0000
  H   H152      1.0  0.05546  0.14200  0.62531  1.0000
  H   H153      1.0  0.27303  0.31947  0.73180  1.0000
  H   H154      1.0  0.06343  0.14960  0.67208  1.0000
  C   C198      1.0  0.40836  0.06473  0.61424  1.0000
  C   C199      1.0  0.15262  0.03199  0.62341  1.0000
  C   C200      1.0  0.22237  0.24710  0.62045  1.0000
  H   H155      1.0  0.02736  0.11129  0.71062  1.0000
  H   H156      1.0  0.03872  0.13861  0.69034  1.0000
  H   H157      1.0  0.15767  0.16338  0.67663  1.0000
  C   C201      1.0  0.14770  0.11142  0.64115  1.0000
  C   C202      1.0  0.48269  0.20994  0.64049  1.0000
  C   C203      1.0  0.17079  0.17067  0.66905  1.0000
  C   C204      1.0  0.21396  0.02845  0.71920  1.0000
  H   H158      1.0  0.05458  0.18907  0.66901  1.0000
  S   S43       1.0  0.41493  0.01817  0.53937  1.0000
  H   H159      1.0  0.02619  0.23535  0.69771  1.0000
  H   H160      1.0  0.04931  0.31207  0.65503  1.0000
  C   C205      1.0  0.13161  0.03538  0.66519  1.0000
  H   H161      1.0  0.40251  0.24576  0.59418  1.0000
  H   H162      1.0  0.39590  0.10451  0.55802  1.0000
  Fe  Fe24      1.0  0.40633  0.99737  0.52534  1.0000
  C   C206      1.0  0.11502  0.03064  0.68922  1.0000
  C   C207      1.0  0.17044  0.06563  0.64037  1.0000
  C   C208      1.0  0.05894  0.05213  0.64922  1.0000
  C   C209      1.0  0.24894  0.13394  0.72152  1.0000
  C   C210      1.0  0.16974  0.17241  0.65520  1.0000
  H   H163      1.0  0.23992  0.24073  0.61562  1.0000
  H   H164      1.0  0.27666  0.27523  0.71451  1.0000
  P   P7        1.0  0.45914  0.05434  0.58145  1.0000
  H   H165      1.0  0.15574  0.16648  0.65216  1.0000
  C   C211      1.0  0.16197  0.01512  0.61504  1.0000
  C   C212      1.0  0.44350  0.06287  0.59734  1.0000
  H   H166      1.0  0.40870  0.08707  0.53680  1.0000
  C   C213      1.0  0.44549  0.25705  0.64517  1.0000
  C   C214      1.0  0.18845  0.24193  0.63755  1.0000
  C   C215      1.0  0.20484  0.18931  0.64932  1.0000
  H   H167      1.0  0.21354  0.18881  0.73006  1.0000
  H   H168      1.0  0.48344  0.06720  0.52505  1.0000
  C   C216      1.0  0.25276  0.00191  0.70268  1.0000
  C   C217      1.0  0.45688  0.19841  0.62820  1.0000
  H   H169      1.0  0.43122  0.22785  0.65716  1.0000
  C   C218      1.0  0.27644  0.05377  0.70242  1.0000
  H   H170      1.0  0.17934  0.23184  0.64614  1.0000
  S   S44       1.0  0.38511  0.01237  0.50836  1.0000
  C   C219      1.0  0.40174  0.24742  0.63247  1.0000
  H   H171      1.0  0.25666  0.29817  0.66960  1.0000
  H   H172      1.0  0.39921  0.29164  0.49846  1.0000
  H   H173      1.0  0.41744  0.09067  0.57743  1.0000
  C   C220      1.0  0.32447  0.24496  0.72828  1.0000
  H   H174      1.0  0.27268  0.14968  0.60622  1.0000
  C   C221      1.0  0.00237  0.07814  0.68076  1.0000
  C   C222      1.0  0.43776  0.06330  0.54441  1.0000
  H   H175      1.0  0.45957  0.28826  0.63657  1.0000
  C   C223      1.0  0.31100  0.25762  0.71842  1.0000
  C   C224      1.0  0.46469  0.02320  0.58517  1.0000
  C   C225      1.0  0.18673  0.18163  0.64535  1.0000
  H   H176      1.0  0.22005  0.27997  0.60722  1.0000
  H   H177      1.0  0.42869  0.25607  0.50193  1.0000
  C   C226      1.0  0.18333  0.08348  0.63736  1.0000
  C   C227      1.0  0.34420  0.12610  0.69357  1.0000
  C   C228      1.0  0.38115  0.24726  0.62771  1.0000
  P   P8        1.0  0.02950  0.27389  0.65026  1.0000
  H   H178      1.0  0.44105  0.27721  0.68010  1.0000
  H   H179      1.0  0.25549  0.05005  0.73228  1.0000
  H   H180      1.0  0.06717  0.09480  0.62230  1.0000
  H   H181      1.0  0.49338  0.27174  0.70489  1.0000
  C   C229      1.0  0.28376  0.07305  0.69390  1.0000
  C   C230      1.0  0.44860  0.01069  0.58298  1.0000
  H   H182      1.0  0.03572  0.07567  0.63673  1.0000
  C   C231      1.0  0.40304  0.28449  0.50866  1.0000
  C   C232      1.0  0.41978  0.26440  0.51061  1.0000
  C   C233      1.0  0.42556  0.25556  0.52360  1.0000
  C   C234      1.0  0.41462  0.26685  0.53466  1.0000
  C   C235      1.0  0.39764  0.28702  0.53282  1.0000
  C   C236      1.0  0.14001  0.00249  0.64167  1.0000
  H   H183      1.0  0.36483  0.24812  0.63471  1.0000
  C   C237      1.0  0.36686  0.28634  0.56031  1.0000
  C   C238      1.0  0.44857  0.31424  0.55149  1.0000
  H   H184      1.0  0.01491  0.24114  0.63632  1.0000
  C   C239      1.0  0.30948  0.10224  0.72776  1.0000
  H   H185      1.0  0.23327  0.09770  0.68155  1.0000
  C   C240      1.0  0.08186  0.04522  0.65194  1.0000
  C   C241      1.0  0.23215  0.19014  0.62162  1.0000
  C   C242      1.0  0.35042  0.29807  0.56979  1.0000
  C   C243      1.0  0.33627  0.28606  0.58015  1.0000
  C   C244      1.0  0.33837  0.26216  0.58120  1.0000
  C   C245      1.0  0.35450  0.25030  0.57177  1.0000
  C   C246      1.0  0.36863  0.26231  0.56133  1.0000
  C   C247      1.0  0.39206  0.29586  0.51967  1.0000
  C   C248      1.0  0.36122  0.13336  0.69868  1.0000
  C   C249      1.0  0.03155  0.23346  0.63956  1.0000
  H   H186      1.0  0.40022  0.19799  0.63925  1.0000
  C   C250      1.0  0.26037  0.01526  0.72805  1.0000
  C   C251      1.0  0.05020  0.29085  0.63993  1.0000
  C   C252      1.0  0.16041  0.99196  0.61998  1.0000
  H   H187      1.0  0.44331  0.05570  0.53515  1.0000
  H   H188      1.0  0.43889  0.24023  0.52500  1.0000
  H   H189      1.0  0.41982  0.26018  0.54459  1.0000
  H   H190      1.0  0.41126  0.05382  0.59490  1.0000
  H   H191      1.0  0.36351  0.07177  0.73205  1.0000
  C   C253      1.0  0.26910  0.00414  0.69068  1.0000
  H   H192      1.0  0.14848  0.30487  0.71506  1.0000
  H   H193      1.0  0.42810  0.11999  0.66862  1.0000
  H   H194      1.0  0.42354  0.98955  0.48544  1.0000
  C   C254      1.0  0.46435  0.21595  0.63276  1.0000
  H   H195      1.0  0.32359  0.29533  0.58738  1.0000
  H   H196      1.0  0.32729  0.25290  0.58925  1.0000
  H   H197      1.0  0.35586  0.23177  0.57250  1.0000
  H   H198      1.0  0.38063  0.25274  0.55407  1.0000
  H   H199      1.0  0.13118  0.99740  0.65187  1.0000
  H   H200      1.0  0.16989  0.99903  0.68447  1.0000
  C   C255      1.0  0.40534  0.15659  0.61963  1.0000
  H   H201      1.0  0.43314  0.19068  0.66873  1.0000
  C   C256      1.0  0.42020  0.06003  0.60147  1.0000
  C   C257      1.0  0.41984  0.07179  0.62312  1.0000
  C   C258      1.0  0.38269  0.19345  0.66778  1.0000
  C   C259      1.0  0.36360  0.20403  0.66105  1.0000
  C   C260      1.0  0.35086  0.22569  0.66353  1.0000
  C   C261      1.0  0.35672  0.23667  0.67305  1.0000
  C   C262      1.0  0.37498  0.22580  0.68027  1.0000
  C   C263      1.0  0.38751  0.20395  0.67796  1.0000
  C   C264      1.0  0.40341  0.13962  0.64349  1.0000
  C   C265      1.0  0.40548  0.13718  0.62981  1.0000
  H   H202      1.0  0.33162  0.12302  0.67553  1.0000
  H   H203      1.0  0.36077  0.14280  0.65977  1.0000
  H   H204      1.0  0.35826  0.19515  0.65414  1.0000
  H   H205      1.0  0.33642  0.23400  0.65810  1.0000
  H   H206      1.0  0.34696  0.25354  0.67493  1.0000
  H   H207      1.0  0.37917  0.23426  0.68779  1.0000
  H   H208      1.0  0.40037  0.19513  0.68442  1.0000
  H   H209      1.0  0.40305  0.12442  0.65126  1.0000
  H   H210      1.0  0.40630  0.12034  0.62714  1.0000
  P   P9        1.0  0.22512  0.20385  0.63675  1.0000
  C   C266      1.0  0.46088  0.12572  0.67197  1.0000
  H   H211      1.0  0.18790  0.14308  0.70489  1.0000
  C   C267      1.0  0.18859  0.17849  0.67309  1.0000
  C   C268      1.0  0.20539  0.18800  0.66328  1.0000
  H   H212      1.0  0.17035  0.02003  0.60469  1.0000
  H   H213      1.0  0.48483  0.06160  0.68011  1.0000
  H   H214      1.0  0.21246  0.28960  0.64190  1.0000
  C   C269      1.0  0.49494  0.18662  0.48513  1.0000
  C   C270      1.0  0.14597  0.07062  0.64348  1.0000
  C   C271      1.0  0.38187  0.01533  0.58373  1.0000
  C   C272      1.0  0.15752  0.16833  0.71047  1.0000
  H   H215      1.0  0.13650  0.00749  0.70284  1.0000
  H   H216      1.0  0.26428  0.16784  0.62676  1.0000
  H   H217      1.0  0.20225  0.07954  0.63521  1.0000
  H   H218      1.0  0.48709  0.98804  0.55537  1.0000
  H   H219      1.0  0.02120  0.15789  0.64034  1.0000
  H   H220      1.0  0.22343  0.26931  0.72868  1.0000
  H   H221      1.0  0.00995  0.31725  0.63364  1.0000
  C   C273      1.0  0.40403  0.31577  0.56695  1.0000
  H   H222      1.0  0.42276  0.07320  0.66277  1.0000
  H   H223      1.0  0.46563  0.31445  0.54531  1.0000
  H   H224      1.0  0.15172  0.17147  0.70064  1.0000
  H   H225      1.0  0.39967  0.29857  0.68490  1.0000
  C   C274      1.0  0.36462  0.30409  0.66093  1.0000
  C   C275      1.0  0.24297  0.12461  0.71129  1.0000
  C   C276      1.0  0.23767  0.13895  0.69921  1.0000
  C   C277      1.0  0.23824  0.16254  0.69738  1.0000
  C   C278      1.0  0.24364  0.17205  0.70778  1.0000
  C   C279      1.0  0.24952  0.15750  0.71974  1.0000
  P   P10       1.0  0.24669  0.20187  0.70506  1.0000
  C   C280      1.0  0.23250  0.21834  0.69103  1.0000
  C   C281      1.0  0.23189  0.21636  0.71917  1.0000
  C   C282      1.0  0.21625  0.20621  0.72968  1.0000
  H   H226      1.0  0.07340  0.24309  0.65559  1.0000
  H   H227      1.0  0.49080  0.13601  0.67656  1.0000
  C   C283      1.0  0.25345  0.05029  0.70359  1.0000
  H   H228      1.0  0.47259  0.17766  0.67467  1.0000
  C   C284      1.0  0.20858  0.21884  0.69147  1.0000
  C   C285      1.0  0.19662  0.23311  0.68137  1.0000
  C   C286      1.0  0.20843  0.24703  0.67081  1.0000
  C   C287      1.0  0.23212  0.24690  0.67041  1.0000
  C   C288      1.0  0.24417  0.23264  0.68049  1.0000
  C   C289      1.0  0.27785  0.20068  0.70215  1.0000
  C   C290      1.0  0.29145  0.19110  0.69095  1.0000
  C   C291      1.0  0.31584  0.18767  0.68923  1.0000
  C   C292      1.0  0.32683  0.19346  0.69881  1.0000
  C   C293      1.0  0.42304  0.24610  0.60959  1.0000
  C   C294      1.0  0.28902  0.20626  0.71182  1.0000
  H   H229      1.0  0.18211  0.12006  0.63563  1.0000
  H   H230      1.0  0.24213  0.10636  0.71286  1.0000
  H   H231      1.0  0.23297  0.13188  0.69126  1.0000
  H   H232      1.0  0.23474  0.17317  0.68781  1.0000
  C   C295      1.0  0.49244  0.16440  0.48393  1.0000
  H   H233      1.0  0.10071  0.03481  0.69729  1.0000
  C   C296      1.0  0.23123  0.29468  0.68780  1.0000
  S   S45       1.0  0.35265  0.08454  0.59931  1.0000
  C   C297      1.0  0.47042  0.29675  0.59885  1.0000
  C   C298      1.0  0.23420  0.23926  0.71884  1.0000
  H   H234      1.0  0.19905  0.20854  0.69979  1.0000
  H   H235      1.0  0.17810  0.23367  0.68181  1.0000
  H   H236      1.0  0.19908  0.25827  0.66307  1.0000
  H   H237      1.0  0.24099  0.25829  0.66240  1.0000
  H   H238      1.0  0.26236  0.23328  0.68019  1.0000
  H   H239      1.0  0.28313  0.18564  0.68380  1.0000
  H   H240      1.0  0.32628  0.18001  0.68066  1.0000
  C   C299      1.0  0.07132  0.08109  0.63063  1.0000
  H   H241      1.0  0.48791  0.08666  0.69633  1.0000
  H   H242      1.0  0.45582  0.30125  0.65875  1.0000
  C   C300      1.0  0.45570  0.31114  0.49892  1.0000
  H   H243      1.0  0.38734  0.27530  0.67072  1.0000
  S   S46       1.0  0.39808  0.29304  0.71417  1.0000
  H   H244      1.0  0.30723  0.20031  0.65919  1.0000
  C   C301      1.0  0.40707  0.19142  0.71413  1.0000
  C   C302      1.0  0.44984  0.05499  0.55548  1.0000
  H   H245      1.0  0.34057  0.03797  0.70272  1.0000
  H   H246      1.0  0.20143  0.20938  0.61315  1.0000
  H   H247      1.0  0.38759  0.07758  0.70365  1.0000
  C   C303      1.0  0.48069  0.07978  0.51597  1.0000
  C   C304      1.0  0.40087  0.16164  0.64709  1.0000
  C   C305      1.0  0.44553  0.20135  0.71098  1.0000
  H   H248      1.0  0.46417  0.19598  0.71083  1.0000
  H   H249      1.0  0.05461  0.27360  0.62240  1.0000
  C   C306      1.0  0.34455  0.12904  0.67950  1.0000
  P   P11       1.0  0.39784  0.16492  0.66476  1.0000
  C   C307      1.0  0.17197  0.10637  0.63765  1.0000
  C   C308      1.0  0.29111  0.20113  0.65544  1.0000
  H   H250      1.0  0.28585  0.23804  0.64908  1.0000
  H   H251      1.0  0.03460  0.20351  0.63004  1.0000
  C   C309      1.0  0.36406  0.03652  0.60268  1.0000
  C   C310      1.0  0.44254  0.06449  0.56757  1.0000
  C   C311      1.0  0.40237  0.24614  0.60487  1.0000
  C   C312      1.0  0.40356  0.17846  0.62309  1.0000
  C   C313      1.0  0.17464  0.03296  0.71420  1.0000
  H   H252      1.0  0.40461  0.29492  0.63964  1.0000
  H   H253      1.0  0.47340  0.07069  0.60376  1.0000
  C   C314      1.0  0.36320  0.05750  0.59370  1.0000
  C   C315      1.0  0.47338  0.14179  0.67394  1.0000
  C   C316      1.0  0.13476  0.09359  0.64409  1.0000
  C   C317      1.0  0.37901  0.14670  0.67564  1.0000
  H   H254      1.0  0.46482  0.04109  0.55462  1.0000
  H   H255      1.0  0.40300  0.19355  0.61522  1.0000
  C   C318      1.0  0.37175  0.05727  0.57979  1.0000
  C   C319      1.0  0.38115  0.03634  0.57482  1.0000
  H   H256      1.0  0.37095  0.07341  0.57279  1.0000
  H   H257      1.0  0.38758  0.03648  0.56408  1.0000
  H   H258      1.0  0.27751  0.01908  0.68761  1.0000
  C   C320      1.0  0.34565  0.07507  0.73019  1.0000
  C   C321      1.0  0.27917  0.22233  0.64966  1.0000
  H   H259      1.0  0.29209  0.16445  0.66035  1.0000
  H   H260      1.0  0.22123  0.28527  0.68366  1.0000
  H   H261      1.0  0.20860  0.29412  0.70709  1.0000
  Fe  Fe25      1.0  0.41180  0.13553  0.72065  1.0000
  H   H262      1.0  0.43893  0.16663  0.71596  1.0000
  H   H263      1.0  0.27410  0.10338  0.67936  1.0000
  C   C322      1.0  0.44031  0.17247  0.66998  1.0000
  C   C323      1.0  0.21714  0.19648  0.61176  1.0000
  C   C324      1.0  0.42719  0.15625  0.66873  1.0000
  C   C325      1.0  0.47448  0.11216  0.49227  1.0000
  C   C326      1.0  0.31342  0.20274  0.71007  1.0000
  P   P12       1.0  0.38496  0.30248  0.54699  1.0000
  H   H264      1.0  0.12814  0.19154  0.71905  1.0000
  C   C327      1.0  0.46305  0.16518  0.67299  1.0000
  H   H265      1.0  0.09298  0.20568  0.64886  1.0000
  C   C328      1.0  0.49438  0.28896  0.59550  1.0000
  H   H266      1.0  0.15367  0.04991  0.61935  1.0000
  P   P13       1.0  0.24510  0.02400  0.71350  1.0000
  P   P14       1.0  0.12940  0.04747  0.64757  1.0000
  C   C329      1.0  0.22220  0.18612  0.60001  1.0000
  C   C330      1.0  0.23782  0.06648  0.69613  1.0000
  C   C331      1.0  0.41625  0.02474  0.70811  1.0000
  H   H267      1.0  0.45305  0.04839  0.48985  1.0000
  C   C332      1.0  0.37335  0.01550  0.59768  1.0000
  H   H268      1.0  0.07409  0.18609  0.63579  1.0000
  H   H269      1.0  0.31922  0.26192  0.70797  1.0000
  Fe  Fe26      1.0  0.46232  0.11159  0.72197  1.0000
  C   C333      1.0  0.21115  0.23326  0.63149  1.0000
  H   H270      1.0  0.33092  0.11792  0.70044  1.0000
  H   H271      1.0  0.02079  0.28595  0.70578  1.0000
  C   C334      1.0  0.05364  0.07012  0.63862  1.0000
  H   H272      1.0  0.20551  0.02651  0.69956  1.0000
  C   C335      1.0  0.07585  0.21351  0.64622  1.0000
  C   C336      1.0  0.13521  0.01522  0.69235  1.0000
  C   C337      1.0  0.06511  0.20234  0.63894  1.0000
  C   C338      1.0  0.33507  0.98920  0.72585  1.0000
  H   H273      1.0  0.33589  0.31458  0.54295  1.0000
  C   C339      1.0  0.44320  0.07424  0.61921  1.0000
  H   H274      1.0  0.24617  0.16109  0.58896  1.0000
  C   C340      1.0  0.42289  0.24685  0.62343  1.0000
  H   H275      1.0  0.05948  0.21770  0.68205  1.0000
  C   C341      1.0  0.37875  0.14330  0.68976  1.0000
  C   C342      1.0  0.33517  0.05697  0.72878  1.0000
  H   H276      1.0  0.22004  0.06427  0.69663  1.0000
  C   C343      1.0  0.06442  0.23460  0.65025  1.0000
  C   C344      1.0  0.02242  0.28271  0.69544  1.0000
  C   C345      1.0  0.32897  0.00866  0.69901  1.0000
  H   H277      1.0  0.20051  0.13601  0.72763  1.0000
  C   C346      1.0  0.26256  0.18174  0.65043  1.0000
  C   C347      1.0  0.42329  0.08275  0.56832  1.0000
  Fe  Fe27      1.0  0.43115  0.09208  0.70769  1.0000
  H   H278      1.0  0.34575  0.19032  0.69769  1.0000
  C   C348      1.0  0.04291  0.21220  0.63570  1.0000
  S   S47       1.0  0.39320  0.98862  0.57779  1.0000
  H   H279      1.0  0.25630  0.16582  0.65087  1.0000
  H   H280      1.0  0.18558  0.18286  0.63469  1.0000
  H   H281      1.0  0.28890  0.04117  0.70773  1.0000
  C   C349      1.0  0.46771  0.26256  0.61611  1.0000
  C   C350      1.0  0.45508  0.06962  0.60640  1.0000
  S   S48       1.0  0.43422  0.07718  0.68843  1.0000
  C   C351      1.0  0.04208  0.24478  0.64703  1.0000
  C   C352      1.0  0.23591  0.31327  0.70611  1.0000
  C   C353      1.0  0.00525  0.14575  0.68325  1.0000
  C   C354      1.0  0.04447  0.27767  0.68773  1.0000
  S   S49       1.0  0.45406  0.24538  0.70545  1.0000
  H   H282      1.0  0.05990  0.27691  0.69215  1.0000
  C   C355      1.0  0.25925  0.22325  0.64394  1.0000
  C   C356      1.0  0.22997  0.31570  0.64503  1.0000
  C   C357      1.0  0.28700  0.26504  0.72208  1.0000
  C   C358      1.0  0.41114  0.09087  0.55725  1.0000
  H   H283      1.0  0.16314  0.03406  0.70688  1.0000
  H   H284      1.0  0.08559  0.03083  0.65998  1.0000
  H   H285      1.0  0.25075  0.23990  0.63927  1.0000
  C   C359      1.0  0.02671  0.27599  0.66821  1.0000
  C   C360      1.0  0.04665  0.27419  0.67423  1.0000
  H   H286      1.0  0.06392  0.27114  0.66840  1.0000
  H   H287      1.0  0.43917  0.24533  0.60244  1.0000
  H   H288      1.0  0.43376  0.01928  0.57794  1.0000
  C   C361      1.0  0.40386  0.30867  0.63095  1.0000
  C   C362      1.0  0.47720  0.08837  0.49196  1.0000
  C   C363      1.0  0.33686  0.02098  0.70708  1.0000
  C   C364      1.0  0.22395  0.29990  0.70098  1.0000
  C   C365      1.0  0.09955  0.05693  0.64443  1.0000
  C   C366      1.0  0.41889  0.03126  0.73059  1.0000
  C   C367      1.0  0.29006  0.31692  0.72553  1.0000
  H   H289      1.0  0.21861  0.19462  0.66660  1.0000
  H   H290      1.0  0.39169  0.14905  0.69390  1.0000
  C   C368      1.0  0.44212  0.27173  0.67035  1.0000
  C   C369      1.0  0.00178  0.21741  0.69288  1.0000
  H   H291      1.0  0.37389  0.99931  0.60464  1.0000
  H   H292      1.0  0.32688  0.01630  0.68857  1.0000
  C   C370      1.0  0.40826  0.30918  0.55396  1.0000
  C   C371      1.0  0.43513  0.25111  0.66988  1.0000
  H   H293      1.0  0.36083  0.13148  0.70956  1.0000
  C   C372      1.0  0.21107  0.26930  0.61559  1.0000
  C   C373      1.0  0.11340  0.04114  0.67575  1.0000
  C   C374      1.0  0.33285  0.09760  0.72967  1.0000
  H   H294      1.0  0.09792  0.05376  0.67372  1.0000
  C   C375      1.0  0.05969  0.28677  0.62660  1.0000
  C   C376      1.0  0.43666  0.24387  0.65735  1.0000
  H   H295      1.0  0.30164  0.07544  0.69289  1.0000
  H   H296      1.0  0.47620  0.10916  0.52614  1.0000
  S   S50       1.0  0.13730  0.29495  0.69291  1.0000
  H   H297      1.0  0.11610  0.09758  0.64724  1.0000
  H   H298      1.0  0.46209  0.31297  0.59351  1.0000
  S   S51       1.0  0.44205  0.12627  0.70474  1.0000
  C   C377      1.0  0.33158  0.30175  0.72388  1.0000
  H   H299      1.0  0.41070  0.07505  0.63310  1.0000
  H   H300      1.0  0.46104  0.16174  0.62829  1.0000
  H   H301      1.0  0.15301  0.26154  0.72547  1.0000
  H   H302      1.0  0.24569  0.24762  0.71064  1.0000
  C   C378      1.0  0.19878  0.02875  0.71006  1.0000
  H   H303      1.0  0.44767  0.02960  0.71401  1.0000
  C   C379      1.0  0.16540  0.03673  0.72752  1.0000
  H   H304      1.0  0.42485  0.15189  0.49099  1.0000
  H   H305      1.0  0.16684  0.01652  0.66058  1.0000
  C   C380      1.0  0.00248  0.28394  0.68971  1.0000
  H   H306      1.0  0.25275  0.12298  0.73097  1.0000
  H   H307      1.0  0.29950  0.11967  0.72755  1.0000
  H   H308      1.0  0.38684  0.31707  0.57300  1.0000
  C   C381      1.0  0.43063  0.30885  0.54618  1.0000
  H   H309      1.0  0.40080  0.24830  0.64315  1.0000
  C   C382      1.0  0.45714  0.28363  0.60910  1.0000
  P   P15       1.0  0.35078  0.02749  0.73071  1.0000
  C   C383      1.0  0.49184  0.25490  0.61274  1.0000
  C   C384      1.0  0.38737  0.30678  0.67803  1.0000
  C   C385      1.0  0.45246  0.27781  0.64573  1.0000
  H   H310      1.0  0.42865  0.24073  0.67930  1.0000
  H   H311      1.0  0.46991  0.13785  0.50548  1.0000
  H   H312      1.0  0.46859  0.10752  0.67294  1.0000
  H   H313      1.0  0.35152  0.30652  0.70371  1.0000
  H   H314      1.0  0.34295  0.23905  0.72524  1.0000
  H   H315      1.0  0.28066  0.08759  0.72520  1.0000
  H   H316      1.0  0.34660  0.29323  0.72876  1.0000
  H   H317      1.0  0.14666  0.04077  0.73059  1.0000
  C   C386      1.0  0.45054  0.28521  0.65828  1.0000
  H   H318      1.0  0.18028  0.28618  0.72797  1.0000
  H   H319      1.0  0.43859  0.28989  0.61149  1.0000
  C   C387      1.0  0.42942  0.02843  0.71729  1.0000
  H   H320      1.0  0.34840  0.31662  0.56912  1.0000
  C   C388      1.0  0.31172  0.06174  0.72691  1.0000
  H   H321      1.0  0.49349  0.15144  0.64188  1.0000
  C   C389      1.0  0.48061  0.07226  0.50374  1.0000
  H   H322      1.0  0.27910  0.21261  0.72093  1.0000
  C   C390      1.0  0.47678  0.10344  0.51653  1.0000
  C   C391      1.0  0.46730  0.17524  0.63154  1.0000
  S   S52       1.0  0.45365  0.07632  0.72381  1.0000
  H   H323      1.0  0.42430  0.02327  0.69769  1.0000
  C   C392      1.0  0.15390  0.01032  0.68200  1.0000
  C   C393      1.0  0.29891  0.08426  0.72638  1.0000
  H   H324      1.0  0.38269  0.02170  0.70473  1.0000
  H   H325      1.0  0.43422  0.30505  0.53586  1.0000
  H   H326      1.0  0.35891  0.31836  0.49494  1.0000
  C   C394      1.0  0.33434  0.30923  0.70980  1.0000
  C   C395      1.0  0.30938  0.30523  0.73168  1.0000
  C   C396      1.0  0.17271  0.30414  0.72831  1.0000
  C   C397      1.0  0.38171  0.02712  0.72547  1.0000
  H   H327      1.0  0.14624  0.22252  0.72566  1.0000
  C   C398      1.0  0.18493  0.14840  0.72567  1.0000
  C   C399      1.0  0.49336  0.18678  0.64360  1.0000
  C   C400      1.0  0.07588  0.29970  0.61858  1.0000
  Fe  Fe28      1.0  0.13427  0.30890  0.67109  1.0000
  C   C401      1.0  0.15477  0.31478  0.72085  1.0000
  C   C402      1.0  0.48567  0.06590  0.57577  1.0000
  C   C403      1.0  0.00145  0.28444  0.64457  1.0000
  H   H328      1.0  0.32200  0.20669  0.71761  1.0000
  H   H329      1.0  0.24586  0.30969  0.63850  1.0000
  C   C404      1.0  0.21100  0.30431  0.64696  1.0000
  C   C405      1.0  0.39035  0.30853  0.62107  1.0000
  C   C406      1.0  0.18990  0.31246  0.65491  1.0000
  C   C407      1.0  0.20456  0.03210  0.73263  1.0000
  C   C408      1.0  0.00456  0.28073  0.67617  1.0000
  C   C409      1.0  0.48558  0.08921  0.57618  1.0000
  C   C410      1.0  0.05673  0.30834  0.64495  1.0000
  C   C411      1.0  0.09329  0.28575  0.73209  1.0000
  S   S53       1.0  0.44636  0.31221  0.69956  1.0000
  C   C412      1.0  0.27460  0.98706  0.68231  1.0000
  H   H330      1.0  0.28701  0.98904  0.67298  1.0000
  C   C413      1.0  0.26300  0.31558  0.68491  1.0000
  Fe  Fe29      1.0  0.40959  0.98764  0.55564  1.0000
  S   S54       1.0  0.08142  0.31735  0.70007  1.0000
  H   H331      1.0  0.22981  0.31728  0.71635  1.0000
  H   H332      1.0  0.20902  0.31931  0.61717  1.0000
  H   H333      1.0  0.49512  0.02105  0.59462  1.0000
  C   C414      1.0  0.08256  0.31687  0.62378  1.0000
  H   H334      1.0  0.10164  0.31915  0.73103  1.0000
  C   C415      1.0  0.45104  0.98692  0.58775  1.0000
  C   C416      1.0  0.48554  0.98782  0.59696  1.0000
  C   C417      1.0  0.32399  0.98665  0.70437  1.0000
  Fe  Fe30      1.0  0.14942  0.09862  0.94921  1.0000
  S   S55       1.0  0.17005  0.07371  0.93516  1.0000
  H   H335      1.0  0.08343  0.06710  0.98093  1.0000
  S   S56       1.0  0.13649  0.13585  0.94144  1.0000
  C   C418      1.0  0.03044  0.10688  0.97541  1.0000
  H   H336      1.0  0.16156  0.27874  0.94290  1.0000
  H   H337      1.0  0.13159  0.25548  0.95384  1.0000
  C   C419      1.0  0.06518  0.27363  0.75136  1.0000
  C   C420      1.0  0.05624  0.06620  0.93347  1.0000
  H   H338      1.0  0.24545  0.09331  0.82124  1.0000
  C   C421      1.0  0.33120  0.15977  0.74023  1.0000
  H   H339      1.0  0.40253  0.28979  0.84529  1.0000
  H   H340      1.0  0.05492  0.26088  0.75690  1.0000
  C   C422      1.0  0.14997  0.31244  0.83649  1.0000
  C   C423      1.0  0.28121  0.00231  0.75180  1.0000
  S   S57       1.0  0.40957  0.06648  0.75748  1.0000
  H   H341      1.0  0.14580  0.04219  0.81330  1.0000
  Fe  Fe31      1.0  0.27124  0.09341  0.78039  1.0000
  S   S58       1.0  0.25000  0.12093  0.79239  1.0000
  S   S59       1.0  0.30429  0.07060  0.78649  1.0000
  Fe  Fe32      1.0  0.23484  0.09863  0.76211  1.0000
  S   S60       1.0  0.21077  0.12644  0.77237  1.0000
  C   C424      1.0  0.05676  0.04550  0.92887  1.0000
  Fe  Fe33      1.0  0.24283  0.14081  0.77194  1.0000
  S   S61       1.0  0.24133  0.17877  0.76343  1.0000
  Fe  Fe34      1.0  0.21968  0.10416  0.79194  1.0000
  S   S62       1.0  0.19028  0.10042  0.80972  1.0000
  S   S63       1.0  0.26655  0.11453  0.75996  1.0000
  S   S64       1.0  0.24136  0.07506  0.78158  1.0000
  S   S65       1.0  0.24249  0.25468  0.79938  1.0000
  Fe  Fe35      1.0  0.12646  0.00758  0.88963  1.0000
  S   S66       1.0  0.16230  0.10651  0.96712  1.0000
  S   S67       1.0  0.10894  0.03519  0.90257  1.0000
  S   S68       1.0  0.24861  0.30068  0.76647  1.0000
  H   H342      1.0  0.17692  0.00848  0.81775  1.0000
  C   C425      1.0  0.11650  0.25766  0.89682  1.0000
  H   H343      1.0  0.17654  0.00418  0.96912  1.0000
  C   C426      1.0  0.22701  0.99531  0.87374  1.0000
  C   C427      1.0  0.25293  0.06992  0.83956  1.0000
  S   S69       1.0  0.12309  0.01221  0.86735  1.0000
  S   S70       1.0  0.43246  0.12357  0.73791  1.0000
  C   C428      1.0  0.03537  0.01687  0.86659  1.0000
  H   H344      1.0  0.34928  0.18835  0.73446  1.0000
  H   H345      1.0  0.33769  0.98924  0.78717  1.0000
  C   C429      1.0  0.08007  0.26936  0.73927  1.0000
  S   S71       1.0  0.16480  0.99338  0.88634  1.0000
  C   C430      1.0  0.02434  0.29575  0.95857  1.0000
  H   H346      1.0  0.07225  0.01061  0.86757  1.0000
  H   H347      1.0  0.06539  0.08189  0.94869  1.0000
  C   C431      1.0  0.02580  0.13452  0.95012  1.0000
  C   C432      1.0  0.19075  0.07340  0.82047  1.0000
  C   C433      1.0  0.20937  0.05501  0.81864  1.0000
  C   C434      1.0  0.20919  0.03363  0.82726  1.0000
  C   C435      1.0  0.19034  0.03041  0.83770  1.0000
  C   C436      1.0  0.17176  0.04884  0.83963  1.0000
  C   C437      1.0  0.17210  0.07032  0.83109  1.0000
  H   H348      1.0  0.22398  0.05726  0.81063  1.0000
  H   H349      1.0  0.22366  0.01946  0.82576  1.0000
  H   H350      1.0  0.15711  0.04651  0.84762  1.0000
  H   H351      1.0  0.15791  0.08461  0.83267  1.0000
  C   C438      1.0  0.24222  0.19909  0.77379  1.0000
  C   C439      1.0  0.23880  0.22257  0.76816  1.0000
  C   C440      1.0  0.23851  0.23954  0.77602  1.0000
  C   C441      1.0  0.24256  0.23322  0.78953  1.0000
  C   C442      1.0  0.24664  0.20962  0.79514  1.0000
  C   C443      1.0  0.24625  0.19257  0.78733  1.0000
  H   H352      1.0  0.23626  0.22771  0.75765  1.0000
  H   H353      1.0  0.23503  0.25754  0.77159  1.0000
  H   H354      1.0  0.24982  0.20454  0.80558  1.0000
  H   H355      1.0  0.24909  0.17447  0.79177  1.0000
  C   C444      1.0  0.37979  0.06869  0.76472  1.0000
  C   C445      1.0  0.37400  0.05277  0.77629  1.0000
  C   C446      1.0  0.35083  0.05375  0.78270  1.0000
  C   C447      1.0  0.33296  0.07051  0.77758  1.0000
  C   C448      1.0  0.33849  0.08635  0.76583  1.0000
  C   C449      1.0  0.36198  0.08557  0.75945  1.0000
  H   H356      1.0  0.38759  0.03972  0.78043  1.0000
  H   H357      1.0  0.34675  0.04146  0.79174  1.0000
  H   H358      1.0  0.32474  0.09928  0.76187  1.0000
  H   H359      1.0  0.36635  0.09811  0.75061  1.0000
  H   H360      1.0  0.14540  0.27787  0.74701  1.0000
  C   C450      1.0  0.15738  0.10239  0.75015  1.0000
  S   S72       1.0  0.11475  0.09234  0.96089  1.0000
  C   C451      1.0  0.36932  0.24057  0.74595  1.0000
  H   H361      1.0  0.17659  0.15495  0.74625  1.0000
  H   H362      1.0  0.00438  0.04775  0.97278  1.0000
  C   C452      1.0  0.99674  0.00305  0.90360  1.0000
  C   C453      1.0  0.31536  0.21456  0.79557  1.0000
  C   C454      1.0  0.23951  0.08813  0.83199  1.0000
  C   C455      1.0  0.12621  0.04548  0.91167  1.0000
  C   C456      1.0  0.14956  0.03521  0.91226  1.0000
  C   C457      1.0  0.16294  0.04402  0.91942  1.0000
  C   C458      1.0  0.15302  0.06312  0.92608  1.0000
  C   C459      1.0  0.12965  0.07333  0.92555  1.0000
  C   C460      1.0  0.11636  0.06460  0.91831  1.0000
  H   H363      1.0  0.15734  0.02052  0.90721  1.0000
  H   H364      1.0  0.18095  0.03590  0.91988  1.0000
  H   H365      1.0  0.12187  0.08816  0.93057  1.0000
  H   H366      1.0  0.09850  0.07292  0.91767  1.0000
  H   H367      1.0  0.09482  0.00302  0.83761  1.0000
  C   C461      1.0  0.08306  0.20462  0.74912  1.0000
  H   H368      1.0  0.04897  0.08258  0.92782  1.0000
  H   H369      1.0  0.08394  0.20619  0.96248  1.0000
  H   H370      1.0  0.05385  0.27832  0.96788  1.0000
  C   C462      1.0  0.32821  0.02599  0.75780  1.0000
  C   C463      1.0  0.09661  0.16813  0.74067  1.0000
  C   C464      1.0  0.00731  0.12407  0.95754  1.0000
  C   C465      1.0  0.02448  0.28853  0.89730  1.0000
  H   H371      1.0  0.15593  0.30694  0.92189  1.0000
  H   H372      1.0  0.14365  0.10740  0.75827  1.0000
  H   H373      1.0  0.18492  0.09918  0.76195  1.0000
  H   H374      1.0  0.08940  0.28901  0.92279  1.0000
  C   C466      1.0  0.40091  0.29285  0.83456  1.0000
  P   P16       1.0  0.33010  0.21965  0.75405  1.0000
  C   C467      1.0  0.32068  0.22673  0.77101  1.0000
  C   C468      1.0  0.32407  0.19203  0.75272  1.0000
  C   C469      1.0  0.30626  0.18246  0.76175  1.0000
  C   C470      1.0  0.30157  0.16125  0.76026  1.0000
  C   C471      1.0  0.18119  0.28400  0.82690  1.0000
  H   H375      1.0  0.16290  0.99255  0.93248  1.0000
  C   C472      1.0  0.40871  0.27486  0.82687  1.0000
  C   C473      1.0  0.36112  0.21963  0.75012  1.0000
  C   C474      1.0  0.37733  0.19875  0.75143  1.0000
  C   C475      1.0  0.23396  0.99770  0.89618  1.0000
  H   H376      1.0  0.29573  0.19140  0.76980  1.0000
  H   H377      1.0  0.28801  0.15378  0.76737  1.0000
  H   H378      1.0  0.11986  0.31183  0.91185  1.0000
  C   C476      1.0  0.27248  0.02558  0.74740  1.0000
  C   C477      1.0  0.20370  0.21870  0.73993  1.0000
  H   H379      1.0  0.48310  0.29947  0.74320  1.0000
  H   H380      1.0  0.37162  0.18234  0.75502  1.0000
  H   H381      1.0  0.31004  0.13373  0.74831  1.0000
  C   C478      1.0  0.00026  0.29162  0.90104  1.0000
  C   C479      1.0  0.00095  0.04652  0.96282  1.0000
  H   H382      1.0  0.16179  0.25083  0.96980  1.0000
  C   C480      1.0  0.41803  0.31860  0.77900  1.0000
  C   C481      1.0  0.37314  0.24789  0.78312  1.0000
  H   H383      1.0  0.09541  0.27093  0.97035  1.0000
  C   C482      1.0  0.02195  0.21635  0.96554  1.0000
  C   C483      1.0  0.14526  0.09716  0.88786  1.0000
  C   C484      1.0  0.13219  0.08391  0.88354  1.0000
  C   C485      1.0  0.14347  0.06502  0.87710  1.0000
  C   C486      1.0  0.16779  0.05889  0.87533  1.0000
  C   C487      1.0  0.18107  0.07172  0.87998  1.0000
  C   C488      1.0  0.16963  0.09139  0.88586  1.0000
  P   P17       1.0  0.21257  0.06406  0.87730  1.0000
  C   C489      1.0  0.22083  0.03289  0.88097  1.0000
  C   C490      1.0  0.22327  0.07378  0.85962  1.0000
  C   C491      1.0  0.24494  0.06284  0.85336  1.0000
  C   C492      1.0  0.21818  0.09939  0.83822  1.0000
  C   C493      1.0  0.21001  0.09224  0.85196  1.0000
  C   C494      1.0  0.22743  0.02181  0.89360  1.0000
  C   C495      1.0  0.06640  0.02436  0.93608  1.0000
  H   H384      1.0  0.12201  0.31265  0.75218  1.0000
  C   C496      1.0  0.12909  0.01538  0.95296  1.0000
  C   C497      1.0  0.22075  0.01939  0.87107  1.0000
  C   C498      1.0  0.22471  0.07728  0.88832  1.0000
  C   C499      1.0  0.21456  0.07711  0.90207  1.0000
  C   C500      1.0  0.22366  0.08752  0.91061  1.0000
  C   C501      1.0  0.24304  0.09810  0.90553  1.0000
  C   C502      1.0  0.25336  0.09826  0.89189  1.0000
  C   C503      1.0  0.24426  0.08789  0.88330  1.0000
  H   H385      1.0  0.13651  0.11164  0.89301  1.0000
  H   H386      1.0  0.11329  0.08782  0.88552  1.0000
  H   H387      1.0  0.13331  0.05463  0.87388  1.0000
  H   H388      1.0  0.17604  0.04407  0.87040  1.0000
  H   H389      1.0  0.17935  0.10221  0.88906  1.0000
  H   H390      1.0  0.25553  0.04865  0.85907  1.0000
  H   H391      1.0  0.20770  0.11332  0.83224  1.0000
  H   H392      1.0  0.19325  0.10097  0.85649  1.0000
  H   H393      1.0  0.22760  0.03158  0.90149  1.0000
  C   C504      1.0  0.05769  0.00310  0.86668  1.0000
  C   C505      1.0  0.20855  0.18315  0.98265  1.0000
  C   C506      1.0  0.31397  0.14996  0.74949  1.0000
  H   H394      1.0  0.21569  0.02743  0.86126  1.0000
  H   H395      1.0  0.19946  0.06910  0.90621  1.0000
  H   H396      1.0  0.21550  0.08745  0.92118  1.0000
  H   H397      1.0  0.24999  0.10622  0.91217  1.0000
  H   H398      1.0  0.26838  0.10649  0.88794  1.0000
  H   H399      1.0  0.25248  0.08831  0.87277  1.0000
  H   H400      1.0  0.03278  0.03502  0.86740  1.0000
  C   C507      1.0  0.04922  0.11680  0.96784  1.0000
  H   H401      1.0  0.04602  0.02275  0.97200  1.0000
  C   C508      1.0  0.07524  0.04471  0.95242  1.0000
  H   H402      1.0  0.29228  0.27159  0.78765  1.0000
  C   C509      1.0  0.01637  0.00720  0.86553  1.0000
  H   H403      1.0  0.03360  0.18126  0.96167  1.0000
  C   C510      1.0  0.13301  0.24815  0.75931  1.0000
  C   C511      1.0  0.12902  0.22590  0.75950  1.0000
  C   C512      1.0  0.02830  0.25030  0.91095  1.0000
  H   H404      1.0  0.16616  0.26696  0.86091  1.0000
  H   H405      1.0  0.27335  0.03872  0.75324  1.0000
  H   H406      1.0  0.33251  0.19203  0.78110  1.0000
  H   H407      1.0  0.01141  0.14562  0.90334  1.0000
  C   C513      1.0  0.11632  0.99911  0.96117  1.0000
  C   C514      1.0  0.00374  0.06471  0.95209  1.0000
  C   C515      1.0  0.13432  0.21608  0.74748  1.0000
  H   H408      1.0  0.12945  0.25549  0.76865  1.0000
  H   H409      1.0  0.12214  0.21626  0.76908  1.0000
  H   H410      1.0  0.03231  0.30229  0.89066  1.0000
  C   C516      1.0  0.10777  0.24249  0.89107  1.0000
  H   H411      1.0  0.42901  0.03439  0.73770  1.0000
  C   C517      1.0  0.04717  0.27699  0.93528  1.0000
  Fe  Fe36      1.0  0.16088  0.99510  0.86457  1.0000
  H   H412      1.0  0.38722  0.03372  0.74490  1.0000
  H   H413      1.0  0.35692  0.27859  0.79148  1.0000
  C   C518      1.0  0.15065  0.01721  0.95592  1.0000
  H   H414      1.0  0.12360  0.12137  0.78594  1.0000
  C   C519      1.0  0.12615  0.15023  0.76961  1.0000
  H   H415      1.0  0.05009  0.04585  0.91956  1.0000
  C   C520      1.0  0.19865  0.09132  0.74174  1.0000
  C   C521      1.0  0.10785  0.08770  0.82866  1.0000
  H   H416      1.0  0.01661  0.29472  0.92633  1.0000
  H   H417      1.0  0.19225  0.21063  0.74827  1.0000
  H   H418      1.0  0.33630  0.28729  0.77055  1.0000
  P   P18       1.0  0.13019  0.30813  0.86416  1.0000
  C   C522      1.0  0.41427  0.24451  0.77405  1.0000
  C   C523      1.0  0.33610  0.18078  0.74181  1.0000
  H   H419      1.0  0.11042  0.15386  0.73817  1.0000
  C   C524      1.0  0.15884  0.00710  0.82157  1.0000
  H   H420      1.0  0.17300  0.16314  0.78771  1.0000
  H   H421      1.0  0.11861  0.11618  0.83442  1.0000
  H   H422      1.0  0.12582  0.05736  0.77187  1.0000
  P   P19       1.0  0.13090  0.18667  0.74796  1.0000
  C   C525      1.0  0.15346  0.98671  0.82971  1.0000
  C   C526      1.0  0.33983  0.99620  0.77638  1.0000
  H   H423      1.0  0.42778  0.21970  0.74023  1.0000
  H   H424      1.0  0.22043  0.21339  0.97115  1.0000
  C   C527      1.0  0.38890  0.31875  0.81457  1.0000
  H   H425      1.0  0.10644  0.10436  0.85920  1.0000
  H   H426      1.0  0.35724  0.25694  0.74538  1.0000
  H   H427      1.0  0.31697  0.04208  0.75454  1.0000
  C   C528      1.0  0.11229  0.26730  0.86912  1.0000
  C   C529      1.0  0.15442  0.17354  0.77048  1.0000
  H   H428      1.0  0.02401  0.14509  0.94030  1.0000
  H   H429      1.0  0.00986  0.07957  0.95364  1.0000
  H   H430      1.0  0.35713  0.24107  0.78506  1.0000
  C   C530      1.0  0.02598  0.04782  0.83564  1.0000
  C   C531      1.0  0.01840  0.18027  0.90067  1.0000
  C   C532      1.0  0.18037  0.03616  0.73675  1.0000
  H   H431      1.0  0.43012  0.23503  0.76897  1.0000
  H   H432      1.0  0.01661  0.18780  0.94083  1.0000
  H   H433      1.0  0.11871  0.25361  0.90747  1.0000
  C   C533      1.0  0.11681  0.19834  0.92763  1.0000
  C   C534      1.0  0.09775  0.18976  0.92569  1.0000
  C   C535      1.0  0.07506  0.20123  0.92962  1.0000
  C   C536      1.0  0.07136  0.22121  0.93556  1.0000
  C   C537      1.0  0.09042  0.23012  0.93737  1.0000
  C   C538      1.0  0.11318  0.21834  0.93351  1.0000
  P   P20       1.0  0.08617  0.25324  0.94719  1.0000
  C   C539      1.0  0.10801  0.27068  0.93934  1.0000
  C   C540      1.0  0.05781  0.27179  0.94705  1.0000
  H   H434      1.0  0.08136  0.25348  0.73531  1.0000
  C   C541      1.0  0.40127  0.19877  0.74783  1.0000
  H   H435      1.0  0.25798  0.26585  0.73861  1.0000
  C   C542      1.0  0.06334  0.29445  0.75618  1.0000
  C   C543      1.0  0.04630  0.28161  0.95864  1.0000
  C   C544      1.0  0.12869  0.26775  0.94475  1.0000
  C   C545      1.0  0.14589  0.28071  0.93845  1.0000
  C   C546      1.0  0.14274  0.29654  0.92657  1.0000
  C   C547      1.0  0.12239  0.29931  0.92095  1.0000
  C   C548      1.0  0.10505  0.28645  0.92729  1.0000
  C   C549      1.0  0.08948  0.24003  0.96454  1.0000
  C   C550      1.0  0.08721  0.21680  0.96918  1.0000
  H   H436      1.0  0.00592  0.02317  0.83341  1.0000
  C   C551      1.0  0.36076  0.99479  0.75345  1.0000
  C   C552      1.0  0.15181  0.10057  0.73760  1.0000
  C   C553      1.0  0.09387  0.25298  0.97363  1.0000
  H   H437      1.0  0.13440  0.18881  0.92524  1.0000
  H   H438      1.0  0.10053  0.17359  0.92179  1.0000
  H   H439      1.0  0.06040  0.19376  0.92876  1.0000
  H   H440      1.0  0.05372  0.22900  0.93933  1.0000
  H   H441      1.0  0.12817  0.22385  0.93569  1.0000
  C   C554      1.0  0.39332  0.24050  0.74248  1.0000
  H   H442      1.0  0.31158  0.02511  0.77873  1.0000
  H   H443      1.0  0.00877  0.25240  0.96646  1.0000
  Fe  Fe37      1.0  0.10276  0.13028  0.95457  1.0000
  S   S73       1.0  0.06944  0.14459  0.94603  1.0000
  H   H444      1.0  0.09932  0.23533  0.87269  1.0000
  H   H445      1.0  0.26939  0.06115  0.83466  1.0000
  Fe  Fe38      1.0  0.14608  0.14371  0.96034  1.0000
  C   C555      1.0  0.10385  0.09429  0.85198  1.0000
  C   C556      1.0  0.16562  0.27762  0.85098  1.0000
  C   C557      1.0  0.04673  0.13098  0.95529  1.0000
  C   C558      1.0  0.06548  0.06580  0.94524  1.0000
  C   C559      1.0  0.32392  0.20951  0.78240  1.0000
  C   C560      1.0  0.15988  0.00261  0.96686  1.0000
  H   H446      1.0  0.30714  0.29904  0.74255  1.0000
  H   H447      1.0  0.06546  0.11375  0.97182  1.0000
  C   C561      1.0  0.15960  0.15983  0.78276  1.0000
  H   H448      1.0  0.07475  0.11447  0.78481  1.0000
  C   C562      1.0  0.20621  0.24148  0.73955  1.0000
  H   H449      1.0  0.28106  0.24178  0.75564  1.0000
  C   C563      1.0  0.00255  0.22435  0.94133  1.0000
  C   C564      1.0  0.03851  0.26789  0.90227  1.0000
  H   H450      1.0  0.20478  0.17778  0.97378  1.0000
  C   C565      1.0  0.27647  0.25977  0.73559  1.0000
  C   C566      1.0  0.06309  0.02293  0.81984  1.0000
  H   H451      1.0  0.01543  0.30294  0.96761  1.0000
  C   C567      1.0  0.06905  0.98924  0.97300  1.0000
  H   H452      1.0  0.12254  0.02673  0.94426  1.0000
  H   H453      1.0  0.11416  0.09264  0.81795  1.0000
  H   H454      1.0  0.16741  0.22321  0.95349  1.0000
  H   H455      1.0  0.41642  0.25786  0.83163  1.0000
  C   C568      1.0  0.04781  0.05449  0.83275  1.0000
  C   C569      1.0  0.06668  0.04175  0.82507  1.0000
  C   C570      1.0  0.11057  0.10102  0.83800  1.0000
  H   H456      1.0  0.31707  0.20102  0.80432  1.0000
  H   H457      1.0  0.06685  0.00862  0.93220  1.0000
  H   H458      1.0  0.04984  0.06943  0.83663  1.0000
  C   C571      1.0  0.09782  0.06783  0.83326  1.0000
  H   H459      1.0  0.12282  0.03665  0.79551  1.0000
  C   C572      1.0  0.18078  0.09781  0.75222  1.0000
  C   C573      1.0  0.23456  0.25241  0.97400  1.0000
  C   C574      1.0  0.30153  0.25437  0.78617  1.0000
  P   P21       1.0  0.09515  0.04976  0.82150  1.0000
  Fe  Fe39      1.0  0.12624  0.10295  0.97829  1.0000
  C   C575      1.0  0.11266  0.05386  0.79346  1.0000
  C   C576      1.0  0.09430  0.07426  0.85664  1.0000
  S   S74       1.0  0.16201  0.17614  0.95672  1.0000
  C   C577      1.0  0.12303  0.27771  0.88876  1.0000
  C   C578      1.0  0.12073  0.28285  0.87487  1.0000
  C   C579      1.0  0.13718  0.16923  0.76399  1.0000
  H   H460      1.0  0.16413  0.18727  0.76603  1.0000
  C   C580      1.0  0.09792  0.06443  0.80402  1.0000
  C   C581      1.0  0.11422  0.06541  0.77998  1.0000
  C   C582      1.0  0.39513  0.03075  0.73466  1.0000
  C   C583      1.0  0.09139  0.06102  0.84732  1.0000
  H   H461      1.0  0.08949  0.06872  0.86750  1.0000
  H   H462      1.0  0.29627  0.31032  0.77445  1.0000
  H   H463      1.0  0.19670  0.25113  0.74756  1.0000
  H   H464      1.0  0.15280  0.13024  0.79770  1.0000
  C   C584      1.0  0.21332  0.26062  0.96903  1.0000
  C   C585      1.0  0.09144  0.30656  0.73684  1.0000
  H   H465      1.0  0.19365  0.25422  0.84098  1.0000
  C   C586      1.0  0.11770  0.02460  0.82416  1.0000
  S   S75       1.0  0.19057  0.00290  0.84781  1.0000
  C   C587      1.0  0.04980  0.00553  0.97766  1.0000
  C   C588      1.0  0.31006  0.24939  0.77300  1.0000
  H   H466      1.0  0.27173  0.25278  0.96974  1.0000
  H   H467      1.0  0.05586  0.27002  0.92617  1.0000
  C   C589      1.0  0.10066  0.08727  0.77688  1.0000
  H   H468      1.0  0.10179  0.09604  0.76638  1.0000
  H   H469      1.0  0.08436  0.04530  0.85109  1.0000
  H   H470      1.0  0.07212  0.09444  0.80871  1.0000
  C   C590      1.0  0.13173  0.13629  0.78176  1.0000
  C   C591      1.0  0.08410  0.08628  0.80078  1.0000
  C   C592      1.0  0.06051  0.20473  0.74679  1.0000
  C   C593      1.0  0.08549  0.09765  0.78727  1.0000
  H   H471      1.0  0.03936  0.23449  0.91483  1.0000
  H   H472      1.0  0.08260  0.04473  0.96140  1.0000
  H   H473      1.0  0.41360  0.18254  0.74828  1.0000
  S   S76       1.0  0.11110  0.14080  0.97290  1.0000
  H   H474      1.0  0.30789  0.26317  0.76442  1.0000
  C   C594      1.0  0.10135  0.18644  0.74590  1.0000
  S   S77       1.0  0.12363  0.30061  0.97582  1.0000
  C   C595      1.0  0.34603  0.01515  0.74858  1.0000
  C   C596      1.0  0.07409  0.16821  0.73842  1.0000
  H   H475      1.0  0.43047  0.27247  0.77550  1.0000
  C   C597      1.0  0.15729  0.19522  0.96875  1.0000
  S   S78       1.0  0.37724  0.29581  0.75200  1.0000
  C   C598      1.0  0.18126  0.27035  0.83975  1.0000
  C   C599      1.0  0.30392  0.23693  0.79744  1.0000
  C   C600      1.0  0.07574  0.02380  0.94792  1.0000
  H   H476      1.0  0.05731  0.26562  0.89946  1.0000
  C   C601      1.0  0.05604  0.18658  0.74140  1.0000
  H   H477      1.0  0.28906  0.99736  0.76102  1.0000
  C   C602      1.0  0.10568  0.24730  0.87722  1.0000
  C   C603      1.0  0.01043  0.23844  0.96072  1.0000
  H   H478      1.0  0.29641  0.24070  0.80758  1.0000
  H   H479      1.0  0.23244  0.29121  0.93850  1.0000
  C   C604      1.0  0.21262  0.27444  0.95625  1.0000
  C   C605      1.0  0.28976  0.24659  0.74535  1.0000
  C   C606      1.0  0.15035  0.17456  0.73407  1.0000
  C   C607      1.0  0.00393  0.25298  0.91447  1.0000
  H   H480      1.0  0.27033  0.27672  0.94706  1.0000
  H   H481      1.0  0.03865  0.18675  0.73946  1.0000
  C   C608      1.0  0.02508  0.29106  0.93529  1.0000
  C   C609      1.0  0.14968  0.29864  0.84942  1.0000
  H   H482      1.0  0.02929  0.21331  0.97491  1.0000
  H   H483      1.0  0.27299  0.20380  0.97930  1.0000
  S   S79       1.0  0.22813  0.08638  0.74378  1.0000
  H   H484      1.0  0.16025  0.03004  0.94975  1.0000
  C   C610      1.0  0.00110  0.24254  0.94857  1.0000
  C   C611      1.0  0.33188  0.30380  0.76423  1.0000
  H   H485      1.0  0.19348  0.27847  0.81820  1.0000
  Fe  Fe40      1.0  0.23262  0.29101  0.78819  1.0000
  H   H486      1.0  0.39359  0.21908  0.77385  1.0000
  S   S80       1.0  0.12248  0.10686  0.73504  1.0000
  C   C612      1.0  0.11248  0.00424  0.83266  1.0000
  H   H487      1.0  0.11107  0.27057  0.85833  1.0000
  C   C613      1.0  0.00946  0.11049  0.97029  1.0000
  P   P22       1.0  0.08846  0.99661  0.95730  1.0000
  C   C614      1.0  0.16551  0.30496  0.82528  1.0000
  H   H488      1.0  0.13040  0.28878  0.89335  1.0000
  C   C615      1.0  0.21723  0.20357  0.98125  1.0000
  H   H489      1.0  0.08621  0.21878  0.75328  1.0000
  C   C616      1.0  0.01439  0.20220  0.94623  1.0000
  C   C617      1.0  0.14112  0.02614  0.81904  1.0000
  C   C618      1.0  0.04124  0.01625  0.82281  1.0000
  S   S81       1.0  0.19569  0.30249  0.78433  1.0000
  C   C619      1.0  0.02413  0.19831  0.95820  1.0000
  H   H490      1.0  0.03865  0.00139  0.81905  1.0000
  H   H491      1.0  0.23905  0.98929  0.90592  1.0000
  C   C620      1.0  0.16182  0.21774  0.96423  1.0000
  H   H492      1.0  0.21564  0.03261  0.73986  1.0000
  C   C621      1.0  0.01356  0.30008  0.94702  1.0000
  C   C622      1.0  0.39369  0.23551  0.77679  1.0000
  H   H493      1.0  0.00764  0.29321  0.78118  1.0000
  C   C623      1.0  0.14829  0.14120  0.78838  1.0000
  C   C624      1.0  0.32506  0.01640  0.77162  1.0000
  H   H494      1.0  0.01160  0.05716  0.84196  1.0000
  Fe  Fe41      1.0  0.42171  0.08955  0.73827  1.0000
  C   C625      1.0  0.25446  0.27203  0.95317  1.0000
  C   C626      1.0  0.23316  0.28016  0.94831  1.0000
  H   H495      1.0  0.11362  0.14581  0.76452  1.0000
  S   S82       1.0  0.20317  0.30156  0.74541  1.0000
  C   C627      1.0  0.31395  0.23949  0.74185  1.0000
  H   H496      1.0  0.41282  0.26462  0.80723  1.0000
  C   C628      1.0  0.14195  0.26084  0.74709  1.0000
  C   C629      1.0  0.02275  0.02859  0.83080  1.0000
  C   C630      1.0  0.15892  0.23333  0.97347  1.0000
  H   H497      1.0  0.19604  0.28123  0.95266  1.0000
  H   H498      1.0  0.10303  0.22680  0.89731  1.0000
  H   H499      1.0  0.07729  0.01320  0.81364  1.0000
  H   H500      1.0  0.19721  0.25670  0.97525  1.0000
  H   H501      1.0  0.39962  0.25663  0.73913  1.0000
  C   C631      1.0  0.39359  0.27872  0.78379  1.0000
  H   H502      1.0  0.17322  0.03987  0.74695  1.0000
  C   C632      1.0  0.25518  0.25830  0.96601  1.0000
  C   C633      1.0  0.41431  0.26591  0.77765  1.0000
  C   C634      1.0  0.37310  0.26931  0.78670  1.0000
  H   H503      1.0  0.99617  0.31031  0.94726  1.0000
  C   C635      1.0  0.01338  0.20109  0.90591  1.0000
  C   C636      1.0  0.40658  0.27875  0.81303  1.0000
  Fe  Fe42      1.0  0.21173  0.31430  0.76294  1.0000
  C   C637      1.0  0.15049  0.18814  0.98269  1.0000
  C   C638      1.0  0.26224  0.03199  0.73555  1.0000
  C   C639      1.0  0.40926  0.21965  0.74328  1.0000
  H   H504      1.0  0.99895  0.07871  0.93134  1.0000
  C   C640      1.0  0.08935  0.20682  0.98266  1.0000
  C   C641      1.0  0.99754  0.20345  0.91801  1.0000
  C   C642      1.0  0.99794  0.06406  0.93946  1.0000
  H   H505      1.0  0.04651  0.21900  0.74903  1.0000
  C   C643      1.0  0.34887  0.31222  0.75398  1.0000
  P   P23       1.0  0.39372  0.30599  0.78896  1.0000
  S   S83       1.0  0.17487  0.30314  0.98297  1.0000
  C   C644      1.0  0.39650  0.30071  0.80681  1.0000
  C   C645      1.0  0.07640  0.31117  0.74889  1.0000
  H   H506      1.0  0.15489  0.31210  0.76395  1.0000
  H   H507      1.0  0.17982  0.31099  0.86289  1.0000
  H   H508      1.0  0.05159  0.29745  0.76548  1.0000
  H   H509      1.0  0.11049  0.02967  0.97982  1.0000
  C   C646      1.0  0.00750  0.16177  0.90737  1.0000
  H   H510      1.0  0.08081  0.30612  0.86304  1.0000
  H   H511      1.0  0.02176  0.21518  0.90039  1.0000
  H   H512      1.0  0.03075  0.17843  0.89139  1.0000
  C   C647      1.0  0.18061  0.31640  0.73637  1.0000
  C   C648      1.0  0.17119  0.15922  0.73628  1.0000
  C   C649      1.0  0.14260  0.22928  0.73516  1.0000
  H   H513      1.0  0.34704  0.30950  0.80528  1.0000
  H   H514      1.0  0.16567  0.31564  0.81533  1.0000
  C   C650      1.0  0.14645  0.25154  0.73500  1.0000
  H   H515      1.0  0.41102  0.31379  0.75961  1.0000
  C   C651      1.0  0.39104  0.31480  0.82841  1.0000
  H   H516      1.0  0.06213  0.14740  0.98193  1.0000
  H   H517      1.0  0.07079  0.15407  0.73420  1.0000
  C   C652      1.0  0.30921  0.31672  0.76639  1.0000
  H   H518      1.0  0.01977  0.15689  0.98246  1.0000
  Fe  Fe43      1.0  0.39666  0.61459  0.18173  1.0000
  S   S84       1.0  0.41315  0.60931  0.16059  1.0000
  C   C653      1.0  0.16126  0.53421  0.99083  1.0000
  Fe  Fe44      1.0  0.38711  0.58633  0.16214  1.0000
  S   S85       1.0  0.36961  0.59323  0.14339  1.0000
  Fe  Fe45      1.0  0.16153  0.50029  0.02613  1.0000
  S   S86       1.0  0.17164  0.47582  0.04488  1.0000
  S   S87       1.0  0.19016  0.51193  0.00987  1.0000
  Fe  Fe46      1.0  0.10986  0.50393  0.03627  1.0000
  S   S88       1.0  0.11555  0.48012  0.05573  1.0000
  S   S89       1.0  0.07473  0.52010  0.03000  1.0000
  Fe  Fe47      1.0  0.14371  0.49975  0.05643  1.0000
  S   S90       1.0  0.14406  0.51255  0.07626  1.0000
  Fe  Fe48      1.0  0.14291  0.45829  0.04248  1.0000
  S   S91       1.0  0.14238  0.41969  0.04644  1.0000
  S   S92       1.0  0.13570  0.52544  0.03780  1.0000
  S   S93       1.0  0.13511  0.48094  0.02287  1.0000
  Fe  Fe49      1.0  0.20103  0.59573  0.12980  1.0000
  S   S94       1.0  0.22164  0.56019  0.12832  1.0000
  S   S95       1.0  0.16860  0.60140  0.14509  1.0000
  Fe  Fe50      1.0  0.23587  0.61960  0.10935  1.0000
  S   S96       1.0  0.26005  0.58586  0.10629  1.0000
  C   C654      1.0  0.18380  0.52886  0.99431  1.0000
  Fe  Fe51      1.0  0.22721  0.57278  0.10576  1.0000
  S   S97       1.0  0.22859  0.55070  0.08953  1.0000
  Fe  Fe52      1.0  0.25232  0.57615  0.12907  1.0000
  S   S98       1.0  0.27536  0.55861  0.14491  1.0000
  S   S99       1.0  0.20367  0.60737  0.10715  1.0000
  S   S100      1.0  0.23105  0.61083  0.13206  1.0000
  H   H519      1.0  0.46550  0.59613  0.18452  1.0000
  C   C655      1.0  0.31692  0.55303  0.20556  1.0000
  H   H520      1.0  0.27337  0.40970  0.15859  1.0000
  H   H521      1.0  0.03666  0.44575  0.04062  1.0000
  C   C656      1.0  0.30165  0.62687  0.23252  1.0000
  C   C657      1.0  0.45410  0.50772  0.22838  1.0000
  C   C658      1.0  0.16793  0.52246  0.08003  1.0000
  C   C659      1.0  0.16525  0.53216  0.09198  1.0000
  C   C660      1.0  0.18351  0.54114  0.09500  1.0000
  C   C661      1.0  0.20485  0.54003  0.08619  1.0000
  C   C662      1.0  0.20769  0.52983  0.07443  1.0000
  C   C663      1.0  0.18936  0.52106  0.07138  1.0000
  H   H522      1.0  0.14882  0.53305  0.09883  1.0000
  H   H523      1.0  0.18116  0.54876  0.10414  1.0000
  H   H524      1.0  0.22419  0.52865  0.06762  1.0000
  H   H525      1.0  0.19186  0.51299  0.06240  1.0000
  C   C664      1.0  0.05066  0.50877  0.03967  1.0000
  C   C665      1.0  0.04837  0.50348  0.05389  1.0000
  C   C666      1.0  0.02867  0.49491  0.06142  1.0000
  C   C667      1.0  0.22452  0.56472  0.23151  1.0000
  C   C668      1.0  0.03315  0.50566  0.03302  1.0000
  H   H526      1.0  0.06178  0.50594  0.05910  1.0000
  H   H527      1.0  0.02695  0.49076  0.07242  1.0000
  C   C669      1.0  0.18184  0.57230  0.18871  1.0000
  H   H528      1.0  0.03486  0.50975  0.02202  1.0000
  C   C670      1.0  0.10604  0.42859  0.00880  1.0000
  C   C671      1.0  0.10087  0.41345  0.02084  1.0000
  H   H529      1.0  0.30046  0.48873  0.15889  1.0000
  S   S101      1.0  0.17779  0.35245  0.00217  1.0000
  H   H530      1.0  0.26570  0.51934  0.11658  1.0000
  H   H531      1.0  0.18232  0.45473  0.99751  1.0000
  C   C672      1.0  0.05688  0.57912  0.00369  1.0000
  H   H532      1.0  0.24039  0.50855  0.13801  1.0000
  H   H533      1.0  0.23515  0.64349  0.21984  1.0000
  H   H534      1.0  0.39647  0.61403  0.11737  1.0000
  C   C673      1.0  0.16616  0.37186  0.01396  1.0000
  C   C674      1.0  0.15054  0.36599  0.02571  1.0000
  C   C675      1.0  0.14359  0.38072  0.03563  1.0000
  C   C676      1.0  0.15145  0.40185  0.03364  1.0000
  C   C677      1.0  0.16670  0.40793  0.02176  1.0000
  C   C678      1.0  0.17437  0.39276  0.01209  1.0000
  H   H535      1.0  0.13194  0.37583  0.04484  1.0000
  H   H536      1.0  0.17312  0.42397  0.02025  1.0000
  H   H537      1.0  0.18681  0.39719  0.00316  1.0000
  C   C679      1.0  0.34390  0.58282  0.14376  1.0000
  C   C680      1.0  0.33127  0.59063  0.13285  1.0000
  C   C681      1.0  0.31028  0.58315  0.13308  1.0000
  C   C682      1.0  0.30193  0.56772  0.14419  1.0000
  C   C683      1.0  0.31497  0.55935  0.15492  1.0000
  C   C684      1.0  0.33595  0.56684  0.15467  1.0000
  H   H538      1.0  0.33772  0.60255  0.12423  1.0000
  H   H539      1.0  0.30059  0.58921  0.12464  1.0000
  H   H540      1.0  0.30890  0.54708  0.16344  1.0000
  H   H541      1.0  0.34620  0.56011  0.16278  1.0000
  H   H542      1.0  0.00713  0.57520  0.18605  1.0000
  C   C685      1.0  0.29653  0.56139  0.21392  1.0000
  H   H543      1.0  0.13922  0.60264  0.17058  1.0000
  C   C686      1.0  0.48391  0.58938  0.18233  1.0000
  Fe  Fe53      1.0  0.43509  0.57789  0.17068  1.0000
  C   C687      1.0  0.19654  0.57870  0.16436  1.0000
  C   C688      1.0  0.17439  0.59054  0.16175  1.0000
  C   C689      1.0  0.15624  0.59344  0.17260  1.0000
  H   H544      1.0  0.21082  0.57658  0.15603  1.0000
  C   C690      1.0  0.44739  0.59054  0.12951  1.0000
  C   C691      1.0  0.42627  0.59172  0.12500  1.0000
  C   C692      1.0  0.41296  0.61322  0.12074  1.0000
  H   H545      1.0  0.18169  0.64623  0.04778  1.0000
  C   C693      1.0  0.08815  0.54127  0.99445  1.0000
  C   C694      1.0  0.45502  0.61086  0.13000  1.0000
  C   C695      1.0  0.06339  0.52903  0.18898  1.0000
  H   H546      1.0  0.36492  0.61973  0.22679  1.0000
  C   C696      1.0  0.44110  0.63258  0.12644  1.0000
  C   C697      1.0  0.13885  0.52752  0.21185  1.0000
  C   C698      1.0  0.14908  0.52920  0.19814  1.0000
  H   H547      1.0  0.10170  0.39501  0.98603  1.0000
  C   C699      1.0  0.06519  0.55206  0.18337  1.0000
  H   H548      1.0  0.20636  0.62248  0.16510  1.0000
  H   H549      1.0  0.06103  0.63706  0.04856  1.0000
  C   C700      1.0  0.05250  0.32403  0.99394  1.0000
  C   C701      1.0  0.99776  0.41970  0.06361  1.0000
  C   C702      1.0  0.15441  0.64689  0.01041  1.0000
  C   C703      1.0  0.20583  0.64678  0.06098  1.0000
  C   C704      1.0  0.03766  0.36792  0.04228  1.0000
  H   H550      1.0  0.15413  0.64270  0.16559  1.0000
  C   C705      1.0  0.22755  0.63624  0.21312  1.0000
  H   H551      1.0  0.10584  0.51289  0.14112  1.0000
  H   H552      1.0  0.45767  0.57387  0.13290  1.0000
  H   H553      1.0  0.41996  0.57601  0.12501  1.0000
  C   C706      1.0  0.04367  0.32824  0.05413  1.0000
  C   C707      1.0  0.29507  0.64663  0.17435  1.0000
  C   C708      1.0  0.26372  0.64672  0.15230  1.0000
  H   H554      1.0  0.45550  0.49161  0.22465  1.0000
  H   H555      1.0  0.46525  0.63041  0.15198  1.0000
  C   C709      1.0  0.47913  0.63957  0.14670  1.0000
  C   C710      1.0  0.24396  0.61448  0.16248  1.0000
  C   C711      1.0  0.08704  0.62903  0.16242  1.0000
  C   C712      1.0  0.10056  0.53314  0.15732  1.0000
  C   C713      1.0  0.11126  0.54611  0.19125  1.0000
  C   C714      1.0  0.01125  0.49161  0.05474  1.0000
  H   H556      1.0  0.46733  0.63563  0.22150  1.0000
  H   H557      1.0  0.23926  0.59936  0.07667  1.0000
  C   C715      1.0  0.10746  0.55088  0.16201  1.0000
  C   C716      1.0  0.08342  0.42787  0.05733  1.0000
  C   C717      1.0  0.04853  0.56058  0.00099  1.0000
  H   H558      1.0  0.15464  0.51122  0.15907  1.0000
  C   C718      1.0  0.13618  0.60298  0.99145  1.0000
  C   C719      1.0  0.10161  0.40035  0.99569  1.0000
  S   S102      1.0  0.18647  0.56113  0.20562  1.0000
  H   H559      1.0  0.23010  0.58678  0.20042  1.0000
  C   C720      1.0  0.18337  0.48425  0.16431  1.0000
  H   H560      1.0  0.00961  0.43160  0.06245  1.0000
  S   S103      1.0  0.36866  0.59441  0.18255  1.0000
  H   H561      1.0  0.02154  0.35003  0.99289  1.0000
  C   C721      1.0  0.26787  0.53473  0.18761  1.0000
  C   C722      1.0  0.26457  0.45148  0.18486  1.0000
  H   H562      1.0  0.46675  0.55662  0.20449  1.0000
  H   H563      1.0  0.13984  0.65148  0.18915  1.0000
  H   H564      1.0  0.34025  0.64180  0.19150  1.0000
  S   S104      1.0  0.16940  0.60569  0.23012  1.0000
  H   H565      1.0  0.12603  0.57431  0.02391  1.0000
  C   C723      1.0  0.20686  0.47898  0.16608  1.0000
  H   H566      1.0  0.04706  0.60688  0.20307  1.0000
  H   H567      1.0  0.27600  0.42105  0.19892  1.0000
  C   C724      1.0  0.25887  0.50661  0.13813  1.0000
  C   C725      1.0  0.09618  0.60083  0.18694  1.0000
  H   H568      1.0  0.31931  0.63004  0.22923  1.0000
  C   C726      1.0  0.43261  0.54606  0.23143  1.0000
  C   C727      1.0  0.20669  0.61878  0.19575  1.0000
  H   H569      1.0  0.14952  0.56388  0.13511  1.0000
  H   H570      1.0  0.10028  0.52642  0.99113  1.0000
  C   C728      1.0  0.02861  0.33181  0.99368  1.0000
  C   C729      1.0  0.33145  0.64622  0.15870  1.0000
  H   H571      1.0  0.13097  0.57543  0.15724  1.0000
  H   H572      1.0  0.29401  0.55356  0.22452  1.0000
  S   S105      1.0  0.37949  0.54465  0.21130  1.0000
  H   H573      1.0  0.07724  0.59504  0.21814  1.0000
  C   C730      1.0  0.10104  0.54402  0.20506  1.0000
  H   H574      1.0  0.01413  0.55407  0.03083  1.0000
  H   H575      1.0  0.30249  0.60954  0.21581  1.0000
  H   H576      1.0  0.00549  0.61209  0.15834  1.0000
  C   C731      1.0  0.05025  0.40988  0.04814  1.0000
  H   H577      1.0  0.23323  0.59025  0.03475  1.0000
  C   C732      1.0  0.23481  0.61295  0.21128  1.0000
  C   C733      1.0  0.30553  0.58235  0.18676  1.0000
  H   H578      1.0  0.27574  0.63440  0.12774  1.0000
  H   H579      1.0  0.00204  0.59633  0.03083  1.0000
  H   H580      1.0  0.13714  0.53252  0.12692  1.0000
  C   C734      1.0  0.18572  0.61837  0.01932  1.0000
  C   C735      1.0  0.28504  0.59077  0.19510  1.0000
  H   H581      1.0  0.33769  0.55732  0.18580  1.0000
  C   C736      1.0  0.15169  0.44954  0.99081  1.0000
  C   C737      1.0  0.29239  0.63936  0.12332  1.0000
  S   S106      1.0  0.38673  0.64844  0.18943  1.0000
  C   C738      1.0  0.06595  0.62122  0.04421  1.0000
  H   H582      1.0  0.04018  0.50501  0.19786  1.0000
  H   H583      1.0  0.14391  0.54089  0.17741  1.0000
  H   H584      1.0  0.28045  0.54604  0.18604  1.0000
  C   C739      1.0  0.26312  0.44506  0.16211  1.0000
  H   H585      1.0  0.47164  0.60923  0.13329  1.0000
  P   P24       1.0  0.02806  0.39848  0.04285  1.0000
  C   C740      1.0  0.33100  0.64353  0.18299  1.0000
  C   C741      1.0  0.04475  0.56868  0.18225  1.0000
  H   H586      1.0  0.02999  0.56065  0.00247  1.0000
  P   P25       1.0  0.09189  0.60153  0.00661  1.0000
  C   C742      1.0  0.01364  0.65092  0.22079  1.0000
  C   C743      1.0  0.21557  0.59860  0.06313  1.0000
  C   C744      1.0  0.19923  0.61159  0.05493  1.0000
  C   C745      1.0  0.10727  0.42177  0.99613  1.0000
  C   C746      1.0  0.17233  0.58366  0.99955  1.0000
  C   C747      1.0  0.02289  0.56224  0.18658  1.0000
  H   H587      1.0  0.05767  0.52710  0.99464  1.0000
  C   C748      1.0  0.03615  0.35192  0.05442  1.0000
  H   H588      1.0  0.17339  0.47053  0.16587  1.0000
  C   C749      1.0  0.13541  0.58134  0.01433  1.0000
  H   H589      1.0  0.44833  0.53694  0.19115  1.0000
  H   H590      1.0  0.37784  0.59368  0.20976  1.0000
  C   C750      1.0  0.09613  0.39178  0.02033  1.0000
  H   H591      1.0  0.42863  0.62748  0.20345  1.0000
  H   H592      1.0  0.32971  0.53890  0.20970  1.0000
  C   C751      1.0  0.42428  0.62413  0.21446  1.0000
  H   H593      1.0  0.20304  0.60816  0.01750  1.0000
  P   P26       1.0  0.25695  0.59405  0.22039  1.0000
  C   C752      1.0  0.25185  0.53314  0.19964  1.0000
  C   C753      1.0  0.09680  0.62443  0.18508  1.0000
  C   C754      1.0  0.26459  0.62315  0.15766  1.0000
  C   C755      1.0  0.36370  0.60165  0.22976  1.0000
  C   C756      1.0  0.30713  0.64807  0.16089  1.0000
  C   C757      1.0  0.21987  0.49673  0.16397  1.0000
  H   H594      1.0  0.10114  0.41836  0.03056  1.0000
  S   S107      1.0  0.41022  0.55406  0.17091  1.0000
  C   C758      1.0  0.30700  0.50148  0.13745  1.0000
  C   C759      1.0  0.15991  0.58432  0.18598  1.0000
  C   C760      1.0  0.08391  0.40406  0.05973  1.0000
  C   C761      1.0  0.37099  0.58681  0.22002  1.0000
  C   C762      1.0  0.26753  0.52194  0.17746  1.0000
  S   S108      1.0  0.47347  0.57005  0.16218  1.0000
  H   H595      1.0  0.29757  0.64325  0.19565  1.0000
  C   C763      1.0  0.01354  0.49700  0.04053  1.0000
  C   C764      1.0  0.15976  0.57545  0.01201  1.0000
  C   C765      1.0  0.00905  0.43838  0.00138  1.0000
  H   H596      1.0  0.99551  0.32228  0.99381  1.0000
  H   H597      1.0  0.21734  0.56024  0.17980  1.0000
  C   C766      1.0  0.20022  0.56945  0.17783  1.0000
  H   H598      1.0  0.14717  0.52756  0.99785  1.0000
  H   H599      1.0  0.10962  0.44530  0.00946  1.0000
  H   H600      1.0  0.21466  0.46113  0.16910  1.0000
  H   H601      1.0  0.00019  0.49450  0.03532  1.0000
  C   C767      1.0  0.32147  0.56354  0.19203  1.0000
  C   C768      1.0  0.99843  0.56340  0.02683  1.0000
  C   C769      1.0  0.09628  0.38533  0.00776  1.0000
  H   H602      1.0  0.04828  0.37176  0.02032  1.0000
  H   H603      1.0  0.14442  0.34976  0.02736  1.0000
  C   C770      1.0  0.28040  0.58035  0.20878  1.0000
  C   C771      1.0  0.07412  0.62202  0.03022  1.0000
  C   C772      1.0  0.12884  0.53762  0.13668  1.0000
  C   C773      1.0  0.02115  0.41352  0.02637  1.0000
  H   H604      1.0  0.21521  0.57236  0.22310  1.0000
  C   C774      1.0  0.20901  0.51972  0.16032  1.0000
  H   H605      1.0  0.27981  0.52380  0.16818  1.0000
  C   C775      1.0  0.04997  0.43383  0.04575  1.0000
  P   P27       1.0  0.25009  0.49081  0.16630  1.0000
  H   H606      1.0  0.06681  0.46100  0.04806  1.0000
  H   H607      1.0  0.10114  0.63164  0.19311  1.0000
  C   C776      1.0  0.13581  0.55526  0.14128  1.0000
  C   C777      1.0  0.02122  0.53935  0.19218  1.0000
  H   H608      1.0  0.19817  0.61184  0.18933  1.0000
  C   C778      1.0  0.11482  0.53488  0.21530  1.0000
  H   H609      1.0  0.21886  0.53358  0.15872  1.0000
  H   H610      1.0  0.17754  0.54276  0.15547  1.0000
  C   C779      1.0  0.17278  0.50720  0.16048  1.0000
  C   C780      1.0  0.27230  0.42775  0.18865  1.0000
  H   H611      1.0  0.30828  0.51541  0.11606  1.0000
  C   C781      1.0  0.18561  0.52493  0.15848  1.0000
  C   C782      1.0  0.27326  0.51253  0.12583  1.0000
  H   H612      1.0  0.04551  0.58668  0.17838  1.0000
  C   C783      1.0  0.32263  0.64259  0.10364  1.0000
  C   C784      1.0  0.29266  0.49541  0.14974  1.0000
  H   H613      1.0  0.14549  0.58587  0.19409  1.0000
  C   C785      1.0  0.17227  0.61639  0.03236  1.0000
  C   C786      1.0  0.24492  0.57186  0.23287  1.0000
  H   H614      1.0  0.09267  0.36851  0.00735  1.0000
  C   C787      1.0  0.07050  0.57956  0.04703  1.0000
  H   H615      1.0  0.26259  0.46282  0.19230  1.0000
  C   C788      1.0  0.24239  0.55610  0.02948  1.0000
  C   C789      1.0  0.23471  0.53563  0.02945  1.0000
  C   C790      1.0  0.21171  0.53346  0.03492  1.0000
  C   C791      1.0  0.19631  0.55173  0.04038  1.0000
  C   C792      1.0  0.20377  0.57245  0.04039  1.0000
  C   C793      1.0  0.22699  0.57447  0.03488  1.0000
  P   P28       1.0  0.18371  0.59693  0.04655  1.0000
  C   C794      1.0  0.15949  0.58768  0.05861  1.0000
  C   C795      1.0  0.03087  0.43814  0.00476  1.0000
  C   C796      1.0  0.06416  0.54159  0.99649  1.0000
  C   C797      1.0  0.07891  0.58030  0.03312  1.0000
  C   C798      1.0  0.00197  0.40231  0.05543  1.0000
  C   C799      1.0  0.43568  0.60420  0.22190  1.0000
  C   C800      1.0  0.04690  0.35987  0.02986  1.0000
  C   C801      1.0  0.15708  0.58928  0.07251  1.0000
  C   C802      1.0  0.13803  0.58243  0.08165  1.0000
  C   C803      1.0  0.12162  0.57335  0.07707  1.0000
  C   C804      1.0  0.12384  0.57180  0.06326  1.0000
  C   C805      1.0  0.14244  0.57932  0.05403  1.0000
  H   H616      1.0  0.23068  0.64214  0.07480  1.0000
  H   H617      1.0  0.08418  0.56419  0.02905  1.0000
  C   C806      1.0  0.08359  0.62932  0.99639  1.0000
  H   H618      1.0  0.22249  0.51817  0.21068  1.0000
  C   C807      1.0  0.06741  0.39505  0.05517  1.0000
  C   C808      1.0  0.08101  0.57886  0.00171  1.0000
  H   H619      1.0  0.26030  0.55769  0.02534  1.0000
  H   H620      1.0  0.24652  0.52136  0.02524  1.0000
  H   H621      1.0  0.20579  0.51751  0.03496  1.0000
  H   H622      1.0  0.17877  0.54926  0.04469  1.0000
  H   H623      1.0  0.14964  0.52103  0.21979  1.0000
  H   H624      1.0  0.21925  0.57987  0.06428  1.0000
  C   C809      1.0  0.40687  0.63957  0.22117  1.0000
  H   H625      1.0  0.04462  0.59342  0.00753  1.0000
  H   H626      1.0  0.16889  0.56372  0.01964  1.0000
  H   H627      1.0  0.08272  0.59821  0.15605  1.0000
  H   H628      1.0  0.04294  0.44796  0.99791  1.0000
  H   H629      1.0  0.08376  0.63992  0.15286  1.0000
  H   H630      1.0  0.10773  0.56665  0.08428  1.0000
  H   H631      1.0  0.11170  0.56384  0.05983  1.0000
  H   H632      1.0  0.14394  0.57791  0.04339  1.0000
  S   S109      1.0  0.12443  0.59744  0.21786  1.0000
  H   H633      1.0  0.00419  0.53465  0.19582  1.0000
  H   H634      1.0  0.13934  0.62919  0.04435  1.0000
  S   S110      1.0  0.42083  0.58532  0.19187  1.0000
  C   C810      1.0  0.09169  0.59097  0.17641  1.0000
  H   H635      1.0  0.09736  0.39264  0.06499  1.0000
  C   C811      1.0  0.22693  0.60961  0.07019  1.0000
  H   H636      1.0  0.32558  0.49988  0.13721  1.0000
  H   H637      1.0  0.09268  0.37987  0.02967  1.0000
  C   C812      1.0  0.26837  0.49861  0.15027  1.0000
  C   C813      1.0  0.29727  0.51021  0.12552  1.0000
  H   H638      1.0  0.24471  0.59613  0.16622  1.0000
  H   H639      1.0  0.06917  0.56298  0.05345  1.0000
  H   H640      1.0  0.28123  0.61141  0.15790  1.0000
  H   H641      1.0  0.49224  0.60197  0.19906  1.0000
  C   C814      1.0  0.08649  0.60538  0.16426  1.0000
  C   C815      1.0  0.36939  0.56339  0.22357  1.0000
  Fe  Fe54      1.0  0.39381  0.56464  0.19139  1.0000
  C   C816      1.0  0.25115  0.50741  0.17928  1.0000
  C   C817      1.0  0.03697  0.42565  0.01716  1.0000
  P   P29       1.0  0.09363  0.56002  0.17817  1.0000
  C   C818      1.0  0.25979  0.46027  0.17157  1.0000
  S   S111      1.0  0.99947  0.60223  0.20686  1.0000
  H   H642      1.0  0.19116  0.57853  0.99769  1.0000
  H   H643      1.0  0.10005  0.59023  0.19643  1.0000
  C   C819      1.0  0.27084  0.42134  0.16594  1.0000
  C   C820      1.0  0.14988  0.63008  0.03433  1.0000
  H   H644      1.0  0.25974  0.45157  0.15177  1.0000
  C   C821      1.0  0.12524  0.56179  0.15387  1.0000
  C   C822      1.0  0.12343  0.59539  0.00413  1.0000
  H   H645      1.0  0.07895  0.51599  0.19013  1.0000
  H   H646      1.0  0.06823  0.37655  0.05719  1.0000
  H   H647      1.0  0.07511  0.63863  0.02396  1.0000
  C   C823      1.0  0.23483  0.50622  0.19132  1.0000
  H   H648      1.0  0.42088  0.52246  0.22181  1.0000
  C   C824      1.0  0.27540  0.41268  0.17921  1.0000
  H   H649      1.0  0.11509  0.55888  0.99593  1.0000
  H   H650      1.0  0.22162  0.49560  0.19284  1.0000
  H   H651      1.0  0.28145  0.39431  0.18216  1.0000
  H   H652      1.0  0.10491  0.64627  0.00496  1.0000
  H   H653      1.0  0.47008  0.50137  0.18243  1.0000
  H   H654      1.0  0.05794  0.59934  0.06345  1.0000
  C   C825      1.0  0.07002  0.63171  0.98605  1.0000
  Fe  Fe55      1.0  0.15973  0.57760  0.22171  1.0000
  H   H655      1.0  0.16693  0.65160  0.22848  1.0000
  C   C826      1.0  0.09653  0.55980  0.99710  1.0000
  H   H656      1.0  0.09630  0.43481  0.06081  1.0000
  C   C827      1.0  0.23532  0.51891  0.20149  1.0000
  H   H657      1.0  0.25198  0.54316  0.20746  1.0000
  C   C828      1.0  0.09247  0.63851  0.17277  1.0000
  C   C829      1.0  0.06416  0.60000  0.05261  1.0000
  C   C830      1.0  0.08081  0.60149  0.02457  1.0000
  H   H658      1.0  0.05382  0.42589  0.01959  1.0000
  C   C831      1.0  0.22144  0.65264  0.15641  1.0000
  H   H659      1.0  0.48451  0.64584  0.10403  1.0000
  C   C832      1.0  0.06669  0.44267  0.05018  1.0000
  C   C833      1.0  0.19942  0.64178  0.19775  1.0000
  C   C834      1.0  0.22466  0.60454  0.20222  1.0000
  H   H660      1.0  0.02923  0.35779  0.06413  1.0000
  H   H661      1.0  0.43069  0.64472  0.17059  1.0000
  C   C835      1.0  0.11124  0.52656  0.14471  1.0000
  C   C836      1.0  0.13540  0.53866  0.18788  1.0000
  C   C837      1.0  0.30158  0.63580  0.10994  1.0000
  H   H662      1.0  0.08690  0.52440  0.16328  1.0000
  C   C838      1.0  0.22205  0.63368  0.06915  1.0000
  S   S112      1.0  0.07093  0.34421  0.99196  1.0000
  C   C839      1.0  0.02108  0.59099  0.21741  1.0000
  C   C840      1.0  0.14098  0.64519  0.02338  1.0000
  H   H663      1.0  0.27329  0.60580  0.19096  1.0000
  H   H664      1.0  0.44915  0.59245  0.21653  1.0000
  C   C841      1.0  0.04148  0.52272  0.19336  1.0000
  H   H665      1.0  0.01259  0.65099  0.19965  1.0000
  C   C842      1.0  0.46580  0.52973  0.19339  1.0000
  C   C843      1.0  0.01661  0.57716  0.23009  1.0000
  C   C844      1.0  0.04332  0.59665  0.21299  1.0000
  H   H666      1.0  0.13669  0.58304  0.09241  1.0000
  H   H667      1.0  0.08253  0.55011  0.20798  1.0000
  H   H668      1.0  0.17002  0.59530  0.07647  1.0000
  H   H669      1.0  0.15174  0.43282  0.99717  1.0000
  H   H670      1.0  0.29212  0.62801  0.10441  1.0000
  H   H671      1.0  0.16783  0.52413  0.19549  1.0000
  C   C845      1.0  0.34321  0.64450  0.16968  1.0000
  H   H672      1.0  0.32960  0.63985  0.09325  1.0000
  Fe  Fe56      1.0  0.13306  0.62418  0.22769  1.0000
  C   C846      1.0  0.09335  0.64814  0.99758  1.0000
  C   C847      1.0  0.47806  0.50960  0.18852  1.0000
  H   H673      1.0  0.36197  0.64349  0.16790  1.0000
  C   C848      1.0  0.22237  0.62927  0.16187  1.0000
  H   H674      1.0  0.34146  0.64639  0.14861  1.0000
  H   H675      1.0  0.30937  0.59074  0.17630  1.0000
  C   C849      1.0  0.06057  0.58975  0.22145  1.0000
  H   H676      1.0  0.18721  0.63488  0.99834  1.0000
  C   C850      1.0  0.99998  0.39248  0.98418  1.0000
  H   H677      1.0  0.00763  0.39493  0.99257  1.0000
  H   H678      1.0  0.06334  0.61724  0.98433  1.0000
  C   C851      1.0  0.43461  0.52518  0.22669  1.0000
  H   H679      1.0  0.08743  0.48727  0.98392  1.0000
  H   H680      1.0  0.99667  0.57233  0.16389  1.0000
  C   C852      1.0  0.30698  0.64420  0.18533  1.0000
  C   C853      1.0  0.20217  0.53690  0.98508  1.0000
  C   C854      1.0  0.42037  0.63356  0.12139  1.0000
  C   C855      1.0  0.05451  0.33615  0.02965  1.0000
  H   H681      1.0  0.41703  0.55912  0.23033  1.0000
  H   H682      1.0  0.21963  0.53264  0.98766  1.0000
  C   C856      1.0  0.29194  0.61526  0.22493  1.0000
  Fe  Fe57      1.0  0.15619  0.33060  0.99566  1.0000
  C   C857      1.0  0.16934  0.46168  0.99082  1.0000
  H   H683      1.0  0.10690  0.53399  0.22595  1.0000
  H   H684      1.0  0.40969  0.65007  0.11818  1.0000
  C   C858      1.0  0.47624  0.54084  0.20090  1.0000
  C   C859      1.0  0.26929  0.61051  0.22943  1.0000
  H   H685      1.0  0.27631  0.64822  0.17634  1.0000
  C   C860      1.0  0.16055  0.59739  0.98926  1.0000
  H   H686      1.0  0.99549  0.64918  0.22379  1.0000
  C   C861      1.0  0.19440  0.63581  0.05389  1.0000
  H   H687      1.0  0.49021  0.57210  0.22649  1.0000
  C   C862      1.0  0.21007  0.65056  0.20629  1.0000
  Fe  Fe58      1.0  0.10887  0.32753  0.98932  1.0000
  C   C863      1.0  0.17679  0.63357  0.00840  1.0000
  C   C864      1.0  0.99990  0.41272  0.02250  1.0000
  C   C865      1.0  0.30431  0.64963  0.13059  1.0000
  C   C866      1.0  0.49255  0.57685  0.17155  1.0000
  H   H688      1.0  0.06167  0.32992  0.02009  1.0000
  H   H689      1.0  0.00404  0.44861  0.99198  1.0000
  H   H690      1.0  0.18546  0.65276  0.19275  1.0000
  C   C867      1.0  0.02724  0.65233  0.23045  1.0000
  C   C868      1.0  0.02319  0.65239  0.20699  1.0000
  C   C869      1.0  0.05285  0.32035  0.04174  1.0000
  H   H691      1.0  0.47604  0.57934  0.44547  1.0000
  C   C870      1.0  0.33900  0.62333  0.35003  1.0000
  S   S113      1.0  0.40073  0.34141  0.42912  1.0000
  H   H692      1.0  0.39943  0.54637  0.29900  1.0000
  H   H693      1.0  0.44243  0.54325  0.29490  1.0000
  H   H694      1.0  0.35972  0.61547  0.40753  1.0000
  C   C871      1.0  0.46915  0.54489  0.45256  1.0000
  P   P30       1.0  0.47540  0.58818  0.41599  1.0000
  C   C872      1.0  0.35935  0.32629  0.46069  1.0000
  C   C873      1.0  0.47162  0.51108  0.23488  1.0000
  S   S114      1.0  0.11699  0.60997  0.24857  1.0000
  Fe  Fe59      1.0  0.15289  0.58913  0.25041  1.0000
  S   S115      1.0  0.16405  0.58849  0.27068  1.0000
  C   C874      1.0  0.21802  0.64554  0.29144  1.0000
  S   S116      1.0  0.07785  0.56695  0.24485  1.0000
  C   C875      1.0  0.46673  0.61523  0.42255  1.0000
  C   C876      1.0  0.35950  0.36255  0.46805  1.0000
  S   S117      1.0  0.29028  0.58810  0.31181  1.0000
  Fe  Fe60      1.0  0.32568  0.60155  0.27554  1.0000
  S   S118      1.0  0.32608  0.56539  0.28663  1.0000
  S   S119      1.0  0.34633  0.61283  0.25507  1.0000
  Fe  Fe61      1.0  0.28731  0.57731  0.29212  1.0000
  S   S120      1.0  0.26207  0.55455  0.29100  1.0000
  Fe  Fe62      1.0  0.32920  0.57954  0.30517  1.0000
  S   S121      1.0  0.35969  0.56498  0.31692  1.0000
  S   S122      1.0  0.28683  0.61255  0.27978  1.0000
  S   S123      1.0  0.33147  0.61513  0.29350  1.0000
  Fe  Fe63      1.0  0.43589  0.51728  0.38623  1.0000
  S   S124      1.0  0.40116  0.53652  0.39496  1.0000
  S   S125      1.0  0.45744  0.53973  0.37067  1.0000
  Fe  Fe64      1.0  0.42452  0.47016  0.40056  1.0000
  S   S126      1.0  0.38869  0.48578  0.40992  1.0000
  S   S127      1.0  0.44310  0.43312  0.40587  1.0000
  Fe  Fe65      1.0  0.38674  0.50852  0.38937  1.0000
  S   S128      1.0  0.35391  0.51893  0.37953  1.0000
  Fe  Fe66      1.0  0.40639  0.51244  0.41447  1.0000
  C   C877      1.0  0.42507  0.41560  0.45088  1.0000
  S   S129      1.0  0.42120  0.49042  0.37954  1.0000
  S   S130      1.0  0.44245  0.49574  0.40621  1.0000
  C   C878      1.0  0.32005  0.61181  0.33386  1.0000
  H   H695      1.0  0.43064  0.43214  0.44814  1.0000
  C   C879      1.0  0.03424  0.56954  0.23838  1.0000
  C   C880      1.0  0.42971  0.32254  0.48202  1.0000
  P   P31       1.0  0.36324  0.39236  0.46361  1.0000
  C   C881      1.0  0.29879  0.62495  0.33881  1.0000
  H   H696      1.0  0.39385  0.57571  0.36361  1.0000
  H   H697      1.0  0.48890  0.64266  0.27865  1.0000
  P   P32       1.0  0.44607  0.57505  0.24572  1.0000
  C   C882      1.0  0.36008  0.55503  0.23699  1.0000
  H   H698      1.0  0.42832  0.58094  0.41586  1.0000
  C   C883      1.0  0.47410  0.65291  0.42430  1.0000
  H   H699      1.0  0.28100  0.64720  0.35338  1.0000
  C   C884      1.0  0.46422  0.52520  0.44905  1.0000
  C   C885      1.0  0.21560  0.54751  0.24124  1.0000
  H   H700      1.0  0.41163  0.64701  0.26356  1.0000
  H   H701      1.0  0.48231  0.36061  0.38428  1.0000
  H   H702      1.0  0.48503  0.40163  0.38367  1.0000
  H   H703      1.0  0.43349  0.60746  0.43341  1.0000
  H   H704      1.0  0.48042  0.33863  0.46260  1.0000
  H   H705      1.0  0.40223  0.59676  0.29962  1.0000
  C   C886      1.0  0.48011  0.44450  0.43335  1.0000
  C   C887      1.0  0.35438  0.42214  0.43928  1.0000
  H   H706      1.0  0.37685  0.56182  0.27996  1.0000
  C   C888      1.0  0.35743  0.55221  0.33435  1.0000
  C   C889      1.0  0.37796  0.54430  0.34017  1.0000
  C   C890      1.0  0.37709  0.53425  0.35400  1.0000
  C   C891      1.0  0.35562  0.53186  0.36214  1.0000
  C   C892      1.0  0.33505  0.53993  0.35636  1.0000
  C   C893      1.0  0.33591  0.55010  0.34252  1.0000
  H   H707      1.0  0.39465  0.54587  0.33392  1.0000
  H   H708      1.0  0.39304  0.52816  0.35833  1.0000
  H   H709      1.0  0.31836  0.53819  0.36258  1.0000
  H   H710      1.0  0.31997  0.55615  0.33818  1.0000
  C   C894      1.0  0.35456  0.59339  0.24318  1.0000
  C   C895      1.0  0.35258  0.57003  0.24678  1.0000
  C   C896      1.0  0.35912  0.35100  0.48155  1.0000
  H   H711      1.0  0.21317  0.64111  0.33061  1.0000
  Fe  Fe67      1.0  0.41140  0.61527  0.47144  1.0000
  H   H712      1.0  0.35045  0.56960  0.46788  1.0000
  H   H713      1.0  0.34548  0.56345  0.25710  1.0000
  C   C897      1.0  0.28900  0.63358  0.24466  1.0000
  C   C898      1.0  0.10800  0.64587  0.31771  1.0000
  C   C899      1.0  0.46031  0.47469  0.34408  1.0000
  H   H714      1.0  0.41594  0.53223  0.45847  1.0000
  H   H715      1.0  0.44748  0.35119  0.42395  1.0000
  C   C900      1.0  0.40700  0.56778  0.26508  1.0000
  H   H716      1.0  0.34093  0.55985  0.39328  1.0000
  H   H717      1.0  0.35620  0.60050  0.33540  1.0000
  C   C901      1.0  0.19299  0.57812  0.27385  1.0000
  C   C902      1.0  0.20969  0.59260  0.27047  1.0000
  C   C903      1.0  0.23122  0.58561  0.27546  1.0000
  C   C904      1.0  0.23588  0.56429  0.28400  1.0000
  C   C905      1.0  0.21933  0.54979  0.28709  1.0000
  C   C906      1.0  0.19795  0.55674  0.28217  1.0000
  H   H718      1.0  0.20566  0.60946  0.26439  1.0000
  H   H719      1.0  0.24408  0.59669  0.27281  1.0000
  H   H720      1.0  0.22280  0.53328  0.29364  1.0000
  H   H721      1.0  0.18493  0.54578  0.28518  1.0000
  C   C907      1.0  0.41187  0.36724  0.42262  1.0000
  C   C908      1.0  0.43567  0.36711  0.42136  1.0000
  C   C909      1.0  0.44440  0.38764  0.41680  1.0000
  C   C910      1.0  0.42988  0.40853  0.41269  1.0000
  C   C911      1.0  0.40590  0.40888  0.41382  1.0000
  C   C912      1.0  0.39690  0.38827  0.41888  1.0000
  H   H722      1.0  0.46258  0.38717  0.41653  1.0000
  H   H723      1.0  0.39441  0.42485  0.41067  1.0000
  H   H724      1.0  0.37841  0.38852  0.41973  1.0000
  C   C913      1.0  0.39906  0.61609  0.33485  1.0000
  H   H725      1.0  0.31843  0.64944  0.31218  1.0000
  C   C914      1.0  0.36190  0.61879  0.38571  1.0000
  C   C915      1.0  0.29748  0.63697  0.34956  1.0000
  C   C916      1.0  0.05728  0.61735  0.28073  1.0000
  H   H726      1.0  0.17938  0.64403  0.28297  1.0000
  H   H727      1.0  0.46281  0.54364  0.41525  1.0000
  H   H728      1.0  0.49118  0.45303  0.38117  1.0000
  C   C917      1.0  0.49182  0.58049  0.23476  1.0000
  C   C918      1.0  0.42788  0.47337  0.46318  1.0000
  C   C919      1.0  0.45030  0.54969  0.23779  1.0000
  C   C920      1.0  0.39757  0.61408  0.29411  1.0000
  C   C921      1.0  0.21402  0.64216  0.31973  1.0000
  C   C922      1.0  0.06135  0.61013  0.26802  1.0000
  C   C923      1.0  0.46431  0.54438  0.42566  1.0000
  C   C924      1.0  0.31000  0.48100  0.47100  1.0000
  C   C925      1.0  0.45852  0.59139  0.40241  1.0000
  H   H729      1.0  0.36920  0.62412  0.30975  1.0000
  S   S131      1.0  0.44312  0.58738  0.47318  1.0000
  C   C926      1.0  0.35946  0.35003  0.45768  1.0000
  H   H730      1.0  0.42273  0.59540  0.37332  1.0000
  H   H731      1.0  0.31713  0.41495  0.47622  1.0000
  H   H732      1.0  0.48681  0.47088  0.44313  1.0000
  H   H733      1.0  0.48444  0.60445  0.38630  1.0000
  H   H734      1.0  0.44320  0.47937  0.34095  1.0000
  C   C927      1.0  0.49210  0.38830  0.39146  1.0000
  H   H735      1.0  0.45733  0.50995  0.43292  1.0000
  H   H736      1.0  0.19970  0.54234  0.24018  1.0000
  H   H737      1.0  0.46201  0.60598  0.36787  1.0000
  H   H738      1.0  0.43541  0.48162  0.45332  1.0000
  H   H739      1.0  0.35872  0.53695  0.23984  1.0000
  H   H740      1.0  0.46135  0.59980  0.26376  1.0000
  H   H741      1.0  0.45964  0.39588  0.44641  1.0000
  C   C928      1.0  0.31745  0.63592  0.35529  1.0000
  C   C929      1.0  0.02726  0.64889  0.27305  1.0000
  C   C930      1.0  0.45456  0.60091  0.37839  1.0000
  H   H742      1.0  0.23578  0.60849  0.31908  1.0000
  C   C931      1.0  0.47566  0.59609  0.25566  1.0000
  C   C932      1.0  0.03182  0.64214  0.26011  1.0000
  H   H743      1.0  0.23895  0.61435  0.24508  1.0000
  C   C933      1.0  0.32346  0.40164  0.45109  1.0000
  H   H744      1.0  0.99959  0.57246  0.23352  1.0000
  H   H745      1.0  0.31618  0.64520  0.36368  1.0000
  C   C934      1.0  0.30575  0.49537  0.48091  1.0000
  C   C935      1.0  0.37121  0.65112  0.35564  1.0000
  C   C936      1.0  0.38643  0.58772  0.43721  1.0000
  C   C937      1.0  0.46897  0.56438  0.42914  1.0000
  H   H746      1.0  0.13114  0.63517  0.29995  1.0000
  H   H747      1.0  0.34776  0.44436  0.42043  1.0000
  H   H748      1.0  0.06711  0.60762  0.28865  1.0000
  C   C938      1.0  0.40490  0.56884  0.45677  1.0000
  C   C939      1.0  0.41020  0.37311  0.45620  1.0000
  H   H749      1.0  0.36770  0.46014  0.47139  1.0000
  C   C940      1.0  0.26624  0.62946  0.24902  1.0000
  C   C941      1.0  0.11624  0.64756  0.30373  1.0000
  S   S132      1.0  0.40259  0.51842  0.43616  1.0000
  H   H750      1.0  0.42555  0.61166  0.31729  1.0000
  C   C942      1.0  0.34670  0.57637  0.39120  1.0000
  H   H751      1.0  0.40990  0.56927  0.46638  1.0000
  C   C943      1.0  0.40722  0.48470  0.47009  1.0000
  C   C944      1.0  0.40945  0.62070  0.28110  1.0000
  H   H752      1.0  0.38671  0.64659  0.24046  1.0000
  H   H753      1.0  0.25641  0.63465  0.25845  1.0000
  H   H754      1.0  0.48466  0.46099  0.40459  1.0000
  C   C945      1.0  0.48942  0.42371  0.42832  1.0000
  H   H755      1.0  0.29287  0.40803  0.44134  1.0000
  C   C946      1.0  0.40046  0.58401  0.35357  1.0000
  P   P33       1.0  0.36470  0.62245  0.35733  1.0000
  H   H756      1.0  0.34659  0.57766  0.41233  1.0000
  C   C947      1.0  0.39393  0.58897  0.44938  1.0000
  C   C948      1.0  0.35740  0.60765  0.39918  1.0000
  C   C949      1.0  0.35360  0.40595  0.47870  1.0000
  H   H757      1.0  0.38921  0.43059  0.45664  1.0000
  C   C950      1.0  0.42780  0.44040  0.48124  1.0000
  H   H758      1.0  0.46207  0.45252  0.43268  1.0000
  C   C951      1.0  0.25640  0.61794  0.24144  1.0000
  C   C952      1.0  0.05620  0.57605  0.23414  1.0000
  C   C953      1.0  0.34993  0.58639  0.40191  1.0000
  C   C954      1.0  0.46172  0.52498  0.43562  1.0000
  C   C955      1.0  0.30992  0.41219  0.44088  1.0000
  H   H759      1.0  0.35308  0.52745  0.47071  1.0000
  C   C956      1.0  0.43258  0.55044  0.28658  1.0000
  C   C957      1.0  0.43585  0.58648  0.40544  1.0000
  C   C958      1.0  0.31858  0.42774  0.42990  1.0000
  H   H760      1.0  0.32115  0.60228  0.32565  1.0000
  C   C959      1.0  0.42907  0.58191  0.33307  1.0000
  C   C960      1.0  0.22689  0.62383  0.31324  1.0000
  H   H761      1.0  0.36045  0.35845  0.44714  1.0000
  H   H762      1.0  0.49411  0.43709  0.47833  1.0000
  C   C961      1.0  0.46743  0.59954  0.38886  1.0000
  C   C962      1.0  0.38985  0.60622  0.34800  1.0000
  C   C963      1.0  0.41998  0.57197  0.34611  1.0000
  C   C964      1.0  0.40028  0.54608  0.44035  1.0000
  H   H763      1.0  0.07408  0.59468  0.26619  1.0000
  C   C965      1.0  0.37190  0.65136  0.29248  1.0000
  C   C966      1.0  0.49047  0.36524  0.39183  1.0000
  C   C967      1.0  0.38976  0.56626  0.43263  1.0000
  H   H764      1.0  0.05164  0.61604  0.24811  1.0000
  C   C968      1.0  0.46769  0.48940  0.35085  1.0000
  H   H765      1.0  0.45634  0.50549  0.35298  1.0000
  H   H766      1.0  0.03073  0.55887  0.24820  1.0000
  H   H767      1.0  0.30827  0.43569  0.42187  1.0000
  H   H768      1.0  0.45467  0.44269  0.46374  1.0000
  C   C969      1.0  0.43126  0.56688  0.26273  1.0000
  C   C970      1.0  0.22695  0.53723  0.25239  1.0000
  C   C971      1.0  0.24729  0.54411  0.25381  1.0000
  C   C972      1.0  0.25616  0.56143  0.24418  1.0000
  H   H769      1.0  0.37789  0.60327  0.43142  1.0000
  C   C973      1.0  0.44497  0.62002  0.43075  1.0000
  C   C974      1.0  0.42287  0.58825  0.39499  1.0000
  S   S133      1.0  0.38894  0.61544  0.45560  1.0000
  H   H770      1.0  0.38373  0.56521  0.42337  1.0000
  C   C975      1.0  0.48943  0.48314  0.35527  1.0000
  H   H771      1.0  0.40718  0.61228  0.25372  1.0000
  C   C976      1.0  0.47480  0.45376  0.34160  1.0000
  H   H772      1.0  0.44417  0.57240  0.32736  1.0000
  H   H773      1.0  0.48707  0.35966  0.43903  1.0000
  C   C977      1.0  0.04864  0.62239  0.25775  1.0000
  C   C978      1.0  0.39561  0.56077  0.27816  1.0000
  H   H774      1.0  0.21976  0.52425  0.26008  1.0000
  H   H775      1.0  0.25592  0.53639  0.26259  1.0000
  H   H776      1.0  0.27174  0.56671  0.24567  1.0000
  H   H777      1.0  0.29605  0.47992  0.46574  1.0000
  H   H778      1.0  0.40565  0.58380  0.39738  1.0000
  C   C979      1.0  0.41860  0.60397  0.32743  1.0000
  C   C980      1.0  0.40149  0.41468  0.45540  1.0000
  C   C981      1.0  0.34079  0.43268  0.42911  1.0000
  H   H779      1.0  0.40495  0.35647  0.45774  1.0000
  C   C982      1.0  0.43238  0.59504  0.38145  1.0000
  C   C983      1.0  0.46965  0.53191  0.23969  1.0000
  H   H780      1.0  0.40234  0.63892  0.36509  1.0000
  H   H781      1.0  0.15628  0.63590  0.26739  1.0000
  H   H782      1.0  0.23914  0.61133  0.29421  1.0000
  H   H783      1.0  0.31666  0.38928  0.45937  1.0000
  C   C984      1.0  0.34577  0.40663  0.45045  1.0000
  C   C985      1.0  0.37896  0.62953  0.29985  1.0000
  C   C986      1.0  0.39379  0.39343  0.45788  1.0000
  C   C987      1.0  0.47335  0.58393  0.24556  1.0000
  H   H784      1.0  0.28849  0.50550  0.48332  1.0000
  H   H785      1.0  0.39099  0.63311  0.33032  1.0000
  H   H786      1.0  0.42099  0.64469  0.44196  1.0000
  C   C988      1.0  0.22890  0.62554  0.29912  1.0000
  C   C989      1.0  0.04011  0.63664  0.28328  1.0000
  C   C990      1.0  0.48098  0.63213  0.41902  1.0000
  H   H787      1.0  0.46290  0.55546  0.27181  1.0000
  C   C991      1.0  0.40785  0.54757  0.45237  1.0000
  H   H788      1.0  0.33581  0.45755  0.45979  1.0000
  H   H789      1.0  0.34853  0.57934  0.36956  1.0000
  C   C992      1.0  0.43389  0.37401  0.45243  1.0000
  H   H790      1.0  0.48301  0.53395  0.24509  1.0000
  H   H791      1.0  0.36732  0.63536  0.38390  1.0000
  C   C993      1.0  0.41230  0.61531  0.24280  1.0000
  C   C994      1.0  0.43785  0.64112  0.43565  1.0000
  H   H792      1.0  0.47113  0.54501  0.46299  1.0000
  S   S134      1.0  0.14632  0.55898  0.24234  1.0000
  C   C995      1.0  0.35111  0.58746  0.37774  1.0000
  C   C996      1.0  0.35909  0.60859  0.37486  1.0000
  Fe  Fe68      1.0  0.29266  0.62280  0.29890  1.0000
  C   C997      1.0  0.44134  0.39523  0.44970  1.0000
  H   H793      1.0  0.29708  0.64165  0.25077  1.0000
  S   S135      1.0  0.43040  0.64469  0.47000  1.0000
  H   H794      1.0  0.22021  0.64673  0.28046  1.0000
  H   H795      1.0  0.48656  0.49744  0.23634  1.0000
  C   C998      1.0  0.40836  0.55211  0.28891  1.0000
  C   C999      1.0  0.40084  0.63511  0.23532  1.0000
  C   C1000     1.0  0.34007  0.61099  0.33940  1.0000
  C   C1001     1.0  0.47172  0.56438  0.44263  1.0000
  C   C1002     1.0  0.33239  0.46839  0.46764  1.0000
  H   H796      1.0  0.48194  0.65321  0.23747  1.0000
  C   C1003     1.0  0.48736  0.54080  0.36833  1.0000
  H   H797      1.0  0.46188  0.51030  0.45681  1.0000
  H   H798      1.0  0.42790  0.55474  0.35042  1.0000
  H   H799      1.0  0.39873  0.50130  0.46538  1.0000
  H   H800      1.0  0.44631  0.35821  0.45118  1.0000
  C   C1004     1.0  0.44406  0.55759  0.27351  1.0000
  H   H801      1.0  0.46890  0.44220  0.33653  1.0000
  H   H802      1.0  0.37175  0.42580  0.43805  1.0000
  H   H803      1.0  0.47817  0.41563  0.42423  1.0000
  H   H804      1.0  0.39681  0.57374  0.25682  1.0000
  H   H805      1.0  0.48361  0.56739  0.35084  1.0000
  C   C1005     1.0  0.43845  0.45140  0.46891  1.0000
  C   C1006     1.0  0.35980  0.53451  0.47793  1.0000
  H   H806      1.0  0.42345  0.60843  0.27657  1.0000
  Fe  Fe69      1.0  0.11150  0.58119  0.23895  1.0000
  Fe  Fe70      1.0  0.46118  0.61648  0.47313  1.0000
  C   C1007     1.0  0.42969  0.59960  0.23614  1.0000
  H   H807      1.0  0.49441  0.49448  0.36090  1.0000
  H   H808      1.0  0.03647  0.64173  0.29328  1.0000
  C   C1008     1.0  0.40262  0.64272  0.27375  1.0000
  C   C1009     1.0  0.35052  0.46997  0.47427  1.0000
  C   C1010     1.0  0.35822  0.55849  0.47627  1.0000
  H   H809      1.0  0.11647  0.63210  0.32478  1.0000
  H   H810      1.0  0.28343  0.62595  0.33422  1.0000
  H   H811      1.0  0.00481  0.61097  0.24680  1.0000
  C   C1011     1.0  0.32991  0.41507  0.48251  1.0000
  H   H812      1.0  0.45199  0.49952  0.48280  1.0000
  C   C1012     1.0  0.39723  0.47439  0.48286  1.0000
  H   H813      1.0  0.36707  0.58669  0.48336  1.0000
  C   C1013     1.0  0.49404  0.45485  0.43916  1.0000
  S   S136      1.0  0.41109  0.36968  0.50753  1.0000
  C   C1014     1.0  0.20718  0.34297  0.65946  1.0000
  C   C1015     1.0  0.44883  0.50265  0.49323  1.0000
  C   C1016     1.0  0.20649  0.33797  0.61588  1.0000
  H   H814      1.0  0.09511  0.32690  0.61763  1.0000
  H   H815      1.0  0.32059  0.50917  0.49468  1.0000
  H   H816      1.0  0.25052  0.36325  0.67791  1.0000
  C   C1017     1.0  0.40684  0.39567  0.61499  1.0000
  S   S137      1.0  0.46010  0.41842  0.53825  1.0000
  H   H817      1.0  0.43163  0.41652  0.60315  1.0000
  C   C1018     1.0  0.41588  0.32677  0.62982  1.0000
  C   C1019     1.0  0.07292  0.32122  0.63695  1.0000
  S   S138      1.0  0.11517  0.34417  0.67488  1.0000
  H   H818      1.0  0.27279  0.36268  0.72715  1.0000
  S   S139      1.0  0.39960  0.61318  0.49414  1.0000
  C   C1020     1.0  0.22800  0.33529  0.65109  1.0000
  H   H819      1.0  0.45082  0.33397  0.51380  1.0000
  Fe  Fe71      1.0  0.43263  0.58708  0.49569  1.0000
  S   S140      1.0  0.43398  0.55761  0.51328  1.0000
  H   H820      1.0  0.49010  0.63508  0.48574  1.0000
  H   H821      1.0  0.22238  0.38421  0.56772  1.0000
  Fe  Fe72      1.0  0.45126  0.42663  0.51702  1.0000
  Fe  Fe73      1.0  0.11577  0.32933  0.69701  1.0000
  S   S141      1.0  0.40990  0.33946  0.72259  1.0000
  S   S142      1.0  0.38732  0.34730  0.68705  1.0000
  C   C1021     1.0  0.43922  0.52945  0.50948  1.0000
  C   C1022     1.0  0.49519  0.52900  0.53281  1.0000
  C   C1023     1.0  0.45056  0.36724  0.60257  1.0000
  H   H822      1.0  0.31141  0.35141  0.53440  1.0000
  C   C1024     1.0  0.06120  0.37664  0.71748  1.0000
  S   S143      1.0  0.40308  0.41559  0.56455  1.0000
  C   C1025     1.0  0.46233  0.37428  0.57796  1.0000
  C   C1026     1.0  0.06138  0.35966  0.72909  1.0000
  H   H823      1.0  0.37003  0.38577  0.52815  1.0000
  Fe  Fe74      1.0  0.42505  0.40773  0.54458  1.0000
  C   C1027     1.0  0.37646  0.34952  0.53632  1.0000
  C   C1028     1.0  0.35809  0.37912  0.59080  1.0000
  H   H824      1.0  0.27800  0.32163  0.67847  1.0000
  C   C1029     1.0  0.36211  0.41533  0.49937  1.0000
  H   H825      1.0  0.35667  0.35856  0.56203  1.0000
  P   P34       1.0  0.26838  0.34212  0.70361  1.0000
  Fe  Fe75      1.0  0.28248  0.33159  0.63551  1.0000
  C   C1030     1.0  0.44292  0.52541  0.49601  1.0000
  C   C1031     1.0  0.38359  0.39641  0.57141  1.0000
  C   C1032     1.0  0.44622  0.48795  0.51742  1.0000
  H   H826      1.0  0.40803  0.36250  0.64641  1.0000
  H   H827      1.0  0.35591  0.35939  0.66729  1.0000
  C   C1033     1.0  0.42616  0.34594  0.49972  1.0000
  C   C1034     1.0  0.36170  0.36832  0.56856  1.0000
  H   H828      1.0  0.05265  0.34527  0.72969  1.0000
  C   C1035     1.0  0.44065  0.51070  0.52018  1.0000
  H   H829      1.0  0.44750  0.47353  0.52570  1.0000
  H   H830      1.0  0.43768  0.51379  0.53062  1.0000
  C   C1036     1.0  0.15261  0.35046  0.72918  1.0000
  C   C1037     1.0  0.24754  0.35905  0.71504  1.0000
  H   H831      1.0  0.07789  0.33463  0.64104  1.0000
  C   C1038     1.0  0.25470  0.36668  0.72561  1.0000
  H   H832      1.0  0.21825  0.36082  0.70465  1.0000
  H   H833      1.0  0.05269  0.37513  0.70918  1.0000
  C   C1039     1.0  0.32247  0.42451  0.49459  1.0000
  H   H834      1.0  0.45792  0.32587  0.56820  1.0000
  C   C1040     1.0  0.32393  0.49727  0.48740  1.0000
  C   C1041     1.0  0.19958  0.41800  0.58313  1.0000
  C   C1042     1.0  0.35198  0.36614  0.58237  1.0000
  H   H835      1.0  0.39957  0.44323  0.49784  1.0000
  S   S144      1.0  0.05163  0.34812  0.66726  1.0000
  Fe  Fe76      1.0  0.31918  0.33280  0.60998  1.0000
  H   H836      1.0  0.17189  0.33789  0.66758  1.0000
  C   C1043     1.0  0.37357  0.39459  0.58523  1.0000
  C   C1044     1.0  0.41360  0.41621  0.60765  1.0000
  H   H837      1.0  0.42629  0.32637  0.63758  1.0000
  H   H838      1.0  0.39986  0.35819  0.60015  1.0000
  C   C1045     1.0  0.40098  0.34447  0.60881  1.0000
  H   H839      1.0  0.37799  0.40502  0.59161  1.0000
  H   H840      1.0  0.30421  0.43171  0.49740  1.0000
  P   P35       1.0  0.42819  0.36946  0.61737  1.0000
  H   H841      1.0  0.35060  0.37757  0.60148  1.0000
  H   H842      1.0  0.19941  0.40445  0.61307  1.0000
  H   H843      1.0  0.40222  0.45222  0.60004  1.0000
  C   C1046     1.0  0.02345  0.34300  0.67484  1.0000
  S   S145      1.0  0.46678  0.39125  0.51190  1.0000
  C   C1047     1.0  0.36246  0.37030  0.53151  1.0000
  C   C1048     1.0  0.48331  0.63916  0.53093  1.0000
  C   C1049     1.0  0.45065  0.48394  0.50393  1.0000
  H   H844      1.0  0.43581  0.42324  0.48564  1.0000
  H   H845      1.0  0.47678  0.34491  0.61379  1.0000
  C   C1050     1.0  0.27300  0.35740  0.57957  1.0000
  C   C1051     1.0  0.44492  0.33078  0.50497  1.0000
  S   S146      1.0  0.43786  0.37093  0.54144  1.0000
  S   S147      1.0  0.33149  0.34776  0.58822  1.0000
  C   C1052     1.0  0.18649  0.43911  0.57798  1.0000
  C   C1053     1.0  0.27023  0.34442  0.55881  1.0000
  C   C1054     1.0  0.48889  0.59991  0.52615  1.0000
  H   H846      1.0  0.36087  0.45244  0.61055  1.0000
  H   H847      1.0  0.34894  0.41652  0.62418  1.0000
  C   C1055     1.0  0.45908  0.64093  0.53190  1.0000
  Fe  Fe77      1.0  0.44780  0.32176  0.71982  1.0000
  C   C1056     1.0  0.34344  0.33008  0.53990  1.0000
  H   H848      1.0  0.40423  0.35361  0.48421  1.0000
  C   C1057     1.0  0.45529  0.37367  0.65656  1.0000
  C   C1058     1.0  0.08438  0.39670  0.72681  1.0000
  C   C1059     1.0  0.18586  0.37405  0.62311  1.0000
  C   C1060     1.0  0.39700  0.43655  0.60598  1.0000
  H   H849      1.0  0.16892  0.43988  0.57612  1.0000
  C   C1061     1.0  0.46873  0.37886  0.64383  1.0000
  C   C1062     1.0  0.48467  0.36178  0.57945  1.0000
  C   C1063     1.0  0.47422  0.53682  0.54092  1.0000
  C   C1064     1.0  0.33857  0.42459  0.50302  1.0000
  Fe  Fe78      1.0  0.08246  0.32935  0.67761  1.0000
  H   H850      1.0  0.38520  0.38456  0.55244  1.0000
  C   C1065     1.0  0.22232  0.41684  0.58568  1.0000
  H   H851      1.0  0.29920  0.33219  0.57003  1.0000
  H   H852      1.0  0.33140  0.47495  0.51245  1.0000
  H   H853      1.0  0.28256  0.35616  0.58785  1.0000
  C   C1066     1.0  0.28244  0.34361  0.56947  1.0000
  C   C1067     1.0  0.37861  0.33052  0.67709  1.0000
  C   C1068     1.0  0.27785  0.36325  0.68947  1.0000
  H   H854      1.0  0.33283  0.43158  0.51245  1.0000
  C   C1069     1.0  0.20785  0.37856  0.72193  1.0000
  H   H855      1.0  0.37794  0.38047  0.62709  1.0000
  H   H856      1.0  0.30596  0.36911  0.69856  1.0000
  C   C1070     1.0  0.37907  0.55380  0.49526  1.0000
  H   H857      1.0  0.38939  0.51932  0.50509  1.0000
  H   H858      1.0  0.32831  0.38711  0.52707  1.0000
  C   C1071     1.0  0.37775  0.38308  0.56313  1.0000
  C   C1072     1.0  0.43348  0.36778  0.65738  1.0000
  H   H859      1.0  0.45826  0.38211  0.56787  1.0000
  H   H860      1.0  0.18576  0.47564  0.57140  1.0000
  H   H861      1.0  0.49129  0.45246  0.51776  1.0000
  Fe  Fe79      1.0  0.40800  0.32658  0.70339  1.0000
  H   H862      1.0  0.27740  0.33345  0.55110  1.0000
  H   H863      1.0  0.23609  0.33992  0.60016  1.0000
  H   H864      1.0  0.45980  0.54754  0.53621  1.0000
  C   C1073     1.0  0.44525  0.37686  0.58945  1.0000
  Fe  Fe80      1.0  0.47237  0.38219  0.53377  1.0000
  H   H865      1.0  0.40349  0.47955  0.51077  1.0000
  C   C1074     1.0  0.38490  0.46887  0.53054  1.0000
  C   C1075     1.0  0.36398  0.46326  0.53798  1.0000
  H   H866      1.0  0.01274  0.34295  0.65562  1.0000
  C   C1076     1.0  0.38899  0.32634  0.60995  1.0000
  H   H867      1.0  0.39987  0.46704  0.53564  1.0000
  H   H868      1.0  0.36281  0.45704  0.54886  1.0000
  H   H869      1.0  0.48793  0.51104  0.57211  1.0000
  H   H870      1.0  0.24518  0.38394  0.62146  1.0000
  C   C1077     1.0  0.46474  0.60170  0.52743  1.0000
  S   S148      1.0  0.45429  0.61310  0.49581  1.0000
  H   H871      1.0  0.23908  0.35972  0.55000  1.0000
  C   C1078     1.0  0.34653  0.47323  0.51729  1.0000
  S   S149      1.0  0.45899  0.45578  0.50014  1.0000
  Fe  Fe81      1.0  0.42214  0.63958  0.49284  1.0000
  C   C1079     1.0  0.38346  0.39597  0.62108  1.0000
  H   H872      1.0  0.48844  0.56030  0.49512  1.0000
  H   H873      1.0  0.37461  0.41485  0.50601  1.0000
  C   C1080     1.0  0.07273  0.39513  0.71632  1.0000
  H   H874      1.0  0.07318  0.40790  0.70714  1.0000
  C   C1081     1.0  0.20130  0.38594  0.61357  1.0000
  H   H875      1.0  0.42285  0.36427  0.66725  1.0000
  C   C1082     1.0  0.38033  0.52985  0.49711  1.0000
  H   H876      1.0  0.38717  0.56121  0.50172  1.0000
  C   C1083     1.0  0.37027  0.51997  0.48864  1.0000
  H   H877      1.0  0.20563  0.35799  0.66427  1.0000
  C   C1084     1.0  0.33902  0.37101  0.53088  1.0000
  C   C1085     1.0  0.29692  0.37348  0.68979  1.0000
  S   S150      1.0  0.25137  0.35037  0.64799  1.0000
  H   H878      1.0  0.17222  0.38327  0.62989  1.0000
  C   C1086     1.0  0.48982  0.35136  0.59239  1.0000
  H   H879      1.0  0.31207  0.40259  0.61784  1.0000
  C   C1087     1.0  0.19596  0.45926  0.57533  1.0000
  C   C1088     1.0  0.38688  0.47602  0.51643  1.0000
  P   P36       1.0  0.37036  0.48911  0.49152  1.0000
  H   H880      1.0  0.47090  0.38258  0.62216  1.0000
  C   C1089     1.0  0.21853  0.45830  0.57785  1.0000
  S   S151      1.0  0.12316  0.35138  0.71096  1.0000
  C   C1090     1.0  0.37369  0.43665  0.61188  1.0000
  C   C1091     1.0  0.43908  0.37080  0.63268  1.0000
  H   H881      1.0  0.45749  0.58758  0.52567  1.0000
  C   C1092     1.0  0.22410  0.36570  0.71302  1.0000
  H   H882      1.0  0.44162  0.53978  0.48773  1.0000
  H   H883      1.0  0.28391  0.40367  0.58165  1.0000
  H   H884      1.0  0.48540  0.38397  0.64321  1.0000
  C   C1093     1.0  0.36769  0.47843  0.50967  1.0000
  C   C1094     1.0  0.47161  0.53041  0.55507  1.0000
  C   C1095     1.0  0.30466  0.38937  0.67869  1.0000
  H   H885      1.0  0.37830  0.32632  0.60235  1.0000
  C   C1096     1.0  0.27354  0.38613  0.66717  1.0000
  H   H886      1.0  0.32854  0.46121  0.53719  1.0000
  C   C1097     1.0  0.23167  0.43721  0.58301  1.0000
  C   C1098     1.0  0.42524  0.36664  0.64550  1.0000
  H   H887      1.0  0.19188  0.40258  0.58521  1.0000
  S   S152      1.0  0.41499  0.41931  0.52372  1.0000
  C   C1099     1.0  0.24863  0.35920  0.55822  1.0000
  C   C1100     1.0  0.36696  0.41641  0.61950  1.0000
  H   H888      1.0  0.31523  0.40990  0.59260  1.0000
  S   S153      1.0  0.28235  0.32641  0.61421  1.0000
  C   C1101     1.0  0.29306  0.39559  0.66734  1.0000
  C   C1102     1.0  0.21494  0.38525  0.73275  1.0000
  C   C1103     1.0  0.44988  0.62225  0.53019  1.0000
  H   H889      1.0  0.42798  0.38640  0.58799  1.0000
  C   C1104     1.0  0.23921  0.37313  0.56830  1.0000
  S   S154      1.0  0.47774  0.33911  0.72116  1.0000
  H   H890      1.0  0.24897  0.43704  0.58498  1.0000
  H   H891      1.0  0.27685  0.38959  0.63211  1.0000
  C   C1105     1.0  0.26580  0.37021  0.67824  1.0000
  H   H892      1.0  0.31970  0.39678  0.67892  1.0000
  C   C1106     1.0  0.41403  0.34511  0.61889  1.0000
  H   H893      1.0  0.29910  0.40783  0.65873  1.0000
  H   H894      1.0  0.34356  0.33607  0.65309  1.0000
  H   H895      1.0  0.22580  0.47397  0.57588  1.0000
  H   H896      1.0  0.26437  0.39094  0.65845  1.0000
  C   C1107     1.0  0.34479  0.46546  0.53137  1.0000
  C   C1108     1.0  0.46055  0.37772  0.63191  1.0000
  C   C1109     1.0  0.29287  0.32537  0.71148  1.0000
  C   C1110     1.0  0.35577  0.32784  0.65999  1.0000
  C   C1111     1.0  0.22192  0.34976  0.60629  1.0000
  Fe  Fe82      1.0  0.43108  0.38340  0.51992  1.0000
  C   C1112     1.0  0.27816  0.39318  0.62109  1.0000
  C   C1113     1.0  0.29798  0.40045  0.61306  1.0000
  C   C1114     1.0  0.29978  0.40450  0.59886  1.0000
  C   C1115     1.0  0.28193  0.40101  0.59268  1.0000
  C   C1116     1.0  0.26192  0.39375  0.60067  1.0000
  C   C1117     1.0  0.26014  0.38991  0.61495  1.0000
  P   P37       1.0  0.23889  0.38943  0.59253  1.0000
  C   C1118     1.0  0.25138  0.37238  0.57906  1.0000
  C   C1119     1.0  0.21921  0.37391  0.60493  1.0000
  C   C1120     1.0  0.48999  0.51609  0.56114  1.0000
  H   H897      1.0  0.45526  0.53640  0.56131  1.0000
  H   H898      1.0  0.46155  0.37456  0.66582  1.0000
  C   C1121     1.0  0.01622  0.34204  0.68889  1.0000
  C   C1122     1.0  0.32952  0.35088  0.53502  1.0000
  H   H899      1.0  0.14482  0.36844  0.72947  1.0000
  C   C1123     1.0  0.14497  0.33802  0.72097  1.0000
  C   C1124     1.0  0.18829  0.35011  0.62415  1.0000
  H   H900      1.0  0.17641  0.34091  0.63163  1.0000
  C   C1125     1.0  0.36281  0.34104  0.66803  1.0000
  C   C1126     1.0  0.40732  0.45188  0.48823  1.0000
  H   H901      1.0  0.48895  0.51845  0.50359  1.0000
  H   H902      1.0  0.09383  0.41071  0.72573  1.0000
  S   S155      1.0  0.31792  0.34181  0.63076  1.0000
  C   C1127     1.0  0.42193  0.32157  0.57212  1.0000
  C   C1128     1.0  0.36963  0.40609  0.48726  1.0000
  H   H903      1.0  0.43121  0.62405  0.53048  1.0000
  H   H904      1.0  0.02836  0.34328  0.69533  1.0000
  C   C1129     1.0  0.44421  0.32070  0.56442  1.0000
  C   C1130     1.0  0.36695  0.32935  0.54077  1.0000
  H   H905      1.0  0.35987  0.36003  0.48971  1.0000
  C   C1131     1.0  0.36771  0.56814  0.48497  1.0000
  H   H906      1.0  0.39469  0.34933  0.53651  1.0000
  H   H907      1.0  0.38792  0.39856  0.48480  1.0000
  C   C1132     1.0  0.47269  0.35367  0.60389  1.0000
  H   H908      1.0  0.46762  0.64338  0.55832  1.0000
  C   C1133     1.0  0.41860  0.34178  0.48828  1.0000
  C   C1134     1.0  0.00739  0.34182  0.66652  1.0000
  C   C1135     1.0  0.18813  0.33153  0.66140  1.0000
  C   C1136     1.0  0.25480  0.32223  0.69782  1.0000
  H   H909      1.0  0.18969  0.38308  0.72052  1.0000
  H   H910      1.0  0.41835  0.32731  0.58195  1.0000
  H   H911      1.0  0.31759  0.32632  0.69264  1.0000
  C   C1137     1.0  0.31503  0.32068  0.70357  1.0000
  C   C1138     1.0  0.34647  0.48454  0.48417  1.0000
  C   C1139     1.0  0.35877  0.32726  0.48457  1.0000
  Fe  Fe83      1.0  0.13610  0.58198  0.94709  1.0000
  S   S156      1.0  0.13181  0.60776  0.92799  1.0000
  S   S157      1.0  0.17141  0.57476  0.95368  1.0000
  Fe  Fe84      1.0  0.08666  0.57498  0.95136  1.0000
  S   S158      1.0  0.07809  0.60061  0.93301  1.0000
  S   S159      1.0  0.05836  0.55688  0.96375  1.0000
  Fe  Fe85      1.0  0.11228  0.58325  0.92266  1.0000
  S   S160      1.0  0.11673  0.58005  0.90033  1.0000
  Fe  Fe86      1.0  0.09822  0.62285  0.93998  1.0000
  C   C1140     1.0  0.01252  0.62196  0.91299  1.0000
  S   S161      1.0  0.11974  0.55604  0.94068  1.0000
  S   S162      1.0  0.10357  0.59866  0.95949  1.0000
  Fe  Fe87      1.0  0.10873  0.42400  0.89469  1.0000
  S   S163      1.0  0.08665  0.45682  0.88610  1.0000
  S   S164      1.0  0.10402  0.41616  0.91745  1.0000
  Fe  Fe88      1.0  0.13260  0.41253  0.86693  1.0000
  S   S165      1.0  0.11277  0.44476  0.85597  1.0000
  S   S166      1.0  0.16155  0.38585  0.85784  1.0000
  Fe  Fe89      1.0  0.11933  0.46290  0.87208  1.0000
  S   S167      1.0  0.12989  0.49801  0.86627  1.0000
  Fe  Fe90      1.0  0.08170  0.43586  0.87111  1.0000
  S   S168      1.0  0.04580  0.44312  0.86521  1.0000
  S   S169      1.0  0.14196  0.43146  0.88174  1.0000
  S   S170      1.0  0.10091  0.40222  0.88101  1.0000
  H   H912      1.0  0.99696  0.39826  0.89858  1.0000
  H   H913      1.0  0.07870  0.55020  0.88132  1.0000
  S   S171      1.0  0.16730  0.35972  0.79907  1.0000
  H   H914      1.0  0.04142  0.35514  0.96607  1.0000
  H   H915      1.0  0.10417  0.32016  0.94513  1.0000
  H   H916      1.0  0.38503  0.32877  0.83436  1.0000
  H   H917      1.0  0.01544  0.59309  0.94526  1.0000
  C   C1141     1.0  0.00434  0.48863  0.82859  1.0000
  C   C1142     1.0  0.08350  0.34667  0.93244  1.0000
  C   C1143     1.0  0.14866  0.35147  0.93713  1.0000
  C   C1144     1.0  0.16322  0.37933  0.84132  1.0000
  C   C1145     1.0  0.18198  0.36284  0.83638  1.0000
  C   C1146     1.0  0.18369  0.35695  0.82336  1.0000
  C   C1147     1.0  0.16642  0.36726  0.81526  1.0000
  C   C1148     1.0  0.14753  0.38355  0.82027  1.0000
  C   C1149     1.0  0.14602  0.38973  0.83320  1.0000
  H   H918      1.0  0.19529  0.35466  0.84264  1.0000
  H   H919      1.0  0.19824  0.34428  0.81964  1.0000
  H   H920      1.0  0.13409  0.39157  0.81407  1.0000
  H   H921      1.0  0.13153  0.40246  0.83690  1.0000
  C   C1150     1.0  0.02937  0.42097  0.86785  1.0000
  H   H922      1.0  0.05981  0.37365  0.92241  1.0000
  C   C1151     1.0  0.09603  0.35348  0.77228  1.0000
  C   C1152     1.0  0.04477  0.48051  0.96766  1.0000
  C   C1153     1.0  0.02402  0.38107  0.87517  1.0000
  C   C1154     1.0  0.03786  0.39815  0.87344  1.0000
  C   C1155     1.0  0.32339  0.35505  0.78345  1.0000
  C   C1156     1.0  0.34307  0.33357  0.74577  1.0000
  H   H923      1.0  0.03063  0.36342  0.87942  1.0000
  H   H924      1.0  0.05511  0.39361  0.87628  1.0000
  C   C1157     1.0  0.12020  0.55572  0.89207  1.0000
  C   C1158     1.0  0.11417  0.53431  0.89852  1.0000
  C   C1159     1.0  0.11694  0.51610  0.89087  1.0000
  C   C1160     1.0  0.12575  0.51938  0.87684  1.0000
  C   C1161     1.0  0.13170  0.54071  0.87061  1.0000
  C   C1162     1.0  0.12881  0.55870  0.87811  1.0000
  H   H925      1.0  0.10714  0.53189  0.90928  1.0000
  H   H926      1.0  0.11217  0.49968  0.89574  1.0000
  H   H927      1.0  0.13852  0.54342  0.85983  1.0000
  H   H928      1.0  0.13338  0.57511  0.87302  1.0000
  H   H929      1.0  0.06236  0.45090  0.91529  1.0000
  H   H930      1.0  0.09429  0.38099  0.74624  1.0000
  H   H931      1.0  0.13244  0.35708  0.89773  1.0000
  C   C1163     1.0  0.04213  0.54920  0.95311  1.0000
  C   C1164     1.0  0.05220  0.54541  0.93987  1.0000
  C   C1165     1.0  0.03901  0.53928  0.93145  1.0000
  C   C1166     1.0  0.11498  0.35345  0.77869  1.0000
  C   C1167     1.0  0.01487  0.49988  0.88482  1.0000
  H   H932      1.0  0.07023  0.54693  0.93614  1.0000
  H   H933      1.0  0.04695  0.53596  0.92129  1.0000
  C   C1168     1.0  0.07984  0.53222  0.85120  1.0000
  C   C1169     1.0  0.06494  0.34062  0.85554  1.0000
  C   C1170     1.0  0.02043  0.60522  0.92367  1.0000
  C   C1171     1.0  0.12781  0.36177  0.94433  1.0000
  C   C1172     1.0  0.11421  0.38157  0.93812  1.0000
  C   C1173     1.0  0.12111  0.39087  0.92457  1.0000
  C   C1174     1.0  0.14175  0.38042  0.91718  1.0000
  H   H934      1.0  0.12190  0.35437  0.95465  1.0000
  H   H935      1.0  0.09820  0.38959  0.94385  1.0000
  H   H936      1.0  0.14727  0.38785  0.90673  1.0000
  C   C1175     1.0  0.01299  0.39357  0.97113  1.0000
  H   H937      1.0  0.44399  0.33086  0.74597  1.0000
  H   H938      1.0  0.01457  0.41031  0.91558  1.0000
  H   H939      1.0  0.02503  0.32941  0.79997  1.0000
  H   H940      1.0  0.07136  0.59017  0.88543  1.0000
  H   H941      1.0  0.05639  0.41100  0.92261  1.0000
  H   H942      1.0  0.03038  0.39759  0.96953  1.0000
  C   C1176     1.0  0.07402  0.51070  0.85156  1.0000
  H   H943      1.0  0.04793  0.33623  0.85614  1.0000
  C   C1177     1.0  0.04350  0.54522  0.88884  1.0000
  C   C1178     1.0  0.14893  0.40473  0.97173  1.0000
  H   H944      1.0  0.47067  0.34471  0.75726  1.0000
  H   H945      1.0  0.09184  0.38733  0.84724  1.0000
  H   H946      1.0  0.38135  0.33590  0.80992  1.0000
  C   C1179     1.0  0.06221  0.55150  0.85293  1.0000
  C   C1180     1.0  0.05463  0.63250  0.89358  1.0000
  C   C1181     1.0  0.08368  0.32361  0.85948  1.0000
  C   C1182     1.0  0.03449  0.46487  0.93005  1.0000
  H   H947      1.0  0.04537  0.60615  0.95909  1.0000
  C   C1183     1.0  0.03274  0.52757  0.85570  1.0000
  C   C1184     1.0  0.00604  0.35299  0.78522  1.0000
  C   C1185     1.0  0.01717  0.60642  0.97591  1.0000
  C   C1186     1.0  0.13176  0.42376  0.96790  1.0000
  H   H948      1.0  0.05040  0.50853  0.97638  1.0000
  C   C1187     1.0  0.07466  0.44594  0.96903  1.0000
  C   C1188     1.0  0.05337  0.45784  0.96519  1.0000
  H   H949      1.0  0.17643  0.34911  0.74326  1.0000
  C   C1189     1.0  0.08467  0.37970  0.73842  1.0000
  C   C1190     1.0  0.13563  0.47988  0.97378  1.0000
  P   P38       1.0  0.07366  0.33871  0.75447  1.0000
  C   C1191     1.0  0.16334  0.39247  0.96188  1.0000
  C   C1192     1.0  0.16088  0.39923  0.94814  1.0000
  C   C1193     1.0  0.14403  0.41832  0.94423  1.0000
  C   C1194     1.0  0.12954  0.43060  0.95406  1.0000
  C   C1195     1.0  0.16927  0.32037  0.87074  1.0000
  C   C1196     1.0  0.01641  0.45995  0.94048  1.0000
  C   C1197     1.0  0.34323  0.35786  0.77382  1.0000
  H   H950      1.0  0.03545  0.59173  0.92166  1.0000
  H   H951      1.0  0.11355  0.36521  0.78586  1.0000
  H   H952      1.0  0.99820  0.43402  0.95264  1.0000
  C   C1198     1.0  0.10832  0.35258  0.85447  1.0000
  C   C1199     1.0  0.19809  0.55068  0.97262  1.0000
  H   H953      1.0  0.03737  0.48255  0.92687  1.0000
  C   C1200     1.0  0.01545  0.53803  0.93604  1.0000
  C   C1201     1.0  0.02111  0.55530  0.89433  1.0000
  H   H954      1.0  0.08100  0.42834  0.96706  1.0000
  H   H955      1.0  0.04363  0.44934  0.96032  1.0000
  C   C1202     1.0  0.00412  0.38845  0.96036  1.0000
  H   H956      1.0  0.46385  0.34208  0.78246  1.0000
  P   P39       1.0  0.02181  0.38947  0.94367  1.0000
  C   C1203     1.0  0.13607  0.33839  0.77575  1.0000
  H   H957      1.0  0.17622  0.37748  0.96495  1.0000
  H   H958      1.0  0.17179  0.38945  0.94056  1.0000
  H   H959      1.0  0.14200  0.42341  0.93359  1.0000
  H   H960      1.0  0.11688  0.44552  0.95078  1.0000
  C   C1204     1.0  0.04698  0.34412  0.76639  1.0000
  C   C1205     1.0  0.04858  0.44708  0.92360  1.0000
  C   C1206     1.0  0.05684  0.58113  0.88763  1.0000
  C   C1207     1.0  0.10561  0.32945  0.85890  1.0000
  H   H961      1.0  0.12316  0.48685  0.96685  1.0000
  C   C1208     1.0  0.01872  0.54738  0.95781  1.0000
  H   H962      1.0  0.17542  0.35422  0.89279  1.0000
  C   C1209     1.0  0.15352  0.49185  0.97365  1.0000
  C   C1210     1.0  0.04838  0.36800  0.94430  1.0000
  H   H963      1.0  0.03258  0.49588  0.87966  1.0000
  H   H964      1.0  0.24392  0.38468  0.74291  1.0000
  H   H965      1.0  0.04727  0.52729  0.88737  1.0000
  C   C1211     1.0  0.08960  0.36950  0.85053  1.0000
  C   C1212     1.0  0.32490  0.33762  0.79477  1.0000
  C   C1213     1.0  0.15559  0.36067  0.92350  1.0000
  C   C1214     1.0  0.16759  0.63989  0.94135  1.0000
  C   C1215     1.0  0.03001  0.61643  0.96408  1.0000
  C   C1216     1.0  0.99670  0.51197  0.87770  1.0000
  H   H966      1.0  0.09805  0.53381  0.84975  1.0000
  H   H967      1.0  0.05156  0.63730  0.91462  1.0000
  C   C1217     1.0  0.00911  0.60589  0.93706  1.0000
  C   C1218     1.0  0.08760  0.45665  0.97538  1.0000
  C   C1219     1.0  0.43316  0.32670  0.78535  1.0000
  C   C1220     1.0  0.13175  0.33519  0.88330  1.0000
  S   S172      1.0  0.23482  0.32479  0.79431  1.0000
  H   H968      1.0  0.15447  0.50814  0.96688  1.0000
  C   C1221     1.0  0.03422  0.59162  0.89292  1.0000
  C   C1222     1.0  0.02714  0.41895  0.93844  1.0000
  H   H969      1.0  0.21240  0.55708  0.96568  1.0000
  C   C1223     1.0  0.17564  0.55631  0.96914  1.0000
  H   H970      1.0  0.01084  0.55037  0.96803  1.0000
  H   H971      1.0  0.02548  0.56427  0.85688  1.0000
  H   H972      1.0  0.34185  0.37101  0.76486  1.0000
  H   H973      1.0  0.02466  0.48475  0.90437  1.0000
  H   H974      1.0  0.21738  0.64938  0.94943  1.0000
  H   H975      1.0  0.08775  0.49572  0.85040  1.0000
  S   S173      1.0  0.27578  0.35548  0.76179  1.0000
  S   S174      1.0  0.13498  0.35008  0.97967  1.0000
  H   H976      1.0  0.06680  0.56810  0.85280  1.0000
  H   H977      1.0  0.30668  0.36596  0.78190  1.0000
  H   H978      1.0  0.37937  0.34530  0.76753  1.0000
  C   C1224     1.0  0.01652  0.57827  0.89657  1.0000
  H   H979      1.0  0.15080  0.33855  0.78061  1.0000
  H   H980      1.0  0.11290  0.33718  0.88529  1.0000
  C   C1225     1.0  0.10497  0.49955  0.94128  1.0000
  C   C1226     1.0  0.09218  0.48834  0.93526  1.0000
  C   C1227     1.0  0.10362  0.47468  0.92536  1.0000
  C   C1228     1.0  0.12778  0.47244  0.92135  1.0000
  C   C1229     1.0  0.14073  0.48399  0.92718  1.0000
  C   C1230     1.0  0.12917  0.49728  0.93733  1.0000
  P   P40       1.0  0.17190  0.48179  0.92187  1.0000
  C   C1231     1.0  0.18787  0.46011  0.93346  1.0000
  C   C1232     1.0  0.17909  0.47419  0.90489  1.0000
  C   C1233     1.0  0.18430  0.45077  0.90323  1.0000
  C   C1234     1.0  0.18926  0.44465  0.89018  1.0000
  C   C1235     1.0  0.18832  0.46181  0.87869  1.0000
  C   C1236     1.0  0.18272  0.48510  0.88024  1.0000
  C   C1237     1.0  0.17818  0.49132  0.89325  1.0000
  C   C1238     1.0  0.21084  0.44944  0.92900  1.0000
  C   C1239     1.0  0.22354  0.43327  0.93808  1.0000
  C   C1240     1.0  0.21360  0.42802  0.95172  1.0000
  C   C1241     1.0  0.19102  0.43902  0.95629  1.0000
  C   C1242     1.0  0.17819  0.45496  0.94720  1.0000
  C   C1243     1.0  0.17923  0.50956  0.92203  1.0000
  C   C1244     1.0  0.16573  0.52998  0.91620  1.0000
  C   C1245     1.0  0.17080  0.55155  0.91659  1.0000
  C   C1246     1.0  0.18890  0.55300  0.92323  1.0000
  C   C1247     1.0  0.20218  0.53283  0.92931  1.0000
  C   C1248     1.0  0.19752  0.51117  0.92864  1.0000
  H   H981      1.0  0.09604  0.51022  0.94893  1.0000
  H   H982      1.0  0.07342  0.49027  0.93825  1.0000
  H   H983      1.0  0.09383  0.46583  0.92071  1.0000
  H   H984      1.0  0.13609  0.46184  0.91360  1.0000
  H   H985      1.0  0.13887  0.50608  0.94208  1.0000
  H   H986      1.0  0.18404  0.43717  0.91200  1.0000
  H   H987      1.0  0.19299  0.42658  0.88896  1.0000
  H   H988      1.0  0.19118  0.45708  0.86860  1.0000
  H   H989      1.0  0.18109  0.49837  0.87134  1.0000
  H   H990      1.0  0.17340  0.50947  0.89407  1.0000
  H   H991      1.0  0.21901  0.45372  0.91854  1.0000
  H   H992      1.0  0.24115  0.42491  0.93457  1.0000
  H   H993      1.0  0.22338  0.41550  0.95878  1.0000
  H   H994      1.0  0.18340  0.43505  0.96688  1.0000
  H   H995      1.0  0.16074  0.46317  0.95091  1.0000
  H   H996      1.0  0.15107  0.52930  0.91150  1.0000
  H   H997      1.0  0.16030  0.56718  0.91200  1.0000
  H   H998      1.0  0.19227  0.56977  0.92395  1.0000
  H   H999      1.0  0.21580  0.53407  0.93476  1.0000
  H   H1000     1.0  0.20798  0.49589  0.93353  1.0000
  H   H1001     1.0  0.17183  0.35280  0.91796  1.0000
  H   H1002     1.0  0.15126  0.39926  0.98234  1.0000
  H   H1003     1.0  0.35609  0.34014  0.73782  1.0000
  H   H1004     1.0  0.05340  0.37672  0.84804  1.0000
  H   H1005     1.0  0.15644  0.62704  0.94372  1.0000
  H   H1006     1.0  0.00559  0.47392  0.94537  1.0000
  P   P41       1.0  0.02788  0.62141  0.89583  1.0000
  H   H1007     1.0  0.09566  0.34458  0.92315  1.0000
  C   C1249     1.0  0.04510  0.42426  0.92783  1.0000
  C   C1250     1.0  0.05060  0.50837  0.85373  1.0000
  C   C1251     1.0  0.14493  0.32201  0.87344  1.0000
  C   C1252     1.0  0.13832  0.32346  0.76636  1.0000
  H   H1008     1.0  0.01477  0.48675  0.81871  1.0000
  Fe  Fe91      1.0  0.15173  0.32152  0.96769  1.0000
  C   C1253     1.0  0.01263  0.43718  0.94466  1.0000
  H   H1009     1.0  0.13851  0.32908  0.83497  1.0000
  C   C1254     1.0  0.05301  0.35351  0.95657  1.0000
  C   C1255     1.0  0.32045  0.34671  0.74809  1.0000
  C   C1256     1.0  0.06347  0.36383  0.93216  1.0000
  C   C1257     1.0  0.02301  0.63957  0.95857  1.0000
  C   C1258     1.0  0.00959  0.50278  0.83666  1.0000
  H   H1010     1.0  0.00740  0.54510  0.89719  1.0000
  H   H1011     1.0  0.12493  0.35761  0.85412  1.0000
  C   C1259     1.0  0.18022  0.33169  0.87787  1.0000
  H   H1012     1.0  0.18454  0.49167  0.98189  1.0000
  H   H1013     1.0  0.08936  0.64973  0.91144  1.0000
  C   C1260     1.0  0.06796  0.36350  0.85099  1.0000
  C   C1261     1.0  0.45598  0.33755  0.76336  1.0000
  C   C1262     1.0  0.07840  0.47906  0.97839  1.0000
  C   C1263     1.0  0.36629  0.32544  0.78672  1.0000
  C   C1264     1.0  0.06130  0.55814  0.88548  1.0000
  H   H1014     1.0  0.06111  0.32146  0.78347  1.0000
  H   H1015     1.0  0.30937  0.33526  0.80209  1.0000
  H   H1016     1.0  0.00045  0.44420  0.85991  1.0000
  H   H1017     1.0  0.99923  0.58547  0.90134  1.0000
  H   H1018     1.0  0.04647  0.49142  0.85425  1.0000
  C   C1265     1.0  0.15721  0.54784  0.97816  1.0000
  S   S175      1.0  0.21151  0.34998  0.76653  1.0000
  H   H1019     1.0  0.19889  0.33111  0.87541  1.0000
  H   H1020     1.0  0.10056  0.64374  0.86897  1.0000
  S   S176      1.0  0.16633  0.32761  0.94534  1.0000
  C   C1266     1.0  0.02559  0.33763  0.78940  1.0000
  C   C1267     1.0  0.34627  0.32297  0.79646  1.0000
  H   H1021     1.0  0.02839  0.48990  0.96453  1.0000
  H   H1022     1.0  0.17024  0.60276  0.97935  1.0000
  C   C1268     1.0  0.06199  0.63858  0.90459  1.0000
  H   H1023     1.0  0.02252  0.58830  0.97993  1.0000
  C   C1269     1.0  0.00837  0.38122  0.93120  1.0000
  C   C1270     1.0  0.04600  0.33322  0.78004  1.0000
  C   C1271     1.0  0.09807  0.33832  0.76291  1.0000
  S   S177      1.0  0.99927  0.52956  0.92570  1.0000
  C   C1272     1.0  0.18759  0.63586  0.94744  1.0000
  C   C1273     1.0  0.00702  0.42662  0.86421  1.0000
  C   C1274     1.0  0.02722  0.35948  0.76226  1.0000
  C   C1275     1.0  0.44099  0.32964  0.75698  1.0000
  H   H1024     1.0  0.19197  0.61977  0.95426  1.0000
  C   C1276     1.0  0.30354  0.33833  0.75844  1.0000
  H   H1025     1.0  0.07991  0.36550  0.77455  1.0000
  C   C1277     1.0  0.00156  0.38691  0.87154  1.0000
  C   C1278     1.0  0.03874  0.54921  0.85523  1.0000
  C   C1279     1.0  0.01041  0.49330  0.89892  1.0000
  Fe  Fe92      1.0  0.19882  0.33716  0.78858  1.0000
  H   H1026     1.0  0.02749  0.36829  0.75184  1.0000
  C   C1280     1.0  0.99817  0.38746  0.90843  1.0000
  C   C1281     1.0  0.08335  0.64595  0.90280  1.0000
  P   P42       1.0  0.00258  0.52384  0.85985  1.0000
  H   H1027     1.0  0.12737  0.61273  0.98311  1.0000
  C   C1282     1.0  0.07286  0.33612  0.95675  1.0000
  Fe  Fe93      1.0  0.24732  0.33537  0.77191  1.0000
  C   C1283     1.0  0.14276  0.34643  0.89042  1.0000
  C   C1284     1.0  0.06827  0.63527  0.88061  1.0000
  C   C1285     1.0  0.13464  0.45856  0.98233  1.0000
  C   C1286     1.0  0.00686  0.36391  0.77166  1.0000
  H   H1028     1.0  0.31609  0.36343  0.74192  1.0000
  C   C1287     1.0  0.45210  0.33605  0.77754  1.0000
  H   H1029     1.0  0.13993  0.55192  0.97537  1.0000
  C   C1288     1.0  0.17046  0.48263  0.98209  1.0000
  C   C1289     1.0  0.05724  0.49105  0.97433  1.0000
  H   H1030     1.0  0.43056  0.32574  0.79630  1.0000
  H   H1031     1.0  0.02386  0.51206  0.83275  1.0000
  C   C1290     1.0  0.23838  0.37950  0.73451  1.0000
  H   H1032     1.0  0.03340  0.64658  0.94937  1.0000
  H   H1033     1.0  0.00252  0.44759  0.90455  1.0000
  C   C1291     1.0  0.00528  0.54236  0.94913  1.0000
  H   H1034     1.0  0.00259  0.34880  0.94360  1.0000
  P   P43       1.0  0.11478  0.44076  0.98051  1.0000
  C   C1292     1.0  0.36456  0.34308  0.77538  1.0000
  C   C1293     1.0  0.00995  0.63987  0.88394  1.0000
  C   C1294     1.0  0.07322  0.36100  0.73963  1.0000
  C   C1295     1.0  0.16698  0.34474  0.88768  1.0000
  H   H1035     1.0  0.20229  0.39483  0.73982  1.0000
  C   C1296     1.0  0.09731  0.64768  0.89000  1.0000
  C   C1297     1.0  0.08826  0.33291  0.94475  1.0000
  H   H1036     1.0  0.06273  0.63097  0.87196  1.0000
  C   C1298     1.0  0.06606  0.65270  0.97723  1.0000
  C   C1299     1.0  0.08965  0.64261  0.87887  1.0000
  C   C1300     1.0  0.00125  0.35972  0.93382  1.0000
  H   H1037     1.0  0.99679  0.32419  0.76213  1.0000
  C   C1301     1.0  0.00759  0.39459  0.91824  1.0000
  H   H1038     1.0  0.07648  0.32535  0.96628  1.0000
  C   C1302     1.0  0.17046  0.33959  0.73695  1.0000
  C   C1303     1.0  0.11953  0.32366  0.75980  1.0000
  C   C1304     1.0  0.99756  0.61974  0.98248  1.0000
  H   H1039     1.0  0.11421  0.65261  0.88877  1.0000
  C   C1305     1.0  0.20187  0.65248  0.94467  1.0000
  C   C1306     1.0  0.42226  0.32004  0.76475  1.0000
  C   C1307     1.0  0.99650  0.50483  0.84963  1.0000
  C   C1308     1.0  0.00306  0.65308  0.96493  1.0000
  H   H1040     1.0  0.49356  0.76057  0.20246  1.0000
  C   C1309     1.0  0.28596  0.73668  0.13714  1.0000
  S   S178      1.0  0.16700  0.83841  0.21373  1.0000
  H   H1041     1.0  0.19969  0.84452  0.18897  1.0000
  Fe  Fe94      1.0  0.43487  0.75275  0.17408  1.0000
  S   S179      1.0  0.44004  0.78834  0.16370  1.0000
  S   S180      1.0  0.45376  0.71970  0.16672  1.0000
  Fe  Fe95      1.0  0.39834  0.77063  0.19674  1.0000
  S   S181      1.0  0.40072  0.80763  0.18841  1.0000
  C   C1310     1.0  0.33813  0.70571  0.18198  1.0000
  Fe  Fe96      1.0  0.40052  0.79757  0.16803  1.0000
  S   S182      1.0  0.37665  0.81729  0.15267  1.0000
  Fe  Fe97      1.0  0.43984  0.79471  0.18502  1.0000
  S   S183      1.0  0.46495  0.80983  0.19384  1.0000
  S   S184      1.0  0.39593  0.76143  0.17671  1.0000
  S   S185      1.0  0.43696  0.75828  0.19500  1.0000
  Fe  Fe98      1.0  0.14574  0.95026  0.02235  1.0000
  S   S186      1.0  0.12644  0.93371  0.01102  1.0000
  C   C1311     1.0  0.11056  0.84988  0.98828  1.0000
  Fe  Fe99      1.0  0.13819  0.91541  0.04849  1.0000
  S   S187      1.0  0.11799  0.89616  0.03932  1.0000
  S   S188      1.0  0.14233  0.90552  0.07082  1.0000
  Fe  Fe100     1.0  0.14552  0.90015  0.02091  1.0000
  S   S189      1.0  0.16280  0.87223  0.00841  1.0000
  Fe  Fe101     1.0  0.10051  0.93125  0.03027  1.0000
  S   S190      1.0  0.06202  0.94235  0.02907  1.0000
  S   S191      1.0  0.16721  0.91661  0.03075  1.0000
  S   S192      1.0  0.11825  0.95065  0.04097  1.0000
  Fe  Fe102     1.0  0.22654  0.81622  0.11318  1.0000
  S   S193      1.0  0.19467  0.80138  0.12263  1.0000
  S   S194      1.0  0.22898  0.83317  0.09100  1.0000
  Fe  Fe103     1.0  0.25048  0.79880  0.13842  1.0000
  S   S195      1.0  0.21949  0.78337  0.14968  1.0000
  S   S196      1.0  0.27898  0.78886  0.15199  1.0000
  Fe  Fe104     1.0  0.21913  0.76993  0.13057  1.0000
  S   S197      1.0  0.20864  0.73468  0.13465  1.0000
  Fe  Fe105     1.0  0.19731  0.81560  0.14102  1.0000
  S   S198      1.0  0.16280  0.82915  0.15302  1.0000
  S   S199      1.0  0.25137  0.78334  0.11959  1.0000
  S   S200      1.0  0.22786  0.83286  0.13123  1.0000
  H   H1042     1.0  0.11784  0.82519  0.03072  1.0000
  H   H1043     1.0  0.09967  0.89083  0.07520  1.0000
  H   H1044     1.0  0.09098  0.82952  0.05238  1.0000
  H   H1045     1.0  0.05317  0.83702  0.09641  1.0000
  C   C1312     1.0  0.16590  0.88418  0.07608  1.0000
  C   C1313     1.0  0.16627  0.87677  0.09007  1.0000
  C   C1314     1.0  0.18529  0.86083  0.09477  1.0000
  C   C1315     1.0  0.20410  0.85203  0.08544  1.0000
  C   C1316     1.0  0.20344  0.85893  0.07140  1.0000
  C   C1317     1.0  0.18433  0.87484  0.06672  1.0000
  H   H1046     1.0  0.15176  0.88347  0.09730  1.0000
  H   H1047     1.0  0.18552  0.85562  0.10560  1.0000
  H   H1048     1.0  0.21790  0.85215  0.06412  1.0000
  H   H1049     1.0  0.18417  0.88030  0.05590  1.0000
  C   C1318     1.0  0.04569  0.92078  0.02952  1.0000
  C   C1319     1.0  0.05553  0.89718  0.03144  1.0000
  H   H1050     1.0  0.02852  0.97338  0.00717  1.0000
  H   H1051     1.0  0.07381  0.89174  0.03230  1.0000
  C   C1320     1.0  0.21615  0.91390  0.06304  1.0000
  C   C1321     1.0  0.14270  0.86320  0.00090  1.0000
  H   H1052     1.0  0.36861  0.72070  0.18062  1.0000
  C   C1322     1.0  0.20135  0.91128  0.99542  1.0000
  C   C1323     1.0  0.11880  0.86854  0.00568  1.0000
  C   C1324     1.0  0.35012  0.72193  0.18431  1.0000
  C   C1325     1.0  0.21795  0.71363  0.12376  1.0000
  H   H1053     1.0  0.11265  0.87802  0.01415  1.0000
  H   H1054     1.0  0.48790  0.79423  0.14245  1.0000
  H   H1055     1.0  0.16906  0.84683  0.98620  1.0000
  C   C1326     1.0  0.49278  0.77558  0.14320  1.0000
  H   H1056     1.0  0.05016  0.85184  0.06925  1.0000
  H   H1057     1.0  0.21719  0.79366  0.21914  1.0000
  H   H1058     1.0  0.10450  0.77108  0.00070  1.0000
  H   H1059     1.0  0.48036  0.73041  0.13184  1.0000
  C   C1327     1.0  0.00808  0.91096  0.02927  1.0000
  C   C1328     1.0  0.35006  0.80863  0.15188  1.0000
  C   C1329     1.0  0.34254  0.78992  0.16093  1.0000
  C   C1330     1.0  0.32105  0.78395  0.16053  1.0000
  C   C1331     1.0  0.30652  0.79667  0.15117  1.0000
  C   C1332     1.0  0.31399  0.81530  0.14197  1.0000
  C   C1333     1.0  0.33567  0.82124  0.14235  1.0000
  H   H1060     1.0  0.35302  0.78023  0.16844  1.0000
  H   H1061     1.0  0.31567  0.76938  0.16758  1.0000
  H   H1062     1.0  0.30296  0.82531  0.13473  1.0000
  H   H1063     1.0  0.34121  0.83583  0.13534  1.0000
  C   C1334     1.0  0.43747  0.69811  0.17427  1.0000
  C   C1335     1.0  0.41882  0.70255  0.18468  1.0000
  H   H1064     1.0  0.35037  0.65913  0.10563  1.0000
  C   C1336     1.0  0.33435  0.65333  0.11063  1.0000
  H   H1065     1.0  0.41571  0.71836  0.18887  1.0000
  H   H1066     1.0  0.14478  0.85029  0.06809  1.0000
  C   C1337     1.0  0.19581  0.75266  0.19208  1.0000
  H   H1067     1.0  0.20202  0.66544  0.06029  1.0000
  H   H1068     1.0  0.30210  0.86121  0.10754  1.0000
  C   C1338     1.0  0.28366  0.78000  0.22856  1.0000
  H   H1069     1.0  0.24107  0.67930  0.14684  1.0000
  H   H1070     1.0  0.00863  0.75275  0.23265  1.0000
  C   C1339     1.0  0.19747  0.89315  0.12735  1.0000
  H   H1071     1.0  0.22965  0.87046  0.10412  1.0000
  H   H1072     1.0  0.16892  0.70787  0.19256  1.0000
  C   C1340     1.0  0.48289  0.73090  0.23321  1.0000
  C   C1341     1.0  0.27951  0.72497  0.12818  1.0000
  H   H1073     1.0  0.13430  0.90255  0.11961  1.0000
  C   C1342     1.0  0.31411  0.70767  0.18654  1.0000
  C   C1343     1.0  0.16601  0.83527  0.19692  1.0000
  C   C1344     1.0  0.14649  0.82910  0.19370  1.0000
  C   C1345     1.0  0.14550  0.82751  0.18016  1.0000
  C   C1346     1.0  0.16439  0.83125  0.16988  1.0000
  C   C1347     1.0  0.18418  0.83687  0.17313  1.0000
  C   C1348     1.0  0.18473  0.83942  0.18658  1.0000
  H   H1074     1.0  0.13182  0.82626  0.20158  1.0000
  H   H1075     1.0  0.13018  0.82318  0.17767  1.0000
  H   H1076     1.0  0.19884  0.83970  0.16524  1.0000
  C   C1349     1.0  0.18333  0.76966  0.18337  1.0000
  H   H1077     1.0  0.20230  0.89858  0.00461  1.0000
  H   H1078     1.0  0.20790  0.93856  0.00448  1.0000
  C   C1350     1.0  0.10024  0.78162  0.14702  1.0000
  C   C1351     1.0  0.11823  0.78588  0.13630  1.0000
  C   C1352     1.0  0.14124  0.77525  0.13754  1.0000
  C   C1353     1.0  0.14636  0.76061  0.14955  1.0000
  C   C1354     1.0  0.10523  0.76664  0.15898  1.0000
  H   H1079     1.0  0.08241  0.78997  0.14610  1.0000
  H   H1080     1.0  0.11440  0.79745  0.12703  1.0000
  H   H1081     1.0  0.15522  0.77832  0.12922  1.0000
  H   H1082     1.0  0.09100  0.76355  0.16712  1.0000
  C   C1355     1.0  0.23109  0.78848  0.21112  1.0000
  C   C1356     1.0  0.23878  0.80533  0.20067  1.0000
  C   C1357     1.0  0.25612  0.79881  0.18999  1.0000
  C   C1358     1.0  0.26584  0.77546  0.18984  1.0000
  C   C1359     1.0  0.25860  0.75835  0.20044  1.0000
  C   C1360     1.0  0.24097  0.76509  0.21110  1.0000
  P   P44       1.0  0.27117  0.72814  0.19972  1.0000
  C   C1361     1.0  0.30203  0.72584  0.19352  1.0000
  H   H1083     1.0  0.17143  0.84504  0.04665  1.0000
  C   C1362     1.0  0.33834  0.73965  0.19158  1.0000
  C   C1363     1.0  0.31444  0.74151  0.19629  1.0000
  C   C1364     1.0  0.25712  0.71774  0.18832  1.0000
  C   C1365     1.0  0.24934  0.73262  0.17688  1.0000
  C   C1366     1.0  0.23696  0.72502  0.16869  1.0000
  C   C1367     1.0  0.23225  0.70267  0.17176  1.0000
  C   C1368     1.0  0.99769  0.81430  0.01875  1.0000
  C   C1369     1.0  0.25342  0.69476  0.19091  1.0000
  S   S201      1.0  0.99950  0.86661  0.03403  1.0000
  H   H1084     1.0  0.23100  0.82340  0.20077  1.0000
  H   H1085     1.0  0.26178  0.81174  0.18164  1.0000
  H   H1086     1.0  0.27885  0.77079  0.18129  1.0000
  H   H1087     1.0  0.23442  0.75253  0.21930  1.0000
  C   C1370     1.0  0.03392  0.81784  0.22038  1.0000
  H   H1088     1.0  0.34776  0.75199  0.19358  1.0000
  H   H1089     1.0  0.30580  0.75526  0.20205  1.0000
  H   H1090     1.0  0.25246  0.75020  0.17425  1.0000
  H   H1091     1.0  0.23078  0.73646  0.15993  1.0000
  C   C1371     1.0  0.24206  0.66130  0.15144  1.0000
  C   C1372     1.0  0.04041  0.88871  0.06512  1.0000
  C   C1373     1.0  0.24098  0.68733  0.18263  1.0000
  H   H1092     1.0  0.10859  0.91191  0.98726  1.0000
  H   H1093     1.0  0.09344  0.65671  0.17123  1.0000
  C   C1374     1.0  0.10968  0.75697  0.19774  1.0000
  H   H1094     1.0  0.02964  0.70054  0.99513  1.0000
  C   C1375     1.0  0.44242  0.67681  0.16962  1.0000
  H   H1095     1.0  0.04276  0.76981  0.98494  1.0000
  H   H1096     1.0  0.25985  0.68267  0.19938  1.0000
  H   H1097     1.0  0.15552  0.77830  0.17153  1.0000
  H   H1098     1.0  0.17135  0.95972  0.06491  1.0000
  H   H1099     1.0  0.14758  0.65862  0.00191  1.0000
  H   H1100     1.0  0.30383  0.70517  0.21922  1.0000
  H   H1101     1.0  0.08425  0.86619  0.00306  1.0000
  C   C1376     1.0  0.05170  0.77811  0.99038  1.0000
  C   C1377     1.0  0.24449  0.87784  0.10474  1.0000
  C   C1378     1.0  0.40759  0.66626  0.18418  1.0000
  C   C1379     1.0  0.07628  0.79984  0.00353  1.0000
  H   H1102     1.0  0.11673  0.71070  0.21535  1.0000
  C   C1380     1.0  0.05380  0.81041  0.00096  1.0000
  C   C1381     1.0  0.47024  0.68846  0.20232  1.0000
  H   H1103     1.0  0.28129  0.74514  0.22794  1.0000
  C   C1382     1.0  0.44469  0.70280  0.09064  1.0000
  C   C1383     1.0  0.07315  0.73248  0.20154  1.0000
  H   H1104     1.0  0.28013  0.78605  0.21821  1.0000
  C   C1384     1.0  0.19179  0.90674  0.11505  1.0000
  C   C1385     1.0  0.26148  0.91094  0.10525  1.0000
  H   H1105     1.0  0.05892  0.72309  0.20299  1.0000
  C   C1386     1.0  0.29173  0.72487  0.14968  1.0000
  H   H1106     1.0  0.24082  0.73246  0.10874  1.0000
  H   H1107     1.0  0.09216  0.71644  0.18448  1.0000
  C   C1387     1.0  0.39402  0.70931  0.15077  1.0000
  C   C1388     1.0  0.21029  0.86337  0.22877  1.0000
  H   H1108     1.0  0.15828  0.83193  0.02807  1.0000
  H   H1109     1.0  0.22175  0.69745  0.16566  1.0000
  C   C1389     1.0  0.05297  0.80909  0.22757  1.0000
  C   C1390     1.0  0.44067  0.69303  0.10441  1.0000
  C   C1391     1.0  0.25658  0.84010  0.22936  1.0000
  H   H1110     1.0  0.09013  0.77327  0.21471  1.0000
  H   H1111     1.0  0.12349  0.76683  0.19643  1.0000
  C   C1392     1.0  0.28586  0.68906  0.14400  1.0000
  H   H1112     1.0  0.01429  0.94574  0.02675  1.0000
  C   C1393     1.0  0.07247  0.74853  0.21005  1.0000
  C   C1394     1.0  0.04712  0.90995  0.06436  1.0000
  P   P45       1.0  0.28658  0.82538  0.22907  1.0000
  C   C1395     1.0  0.26612  0.86334  0.10573  1.0000
  C   C1396     1.0  0.28540  0.87255  0.10664  1.0000
  H   H1113     1.0  0.28662  0.75492  0.13438  1.0000
  C   C1397     1.0  0.11329  0.85713  0.11237  1.0000
  C   C1398     1.0  0.13394  0.84126  0.11406  1.0000
  C   C1399     1.0  0.14323  0.82609  0.10467  1.0000
  C   C1400     1.0  0.13200  0.82675  0.09362  1.0000
  C   C1401     1.0  0.11165  0.84308  0.09160  1.0000
  C   C1402     1.0  0.10207  0.85797  0.10123  1.0000
  P   P46       1.0  0.09648  0.84229  0.07786  1.0000
  C   C1403     1.0  0.11634  0.83880  0.06220  1.0000
  C   C1404     1.0  0.08155  0.81814  0.08375  1.0000
  C   C1405     1.0  0.09148  0.79640  0.07995  1.0000
  C   C1406     1.0  0.08022  0.77751  0.08502  1.0000
  C   C1407     1.0  0.05917  0.78015  0.09402  1.0000
  C   C1408     1.0  0.04942  0.80165  0.09805  1.0000
  C   C1409     1.0  0.06067  0.82055  0.09302  1.0000
  C   C1410     1.0  0.10869  0.83234  0.05140  1.0000
  C   C1411     1.0  0.12382  0.82982  0.03914  1.0000
  C   C1412     1.0  0.14659  0.83383  0.03758  1.0000
  C   C1413     1.0  0.15405  0.84105  0.04809  1.0000
  C   C1414     1.0  0.13891  0.84381  0.06031  1.0000
  C   C1415     1.0  0.07631  0.86870  0.07356  1.0000
  C   C1416     1.0  0.08292  0.89009  0.07273  1.0000
  C   C1417     1.0  0.06841  0.91064  0.06813  1.0000
  C   C1418     1.0  0.14015  0.67932  0.22162  1.0000
  H   H1114     1.0  0.00085  0.92882  0.98890  1.0000
  C   C1419     1.0  0.05509  0.86811  0.06950  1.0000
  H   H1115     1.0  0.10608  0.86884  0.11968  1.0000
  H   H1116     1.0  0.14284  0.84076  0.12259  1.0000
  H   H1117     1.0  0.15933  0.81393  0.10582  1.0000
  H   H1118     1.0  0.13937  0.81460  0.08659  1.0000
  H   H1119     1.0  0.08597  0.87017  0.10018  1.0000
  H   H1120     1.0  0.10804  0.79392  0.07322  1.0000
  H   H1121     1.0  0.08799  0.76077  0.08205  1.0000
  C   C1420     1.0  0.12839  0.75609  0.16035  1.0000
  H   H1122     1.0  0.04899  0.86228  0.03440  1.0000
  C   C1421     1.0  0.04143  0.88049  0.03265  1.0000
  H   H1123     1.0  0.27493  0.73418  0.11847  1.0000
  H   H1124     1.0  0.16437  0.75276  0.15038  1.0000
  H   H1125     1.0  0.15271  0.71476  0.15050  1.0000
  H   H1126     1.0  0.06218  0.94440  0.99914  1.0000
  H   H1127     1.0  0.34755  0.69150  0.17676  1.0000
  C   C1422     1.0  0.08667  0.77866  0.99927  1.0000
  H   H1128     1.0  0.29644  0.73420  0.15662  1.0000
  H   H1129     1.0  0.30510  0.69489  0.18476  1.0000
  C   C1423     1.0  0.15045  0.66043  0.16749  1.0000
  H   H1130     1.0  0.20471  0.66392  0.15575  1.0000
  C   C1424     1.0  0.41536  0.71559  0.14457  1.0000
  H   H1131     1.0  0.46710  0.69824  0.19248  1.0000
  C   C1425     1.0  0.18055  0.88297  0.13670  1.0000
  H   H1132     1.0  0.12374  0.65572  0.02500  1.0000
  C   C1426     1.0  0.40125  0.69983  0.22407  1.0000
  H   H1133     1.0  0.05053  0.76547  0.09797  1.0000
  C   C1427     1.0  0.26743  0.71092  0.21652  1.0000
  C   C1428     1.0  0.03967  0.97777  0.99761  1.0000
  C   C1429     1.0  0.15780  0.88635  0.13393  1.0000
  C   C1430     1.0  0.22251  0.96504  0.09738  1.0000
  H   H1134     1.0  0.36541  0.70674  0.22100  1.0000
  H   H1135     1.0  0.35051  0.79888  0.19336  1.0000
  H   H1136     1.0  0.33617  0.82911  0.17487  1.0000
  H   H1137     1.0  0.29808  0.90345  0.10708  1.0000
  S   S202      1.0  0.18333  0.72628  0.23160  1.0000
  H   H1138     1.0  0.43340  0.71854  0.08684  1.0000
  C   C1431     1.0  0.33453  0.81117  0.19553  1.0000
  C   C1432     1.0  0.23428  0.71642  0.11190  1.0000
  H   H1139     1.0  0.44900  0.70518  0.13310  1.0000
  H   H1140     1.0  0.40781  0.70483  0.21341  1.0000
  C   C1433     1.0  0.45433  0.76492  0.22651  1.0000
  C   C1434     1.0  0.47864  0.66335  0.22775  1.0000
  C   C1435     1.0  0.32637  0.82807  0.18509  1.0000
  H   H1141     1.0  0.32913  0.79726  0.21681  1.0000
  C   C1436     1.0  0.32230  0.81029  0.20881  1.0000
  H   H1142     1.0  0.03588  0.83043  0.21120  1.0000
  C   C1437     1.0  0.16543  0.76454  0.17791  1.0000
  H   H1143     1.0  0.18733  0.78694  0.18099  1.0000
  C   C1438     1.0  0.29164  0.70116  0.15314  1.0000
  C   C1439     1.0  0.20906  0.69307  0.12751  1.0000
  H   H1144     1.0  0.19597  0.69116  0.13643  1.0000
  H   H1145     1.0  0.20527  0.96757  0.98359  1.0000
  H   H1146     1.0  0.49410  0.80535  0.16742  1.0000
  C   C1440     1.0  0.30568  0.84378  0.18783  1.0000
  C   C1441     1.0  0.01759  0.88737  0.03169  1.0000
  C   C1442     1.0  0.29334  0.84295  0.20110  1.0000
  C   C1443     1.0  0.40691  0.67192  0.14330  1.0000
  H   H1147     1.0  0.29658  0.69243  0.16280  1.0000
  C   C1444     1.0  0.46860  0.77921  0.22864  1.0000
  P   P47       1.0  0.29051  0.65782  0.14695  1.0000
  H   H1148     1.0  0.41885  0.73228  0.14541  1.0000
  H   H1149     1.0  0.29933  0.85668  0.17964  1.0000
  C   C1445     1.0  0.30166  0.82626  0.21173  1.0000
  H   H1150     1.0  0.02434  0.88816  0.06166  1.0000
  P   P48       1.0  0.13503  0.73615  0.17556  1.0000
  S   S203      1.0  0.16491  0.97855  0.01053  1.0000
  H   H1151     1.0  0.38088  0.72135  0.15614  1.0000
  H   H1152     1.0  0.21500  0.89025  0.12974  1.0000
  H   H1153     1.0  0.27743  0.85534  0.20295  1.0000
  C   C1446     1.0  0.46577  0.66594  0.20606  1.0000
  C   C1447     1.0  0.19005  0.94244  0.08148  1.0000
  C   C1448     1.0  0.42823  0.67830  0.13677  1.0000
  C   C1449     1.0  0.02667  0.70566  0.98464  1.0000
  C   C1450     1.0  0.16005  0.74217  0.18107  1.0000
  C   C1451     1.0  0.09072  0.76075  0.20814  1.0000
  H   H1154     1.0  0.46906  0.77311  0.13008  1.0000
  C   C1452     1.0  0.09208  0.72867  0.19109  1.0000
  H   H1155     1.0  0.23404  0.89550  0.07944  1.0000
  H   H1156     1.0  0.14487  0.87808  0.14114  1.0000
  C   C1453     1.0  0.20537  0.97436  0.12387  1.0000
  C   C1454     1.0  0.38582  0.78716  0.22901  1.0000
  H   H1157     1.0  0.05772  0.75171  0.21805  1.0000
  H   H1158     1.0  0.23043  0.71255  0.21729  1.0000
  H   H1159     1.0  0.38884  0.69065  0.19725  1.0000
  H   H1160     1.0  0.03325  0.80364  0.10516  1.0000
  H   H1161     1.0  0.19241  0.87220  0.22835  1.0000
  H   H1162     1.0  0.22593  0.90253  0.05596  1.0000
  H   H1163     1.0  0.08612  0.80880  0.00811  1.0000
  C   C1455     1.0  0.08909  0.66916  0.98884  1.0000
  C   C1456     1.0  0.32504  0.65721  0.12395  1.0000
  C   C1457     1.0  0.24238  0.69820  0.10420  1.0000
  H   H1164     1.0  0.25526  0.70025  0.09514  1.0000
  C   C1458     1.0  0.16879  0.91029  0.11242  1.0000
  H   H1165     1.0  0.17974  0.95367  0.08848  1.0000
  C   C1459     1.0  0.40381  0.68672  0.18956  1.0000
  C   C1460     1.0  0.11066  0.74071  0.18920  1.0000
  H   H1166     1.0  0.46607  0.69971  0.07109  1.0000
  H   H1167     1.0  0.00748  0.67874  0.98552  1.0000
  C   C1461     1.0  0.15393  0.67839  0.15668  1.0000
  C   C1462     1.0  0.19079  0.73034  0.19514  1.0000
  C   C1463     1.0  0.04126  0.79958  0.99442  1.0000
  C   C1464     1.0  0.14943  0.70132  0.15905  1.0000
  S   S204      1.0  0.37248  0.75889  0.21468  1.0000
  H   H1168     1.0  0.26013  0.92928  0.10504  1.0000
  C   C1465     1.0  0.37122  0.77162  0.22911  1.0000
  Fe  Fe106     1.0  0.15159  0.81130  0.22930  1.0000
  H   H1169     1.0  0.05058  0.96312  0.05382  1.0000
  H   H1170     1.0  0.07414  0.92698  0.06705  1.0000
  H   H1171     1.0  0.37353  0.68238  0.15529  1.0000
  H   H1172     1.0  0.18509  0.87213  0.14606  1.0000
  C   C1466     1.0  0.27933  0.70127  0.13161  1.0000
  C   C1467     1.0  0.14101  0.70654  0.17229  1.0000
  H   H1173     1.0  0.07810  0.65852  0.20903  1.0000
  C   C1468     1.0  0.23828  0.82761  0.23172  1.0000
  H   H1174     1.0  0.45718  0.67327  0.16178  1.0000
  C   C1469     1.0  0.28309  0.89634  0.10639  1.0000
  H   H1175     1.0  0.39782  0.79174  0.21990  1.0000
  H   H1176     1.0  0.23794  0.66974  0.18462  1.0000
  P   P49       1.0  0.21378  0.92000  0.10307  1.0000
  H   H1177     1.0  0.33352  0.66700  0.12880  1.0000
  C   C1470     1.0  0.02199  0.92757  0.02833  1.0000
  C   C1471     1.0  0.20766  0.92424  0.08580  1.0000
  H   H1178     1.0  0.26784  0.84493  0.10577  1.0000
  C   C1472     1.0  0.24196  0.90171  0.10451  1.0000
  H   H1179     1.0  0.33539  0.83152  0.22692  1.0000
  C   C1473     1.0  0.20520  0.95271  0.12066  1.0000
  C   C1474     1.0  0.23412  0.67722  0.10832  1.0000
  C   C1475     1.0  0.15189  0.90010  0.12183  1.0000
  H   H1180     1.0  0.19851  0.93978  0.12859  1.0000
  C   C1476     1.0  0.10276  0.86180  0.99941  1.0000
  C   C1477     1.0  0.22064  0.90993  0.07646  1.0000
  H   H1181     1.0  0.04666  0.82752  0.00358  1.0000
  P   P50       1.0  0.01246  0.81362  0.99074  1.0000
  H   H1182     1.0  0.16385  0.92045  0.10302  1.0000
  C   C1478     1.0  0.38987  0.68743  0.15022  1.0000
  H   H1183     1.0  0.03624  0.92577  0.06031  1.0000
  H   H1184     1.0  0.48244  0.71584  0.20798  1.0000
  C   C1479     1.0  0.21365  0.94794  0.10736  1.0000
  C   C1480     1.0  0.48244  0.68628  0.22420  1.0000
  H   H1185     1.0  0.26519  0.87435  0.22537  1.0000
  C   C1481     1.0  0.13283  0.70334  0.21929  1.0000
  C   C1482     1.0  0.05867  0.96143  0.99306  1.0000
  C   C1483     1.0  0.17299  0.72507  0.18967  1.0000
  H   H1186     1.0  0.13160  0.69181  0.19336  1.0000
  H   H1187     1.0  0.20929  0.75686  0.19649  1.0000
  C   C1484     1.0  0.18536  0.94609  0.06811  1.0000
  H   H1188     1.0  0.14005  0.73638  0.22079  1.0000
  C   C1485     1.0  0.16693  0.70845  0.22743  1.0000
  C   C1486     1.0  0.15057  0.85088  0.98993  1.0000
  C   C1487     1.0  0.13770  0.68831  0.18307  1.0000
  C   C1488     1.0  0.21720  0.67487  0.11992  1.0000
  H   H1189     1.0  0.27475  0.69238  0.12441  1.0000
  H   H1190     1.0  0.20037  0.71725  0.20200  1.0000
  H   H1191     1.0  0.46338  0.79788  0.22642  1.0000
  S   S205      1.0  0.13520  0.78443  0.22381  1.0000
  H   H1192     1.0  0.08280  0.75178  0.98895  1.0000
  C   C1489     1.0  0.24523  0.70651  0.22271  1.0000
  C   C1490     1.0  0.14598  0.71788  0.22242  1.0000
  H   H1193     1.0  0.44984  0.73023  0.22716  1.0000
  C   C1491     1.0  0.43246  0.70012  0.13767  1.0000
  C   C1492     1.0  0.48969  0.76946  0.23343  1.0000
  C   C1493     1.0  0.47883  0.69849  0.21124  1.0000
  C   C1494     1.0  0.14237  0.66539  0.18070  1.0000
  H   H1194     1.0  0.22941  0.96162  0.08710  1.0000
  C   C1495     1.0  0.37734  0.70089  0.22839  1.0000
  H   H1195     1.0  0.01493  0.81679  0.01933  1.0000
  C   C1496     1.0  0.19843  0.93186  0.05889  1.0000
  C   C1497     1.0  0.01241  0.81042  0.22497  1.0000
  H   H1196     1.0  0.19878  0.97795  0.13414  1.0000
  H   H1197     1.0  0.07642  0.97254  0.06775  1.0000
  H   H1198     1.0  0.19455  0.93450  0.04859  1.0000
  H   H1199     1.0  0.43797  0.77261  0.22282  1.0000
  H   H1200     1.0  0.42602  0.70134  0.11100  1.0000
  C   C1498     1.0  0.16113  0.66999  0.22660  1.0000
  H   H1201     1.0  0.16031  0.67447  0.14644  1.0000
  C   C1499     1.0  0.20459  0.93372  0.99533  1.0000
  C   C1500     1.0  0.48229  0.76370  0.13617  1.0000
  H   H1202     1.0  0.09702  0.68352  0.98955  1.0000
  C   C1501     1.0  0.17467  0.68454  0.22936  1.0000
  H   H1203     1.0  0.43498  0.69286  0.23015  1.0000
  C   C1502     1.0  0.22831  0.87597  0.22671  1.0000
  H   H1204     1.0  0.22437  0.89470  0.22477  1.0000
  C   C1503     1.0  0.28637  0.70247  0.22375  1.0000
  C   C1504     1.0  0.07439  0.76779  0.99269  1.0000
  C   C1505     1.0  0.05414  0.98049  0.05231  1.0000
  C   C1506     1.0  0.46308  0.69217  0.08177  1.0000
  C   C1507     1.0  0.46131  0.74088  0.22885  1.0000
  C   C1508     1.0  0.48868  0.73966  0.13714  1.0000
  S   S206      1.0  0.12256  0.66132  0.21856  1.0000
  C   C1509     1.0  0.21528  0.83925  0.23139  1.0000
  C   C1510     1.0  0.25136  0.86440  0.22706  1.0000
  C   C1511     1.0  0.06878  0.98578  0.06011  1.0000
  H   H1205     1.0  0.20464  0.66851  0.20766  1.0000
  H   H1206     1.0  0.06937  0.81506  0.22395  1.0000
  H   H1207     1.0  0.08817  0.69341  0.23196  1.0000
  C   C1512     1.0  0.42742  0.66078  0.17457  1.0000
  C   C1513     1.0  0.45525  0.67265  0.10942  1.0000
  H   H1208     1.0  0.49252  0.67999  0.11915  1.0000
  H   H1209     1.0  0.21025  0.65907  0.12300  1.0000
  H   H1210     1.0  0.40333  0.65502  0.14322  1.0000
  C   C1514     1.0  0.47741  0.67168  0.08664  1.0000
  C   C1515     1.0  0.13448  0.84431  0.98357  1.0000
  C   C1516     1.0  0.04636  0.65518  0.20272  1.0000
  H   H1211     1.0  0.45897  0.65832  0.19910  1.0000
  C   C1517     1.0  0.06012  0.65632  0.21228  1.0000
  H   H1212     1.0  0.05360  0.65629  0.19202  1.0000
  C   C1518     1.0  0.05056  0.65503  0.22609  1.0000
  P   P51       1.0  0.45016  0.65930  0.12704  1.0000
  C   C1519     1.0  0.47345  0.66188  0.10040  1.0000
  C   C1520     1.0  0.47656  0.65485  0.13443  1.0000
  H   H1213     1.0  0.39760  0.65469  0.21538  1.0000
  C   C1521     1.0  0.47031  0.65326  0.21870  1.0000
  H   H1214     1.0  0.19308  0.88798  0.98416  1.0000
  H   H1215     1.0  0.49149  0.66328  0.07973  1.0000
  C   C1522     1.0  0.49440  0.66735  0.12827  1.0000
  S   S207      1.0  0.24498  0.65419  0.09889  1.0000
  C   C1523     1.0  0.19606  0.90534  0.98380  1.0000
  C   C1524     1.0  0.20303  0.95011  0.98352  1.0000
  H   H1216     1.0  0.06119  0.65680  0.23326  1.0000
  H   H1217     1.0  0.20120  0.82960  0.23310  1.0000
  H   H1218     1.0  0.19074  0.67717  0.23340  1.0000
  H   H1219     1.0  0.15460  0.97494  0.98355  1.0000
  Fe  Fe107     1.0  0.15259  0.78838  0.25882  1.0000
  H   H1220     1.0  0.41937  0.96336  0.39154  1.0000
  S   S208      1.0  0.16555  0.78382  0.27912  1.0000
  S   S209      1.0  0.48898  0.87475  0.36816  1.0000
  C   C1525     1.0  0.36789  0.98067  0.41732  1.0000
  C   C1526     1.0  0.20405  0.66356  0.29796  1.0000
  S   S210      1.0  0.13573  0.76011  0.25563  1.0000
  C   C1527     1.0  0.29161  0.78725  0.24983  1.0000
  Fe  Fe108     1.0  0.28881  0.80229  0.29446  1.0000
  S   S211      1.0  0.31538  0.77290  0.28698  1.0000
  S   S212      1.0  0.25853  0.81798  0.28263  1.0000
  Fe  Fe109     1.0  0.32127  0.81142  0.31308  1.0000
  S   S213      1.0  0.34979  0.78286  0.30650  1.0000
  S   S214      1.0  0.32439  0.83163  0.32960  1.0000
  Fe  Fe110     1.0  0.34135  0.79587  0.28533  1.0000
  S   S215      1.0  0.36931  0.80279  0.26729  1.0000
  Fe  Fe111     1.0  0.32119  0.76245  0.30877  1.0000
  S   S216      1.0  0.32960  0.72495  0.31837  1.0000
  S   S217      1.0  0.31474  0.82598  0.29165  1.0000
  S   S218      1.0  0.29261  0.79020  0.31667  1.0000
  C   C1528     1.0  0.14501  0.69450  0.26039  1.0000
  P   P52       1.0  0.49220  0.69977  0.23608  1.0000
  Fe  Fe112     1.0  0.41948  0.94162  0.36428  1.0000
  S   S219      1.0  0.43354  0.91741  0.38179  1.0000
  Fe  Fe113     1.0  0.41055  0.90175  0.35146  1.0000
  S   S220      1.0  0.42439  0.87484  0.36810  1.0000
  S   S221      1.0  0.40142  0.88996  0.33318  1.0000
  Fe  Fe114     1.0  0.40405  0.89930  0.38207  1.0000
  S   S222      1.0  0.38448  0.88548  0.40211  1.0000
  Fe  Fe115     1.0  0.45278  0.89515  0.36629  1.0000
  C   C1529     1.0  0.44944  0.69233  0.27305  1.0000
  S   S223      1.0  0.38791  0.92525  0.36571  1.0000
  S   S224      1.0  0.44099  0.92051  0.34843  1.0000
  C   C1530     1.0  0.40515  0.87147  0.41269  1.0000
  C   C1531     1.0  0.39802  0.86468  0.42659  1.0000
  C   C1532     1.0  0.41455  0.85304  0.43498  1.0000
  C   C1533     1.0  0.43825  0.84844  0.42957  1.0000
  C   C1534     1.0  0.44540  0.85616  0.41577  1.0000
  C   C1535     1.0  0.42888  0.86720  0.40729  1.0000
  H   H1221     1.0  0.37971  0.86817  0.43086  1.0000
  H   H1222     1.0  0.40878  0.84748  0.44556  1.0000
  H   H1223     1.0  0.46371  0.85337  0.41155  1.0000
  H   H1224     1.0  0.43461  0.87202  0.39653  1.0000
  H   H1225     1.0  0.36532  0.79016  0.37417  1.0000
  C   C1536     1.0  0.36871  0.69576  0.24227  1.0000
  C   C1537     1.0  0.37727  0.94837  0.46237  1.0000
  H   H1226     1.0  0.39555  0.75289  0.42053  1.0000
  C   C1538     1.0  0.10539  0.66528  0.29458  1.0000
  H   H1227     1.0  0.01351  0.66337  0.27527  1.0000
  C   C1539     1.0  0.34653  0.84702  0.33062  1.0000
  C   C1540     1.0  0.34416  0.85846  0.34188  1.0000
  C   C1541     1.0  0.36113  0.87102  0.34308  1.0000
  C   C1542     1.0  0.38050  0.87272  0.33284  1.0000
  C   C1543     1.0  0.38278  0.86140  0.32155  1.0000
  C   C1544     1.0  0.36614  0.84833  0.32055  1.0000
  H   H1228     1.0  0.32906  0.85764  0.34973  1.0000
  H   H1229     1.0  0.35895  0.87983  0.35174  1.0000
  H   H1230     1.0  0.39762  0.86262  0.31355  1.0000
  H   H1231     1.0  0.36854  0.83925  0.31199  1.0000
  C   C1545     1.0  0.31297  0.70611  0.31517  1.0000
  C   C1546     1.0  0.32275  0.68260  0.31558  1.0000
  H   H1232     1.0  0.35515  0.84555  0.24209  1.0000
  C   C1547     1.0  0.28773  0.67525  0.30940  1.0000
  C   C1548     1.0  0.27744  0.69855  0.30974  1.0000
  C   C1549     1.0  0.29023  0.71411  0.31229  1.0000
  H   H1233     1.0  0.34012  0.67628  0.31813  1.0000
  H   H1234     1.0  0.29728  0.68556  0.24291  1.0000
  H   H1235     1.0  0.25979  0.70472  0.30765  1.0000
  H   H1236     1.0  0.28244  0.73219  0.31217  1.0000
  C   C1550     1.0  0.36925  0.79116  0.25256  1.0000
  H   H1237     1.0  0.46284  0.93768  0.40553  1.0000
  H   H1238     1.0  0.34312  0.65568  0.26692  1.0000
  C   C1551     1.0  0.35443  0.77586  0.25256  1.0000
  C   C1552     1.0  0.36272  0.94327  0.47481  1.0000
  Fe  Fe116     1.0  0.11150  0.78754  0.24390  1.0000
  H   H1239     1.0  0.34247  0.77124  0.26160  1.0000
  C   C1553     1.0  0.19287  0.79128  0.27939  1.0000
  C   C1554     1.0  0.20278  0.80653  0.26870  1.0000
  C   C1555     1.0  0.22331  0.81392  0.26970  1.0000
  C   C1556     1.0  0.23454  0.80572  0.28121  1.0000
  C   C1557     1.0  0.22524  0.78964  0.29165  1.0000
  C   C1558     1.0  0.20431  0.78271  0.29081  1.0000
  H   H1240     1.0  0.19407  0.81344  0.25991  1.0000
  H   H1241     1.0  0.23020  0.82654  0.26165  1.0000
  H   H1242     1.0  0.23357  0.78337  0.30063  1.0000
  H   H1243     1.0  0.19679  0.77095  0.29915  1.0000
  C   C1559     1.0  0.05061  0.79291  0.23948  1.0000
  H   H1244     1.0  0.04460  0.74619  0.29849  1.0000
  C   C1560     1.0  0.06267  0.74804  0.29555  1.0000
  C   C1561     1.0  0.45054  0.89573  0.43854  1.0000
  C   C1562     1.0  0.28952  0.97123  0.25995  1.0000
  C   C1563     1.0  0.47990  0.68885  0.25331  1.0000
  H   H1245     1.0  0.09741  0.78716  0.29450  1.0000
  C   C1564     1.0  0.34791  0.86655  0.28831  1.0000
  C   C1565     1.0  0.02908  0.78553  0.24407  1.0000
  H   H1246     1.0  0.06358  0.69234  0.31729  1.0000
  S   S225      1.0  0.45926  0.83284  0.43968  1.0000
  S   S226      1.0  0.12638  0.81634  0.24873  1.0000
  C   C1566     1.0  0.28442  0.75669  0.23403  1.0000
  C   C1567     1.0  0.08431  0.71881  0.25980  1.0000
  H   H1247     1.0  0.46422  0.93660  0.45376  1.0000
  H   H1248     1.0  0.13407  0.66779  0.25297  1.0000
  H   H1249     1.0  0.28330  0.98617  0.25277  1.0000
  H   H1250     1.0  0.38474  0.89095  0.25482  1.0000
  C   C1568     1.0  0.14433  0.67161  0.25976  1.0000
  C   C1569     1.0  0.02881  0.69034  0.29843  1.0000
  C   C1570     1.0  0.29267  0.76384  0.25519  1.0000
  H   H1251     1.0  0.34413  0.75404  0.24099  1.0000
  H   H1252     1.0  0.30543  0.87629  0.31604  1.0000
  C   C1571     1.0  0.29271  0.87660  0.30959  1.0000
  H   H1253     1.0  0.39486  0.84961  0.26503  1.0000
  H   H1254     1.0  0.29035  0.85932  0.26899  1.0000
  C   C1572     1.0  0.38383  0.72627  0.29613  1.0000
  C   C1573     1.0  0.39327  0.74409  0.28730  1.0000
  C   C1574     1.0  0.39642  0.74454  0.27323  1.0000
  C   C1575     1.0  0.38993  0.72736  0.26795  1.0000
  C   C1576     1.0  0.38115  0.70887  0.27677  1.0000
  C   C1577     1.0  0.37780  0.70873  0.29092  1.0000
  P   P53       1.0  0.37297  0.68637  0.27000  1.0000
  H   H1255     1.0  0.42210  0.91293  0.42809  1.0000
  C   C1578     1.0  0.34169  0.68927  0.27236  1.0000
  C   C1579     1.0  0.32690  0.70910  0.27655  1.0000
  C   C1580     1.0  0.30269  0.71067  0.27847  1.0000
  C   C1581     1.0  0.29313  0.69267  0.27610  1.0000
  H   H1256     1.0  0.49059  0.92448  0.48260  1.0000
  C   C1582     1.0  0.48168  0.90418  0.40167  1.0000
  H   H1257     1.0  0.29429  0.79873  0.25621  1.0000
  C   C1583     1.0  0.30097  0.83841  0.23898  1.0000
  H   H1258     1.0  0.08282  0.66085  0.33341  1.0000
  H   H1259     1.0  0.47458  0.66568  0.46679  1.0000
  C   C1584     1.0  0.31043  0.66734  0.31233  1.0000
  C   C1585     1.0  0.38409  0.68922  0.25194  1.0000
  C   C1586     1.0  0.02787  0.72447  0.28107  1.0000
  H   H1260     1.0  0.35409  0.92848  0.47683  1.0000
  H   H1261     1.0  0.35002  0.69781  0.24534  1.0000
  H   H1262     1.0  0.11627  0.71957  0.28309  1.0000
  P   P54       1.0  0.31614  0.90758  0.29050  1.0000
  H   H1263     1.0  0.38041  0.72647  0.30703  1.0000
  H   H1264     1.0  0.39739  0.75803  0.29130  1.0000
  H   H1265     1.0  0.40309  0.75878  0.26639  1.0000
  H   H1266     1.0  0.39137  0.72905  0.25699  1.0000
  H   H1267     1.0  0.36983  0.69562  0.29799  1.0000
  H   H1268     1.0  0.33392  0.72313  0.27861  1.0000
  H   H1269     1.0  0.29132  0.72545  0.28234  1.0000
  H   H1270     1.0  0.27442  0.69345  0.27815  1.0000
  C   C1587     1.0  0.32387  0.85424  0.25622  1.0000
  H   H1271     1.0  0.22441  0.69212  0.24088  1.0000
  C   C1588     1.0  0.33198  0.67125  0.27001  1.0000
  C   C1589     1.0  0.33641  0.84642  0.24433  1.0000
  C   C1590     1.0  0.08096  0.69991  0.27009  1.0000
  H   H1272     1.0  0.19312  0.67605  0.31739  1.0000
  C   C1591     1.0  0.39123  0.65381  0.36025  1.0000
  C   C1592     1.0  0.48889  0.98603  0.39206  1.0000
  H   H1273     1.0  0.44165  0.73714  0.46441  1.0000
  C   C1593     1.0  0.41535  0.78219  0.43430  1.0000
  H   H1274     1.0  0.44226  0.81190  0.37942  1.0000
  H   H1275     1.0  0.27010  0.84567  0.25397  1.0000
  C   C1594     1.0  0.42804  0.90861  0.43786  1.0000
  C   C1595     1.0  0.41683  0.72140  0.41484  1.0000
  H   H1276     1.0  0.02190  0.77930  0.28254  1.0000
  C   C1596     1.0  0.47997  0.92701  0.40359  1.0000
  C   C1597     1.0  0.15865  0.69938  0.26893  1.0000
  C   C1598     1.0  0.17202  0.68143  0.27682  1.0000
  H   H1277     1.0  0.45049  0.71742  0.25489  1.0000
  P   P55       1.0  0.18844  0.68872  0.28824  1.0000
  C   C1599     1.0  0.00816  0.73480  0.23673  1.0000
  C   C1600     1.0  0.20918  0.70706  0.27965  1.0000
  C   C1601     1.0  0.22341  0.71356  0.28734  1.0000
  C   C1602     1.0  0.23624  0.73111  0.28167  1.0000
  C   C1603     1.0  0.23542  0.74191  0.26819  1.0000
  C   C1604     1.0  0.22243  0.73461  0.26022  1.0000
  C   C1605     1.0  0.20942  0.71721  0.26589  1.0000
  C   C1606     1.0  0.47646  0.96691  0.42181  1.0000
  C   C1607     1.0  0.44754  0.97127  0.44696  1.0000
  H   H1278     1.0  0.02702  0.77312  0.25329  1.0000
  H   H1279     1.0  0.12733  0.75573  0.28584  1.0000
  C   C1608     1.0  0.28847  0.84652  0.25089  1.0000
  C   C1609     1.0  0.16650  0.70436  0.29980  1.0000
  C   C1610     1.0  0.14894  0.69328  0.30802  1.0000
  C   C1611     1.0  0.13178  0.70511  0.31702  1.0000
  C   C1612     1.0  0.13201  0.72809  0.31785  1.0000
  C   C1613     1.0  0.14930  0.73929  0.30960  1.0000
  C   C1614     1.0  0.16636  0.72757  0.30053  1.0000
  C   C1615     1.0  0.36955  0.96803  0.40682  1.0000
  P   P56       1.0  0.07175  0.70424  0.28759  1.0000
  C   C1616     1.0  0.35568  0.87170  0.46717  1.0000
  H   H1280     1.0  0.15892  0.71723  0.26935  1.0000
  H   H1281     1.0  0.08412  0.73562  0.26230  1.0000
  H   H1282     1.0  0.22360  0.70592  0.29795  1.0000
  H   H1283     1.0  0.24612  0.73696  0.28789  1.0000
  H   H1284     1.0  0.24434  0.75634  0.26405  1.0000
  H   H1285     1.0  0.22166  0.74304  0.24977  1.0000
  H   H1286     1.0  0.19912  0.71241  0.25953  1.0000
  H   H1287     1.0  0.43701  0.97327  0.45677  1.0000
  H   H1288     1.0  0.29013  0.92223  0.31611  1.0000
  C   C1617     1.0  0.47592  0.68381  0.46492  1.0000
  C   C1618     1.0  0.30779  0.67297  0.27190  1.0000
  C   C1619     1.0  0.44673  0.74944  0.39828  1.0000
  H   H1289     1.0  0.14869  0.67546  0.30750  1.0000
  H   H1290     1.0  0.11834  0.69645  0.32337  1.0000
  H   H1291     1.0  0.11869  0.73733  0.32477  1.0000
  H   H1292     1.0  0.14932  0.75728  0.30996  1.0000
  H   H1293     1.0  0.17911  0.73694  0.29402  1.0000
  C   C1620     1.0  0.38493  0.80270  0.44949  1.0000
  H   H1294     1.0  0.05600  0.78227  0.30095  1.0000
  C   C1621     1.0  0.37998  0.93252  0.42216  1.0000
  C   C1622     1.0  0.37886  0.94504  0.43275  1.0000
  C   C1623     1.0  0.29608  0.94938  0.25598  1.0000
  C   C1624     1.0  0.15701  0.65362  0.26784  1.0000
  C   C1625     1.0  0.48510  0.97885  0.38035  1.0000
  S   S227      1.0  0.07361  0.78181  0.24926  1.0000
  H   H1295     1.0  0.38635  0.88453  0.46790  1.0000
  H   H1296     1.0  0.29621  0.75779  0.26549  1.0000
  S   S228      1.0  0.40792  0.83053  0.47192  1.0000
  C   C1626     1.0  0.09236  0.77125  0.29352  1.0000
  H   H1297     1.0  0.03630  0.68907  0.25640  1.0000
  C   C1627     1.0  0.01153  0.79465  0.27763  1.0000
  H   H1298     1.0  0.35839  0.83269  0.36728  1.0000
  C   C1628     1.0  0.42647  0.75959  0.40624  1.0000
  C   C1629     1.0  0.37376  0.80061  0.37863  1.0000
  C   C1630     1.0  0.46313  0.95070  0.44528  1.0000
  C   C1631     1.0  0.29100  0.97382  0.27319  1.0000
  C   C1632     1.0  0.37569  0.81642  0.43828  1.0000
  H   H1299     1.0  0.37040  0.97961  0.43813  1.0000
  C   C1633     1.0  0.32918  0.89560  0.45247  1.0000
  C   C1634     1.0  0.37557  0.94398  0.40925  1.0000
  C   C1635     1.0  0.38629  0.81313  0.42503  1.0000
  C   C1636     1.0  0.00397  0.72572  0.28147  1.0000
  C   C1637     1.0  0.37233  0.96928  0.43024  1.0000
  H   H1300     1.0  0.39141  0.77154  0.39103  1.0000
  C   C1638     1.0  0.32496  0.91650  0.30454  1.0000
  C   C1639     1.0  0.45571  0.70069  0.46601  1.0000
  C   C1640     1.0  0.44463  0.89563  0.46286  1.0000
  H   H1301     1.0  0.44120  0.69281  0.40726  1.0000
  C   C1641     1.0  0.38862  0.79014  0.38819  1.0000
  C   C1642     1.0  0.46070  0.98013  0.47974  1.0000
  C   C1643     1.0  0.37429  0.88413  0.26411  1.0000
  C   C1644     1.0  0.37056  0.88787  0.46342  1.0000
  C   C1645     1.0  0.49034  0.66751  0.26011  1.0000
  C   C1646     1.0  0.35767  0.67060  0.34887  1.0000
  C   C1647     1.0  0.35503  0.89849  0.27035  1.0000
  C   C1648     1.0  0.33900  0.92888  0.32671  1.0000
  C   C1649     1.0  0.27688  0.88991  0.28850  1.0000
  C   C1650     1.0  0.08582  0.68114  0.29930  1.0000
  H   H1302     1.0  0.46129  0.89007  0.42946  1.0000
  C   C1651     1.0  0.46096  0.80137  0.41032  1.0000
  C   C1652     1.0  0.45301  0.81126  0.38707  1.0000
  H   H1303     1.0  0.24802  0.84950  0.30905  1.0000
  H   H1304     1.0  0.37371  0.92353  0.31535  1.0000
  C   C1653     1.0  0.34115  0.88951  0.28224  1.0000
  C   C1654     1.0  0.08719  0.71640  0.24609  1.0000
  C   C1655     1.0  0.38064  0.83822  0.38041  1.0000
  H   H1305     1.0  0.48558  0.66545  0.42204  1.0000
  C   C1656     1.0  0.36981  0.82462  0.37473  1.0000
  C   C1657     1.0  0.29334  0.89052  0.29670  1.0000
  C   C1658     1.0  0.45202  0.72543  0.39868  1.0000
  H   H1306     1.0  0.36174  0.91255  0.29591  1.0000
  H   H1307     1.0  0.08433  0.65936  0.24993  1.0000
  C   C1659     1.0  0.47365  0.82012  0.38305  1.0000
  C   C1660     1.0  0.35548  0.76603  0.24088  1.0000
  C   C1661     1.0  0.48180  0.80991  0.40621  1.0000
  P   P57       1.0  0.01350  0.65640  0.24751  1.0000
  Fe  Fe117     1.0  0.44502  0.82311  0.46181  1.0000
  H   H1308     1.0  0.31321  0.89854  0.44817  1.0000
  C   C1662     1.0  0.01004  0.79443  0.23693  1.0000
  H   H1309     1.0  0.41673  0.98415  0.41092  1.0000
  H   H1310     1.0  0.33290  0.85935  0.26316  1.0000
  H   H1311     1.0  0.29493  0.94736  0.24572  1.0000
  C   C1663     1.0  0.45739  0.72407  0.46347  1.0000
  C   C1664     1.0  0.29904  0.95457  0.28247  1.0000
  H   H1312     1.0  0.04100  0.81179  0.26997  1.0000
  C   C1665     1.0  0.04046  0.70684  0.28959  1.0000
  H   H1313     1.0  0.33831  0.85960  0.29788  1.0000
  H   H1314     1.0  0.37751  0.85688  0.37745  1.0000
  P   P58       1.0  0.41960  0.79055  0.40593  1.0000
  C   C1666     1.0  0.45873  0.88902  0.45104  1.0000
  H   H1315     1.0  0.37680  0.80533  0.45976  1.0000
  C   C1667     1.0  0.08901  0.66203  0.32255  1.0000
  H   H1316     1.0  0.24153  0.80893  0.23389  1.0000
  C   C1668     1.0  0.07955  0.73040  0.29022  1.0000
  C   C1669     1.0  0.28731  0.79543  0.23640  1.0000
  C   C1670     1.0  0.39563  0.82782  0.38988  1.0000
  H   H1317     1.0  0.30914  0.91328  0.26199  1.0000
  C   C1671     1.0  0.26050  0.87530  0.29301  1.0000
  H   H1318     1.0  0.36654  0.97680  0.39674  1.0000
  H   H1319     1.0  0.37892  0.82428  0.41657  1.0000
  C   C1672     1.0  0.41350  0.91490  0.44976  1.0000
  H   H1320     1.0  0.01746  0.84719  0.25884  1.0000
  H   H1321     1.0  0.03819  0.67611  0.30476  1.0000
  C   C1673     1.0  0.02230  0.81306  0.27065  1.0000
  H   H1322     1.0  0.37688  0.93419  0.40109  1.0000
  H   H1323     1.0  0.36052  0.82991  0.43982  1.0000
  C   C1674     1.0  0.10296  0.73310  0.28700  1.0000
  H   H1324     1.0  0.43062  0.76876  0.43300  1.0000
  C   C1675     1.0  0.39975  0.80370  0.39387  1.0000
  H   H1325     1.0  0.41139  0.91291  0.47163  1.0000
  C   C1676     1.0  0.10928  0.75349  0.28859  1.0000
  C   C1677     1.0  0.36485  0.90808  0.45412  1.0000
  C   C1678     1.0  0.30571  0.93255  0.27856  1.0000
  H   H1326     1.0  0.44731  0.67331  0.43692  1.0000
  H   H1327     1.0  0.28993  0.73035  0.25148  1.0000
  S   S229      1.0  0.45876  0.83665  0.47716  1.0000
  H   H1328     1.0  0.40403  0.83864  0.39410  1.0000
  S   S230      1.0  0.41883  0.98036  0.36236  1.0000
  C   C1679     1.0  0.41145  0.74540  0.41444  1.0000
  S   S231      1.0  0.45119  0.78628  0.47217  1.0000
  H   H1329     1.0  0.35657  0.66251  0.29675  1.0000
  H   H1330     1.0  0.47575  0.87815  0.45159  1.0000
  H   H1331     1.0  0.40521  0.71055  0.42124  1.0000
  C   C1680     1.0  0.36718  0.85227  0.28210  1.0000
  C   C1681     1.0  0.30414  0.93011  0.26523  1.0000
  C   C1682     1.0  0.29991  0.85434  0.25947  1.0000
  C   C1683     1.0  0.43712  0.71141  0.40697  1.0000
  C   C1684     1.0  0.44627  0.80214  0.40080  1.0000
  H   H1332     1.0  0.45842  0.76003  0.39175  1.0000
  H   H1333     1.0  0.24838  0.87419  0.28647  1.0000
  H   H1334     1.0  0.45618  0.79491  0.42100  1.0000
  H   H1335     1.0  0.41204  0.77519  0.45622  1.0000
  C   C1685     1.0  0.08076  0.67849  0.26644  1.0000
  C   C1686     1.0  0.42222  0.90862  0.46223  1.0000
  H   H1336     1.0  0.27687  0.90015  0.27849  1.0000
  C   C1687     1.0  0.47930  0.73060  0.45974  1.0000
  H   H1337     1.0  0.38406  0.91380  0.42390  1.0000
  C   C1688     1.0  0.39707  0.67572  0.35859  1.0000
  H   H1338     1.0  0.30005  0.95700  0.29266  1.0000
  C   C1689     1.0  0.36358  0.69246  0.34723  1.0000
  C   C1690     1.0  0.38319  0.69505  0.35213  1.0000
  C   C1691     1.0  0.34378  0.91202  0.44889  1.0000
  H   H1339     1.0  0.46606  0.89737  0.40198  1.0000
  H   H1340     1.0  0.37190  0.83433  0.28667  1.0000
  H   H1341     1.0  0.34271  0.66919  0.34462  1.0000
  H   H1342     1.0  0.47825  0.82799  0.37255  1.0000
  C   C1692     1.0  0.35542  0.92352  0.31539  1.0000
  C   C1693     1.0  0.26023  0.86134  0.30577  1.0000
  C   C1694     1.0  0.34852  0.91722  0.30437  1.0000
  C   C1695     1.0  0.40614  0.79584  0.42293  1.0000
  C   C1696     1.0  0.31547  0.92853  0.32688  1.0000
  P   P59       1.0  0.38348  0.92957  0.44959  1.0000
  C   C1697     1.0  0.41968  0.98168  0.38963  1.0000
  C   C1698     1.0  0.28918  0.74849  0.24729  1.0000
  H   H1343     1.0  0.33864  0.92766  0.44194  1.0000
  C   C1699     1.0  0.38899  0.96703  0.46045  1.0000
  C   C1700     1.0  0.38018  0.86093  0.26991  1.0000
  H   H1344     1.0  0.35295  0.70742  0.34205  1.0000
  H   H1345     1.0  0.38767  0.71206  0.35081  1.0000
  H   H1346     1.0  0.49243  0.81017  0.41377  1.0000
  C   C1701     1.0  0.48799  0.81958  0.39261  1.0000
  C   C1702     1.0  0.27617  0.86218  0.31411  1.0000
  C   C1703     1.0  0.40482  0.78568  0.44750  1.0000
  H   H1347     1.0  0.30278  0.93251  0.33572  1.0000
  H   H1348     1.0  0.34468  0.93292  0.33541  1.0000
  H   H1349     1.0  0.35118  0.91653  0.26590  1.0000
  C   C1704     1.0  0.30841  0.92257  0.31579  1.0000
  H   H1350     1.0  0.43364  0.70201  0.27811  1.0000
  C   C1705     1.0  0.06907  0.76847  0.29709  1.0000
  H   H1351     1.0  0.27629  0.85104  0.32393  1.0000
  C   C1706     1.0  0.02355  0.69867  0.25013  1.0000
  H   H1352     1.0  0.40062  0.97090  0.45105  1.0000
  H   H1353     1.0  0.25745  0.67969  0.25407  1.0000
  C   C1707     1.0  0.08411  0.67600  0.25271  1.0000
  H   H1354     1.0  0.13541  0.70849  0.25398  1.0000
  H   H1355     1.0  0.03666  0.73704  0.27390  1.0000
  C   C1708     1.0  0.40814  0.68798  0.24743  1.0000
  C   C1709     1.0  0.33514  0.87542  0.46160  1.0000
  C   C1710     1.0  0.26036  0.68795  0.24352  1.0000
  H   H1356     1.0  0.99589  0.67891  0.30567  1.0000
  H   H1357     1.0  0.41243  0.67770  0.36227  1.0000
  C   C1711     1.0  0.07807  0.67974  0.31339  1.0000
  H   H1358     1.0  0.42021  0.68396  0.25469  1.0000
  C   C1712     1.0  0.45920  0.70108  0.25986  1.0000
  C   C1713     1.0  0.02333  0.72232  0.24567  1.0000
  H   H1359     1.0  0.43875  0.69562  0.46889  1.0000
  H   H1360     1.0  0.03557  0.73076  0.24866  1.0000
  C   C1714     1.0  0.00483  0.69173  0.29887  1.0000
  C   C1715     1.0  0.00904  0.83295  0.26428  1.0000
  C   C1716     1.0  0.08666  0.69511  0.24257  1.0000
  C   C1717     1.0  0.20266  0.66196  0.31214  1.0000
  H   H1361     1.0  0.07758  0.66378  0.27417  1.0000
  C   C1718     1.0  0.47747  0.94844  0.43276  1.0000
  H   H1362     1.0  0.36007  0.85627  0.47447  1.0000
  H   H1363     1.0  0.08959  0.73117  0.23820  1.0000
  C   C1719     1.0  0.37124  0.97567  0.48294  1.0000
  C   C1720     1.0  0.38580  0.98077  0.47061  1.0000
  H   H1364     1.0  0.32381  0.86272  0.46443  1.0000
  H   H1365     1.0  0.47998  0.74882  0.45739  1.0000
  C   C1721     1.0  0.45257  0.65736  0.43267  1.0000
  H   H1366     1.0  0.46767  0.71770  0.39251  1.0000
  S   S232      1.0  0.17860  0.78594  0.23992  1.0000
  C   C1722     1.0  0.38496  0.79676  0.24075  1.0000
  C   C1723     1.0  0.00848  0.68746  0.24570  1.0000
  C   C1724     1.0  0.47988  0.96186  0.47877  1.0000
  H   H1367     1.0  0.39650  0.80856  0.24068  1.0000
  H   H1368     1.0  0.11249  0.66656  0.28388  1.0000
  Fe  Fe118     1.0  0.16035  0.75959  0.23608  1.0000
  H   H1369     1.0  0.45071  0.89005  0.47263  1.0000
  H   H1370     1.0  0.48863  0.92385  0.35996  1.0000
  H   H1371     1.0  0.45250  0.66462  0.29004  1.0000
  H   H1372     1.0  0.48665  0.96071  0.37979  1.0000
  C   C1725     1.0  0.28273  0.69137  0.23726  1.0000
  H   H1373     1.0  0.30041  0.65867  0.27058  1.0000
  S   S233      1.0  0.27204  0.65658  0.30502  1.0000
  C   C1726     1.0  0.32507  0.83840  0.23575  1.0000
  C   C1727     1.0  0.47614  0.93894  0.48263  1.0000
  H   H1374     1.0  0.48938  0.93227  0.43169  1.0000
  C   C1728     1.0  0.24174  0.69502  0.23613  1.0000
  C   C1729     1.0  0.46007  0.67125  0.27978  1.0000
  C   C1730     1.0  0.48054  0.65887  0.27333  1.0000
  C   C1731     1.0  0.17052  0.65841  0.27652  1.0000
  H   H1375     1.0  0.38176  0.73105  0.47584  1.0000
  C   C1732     1.0  0.38371  0.65831  0.27941  1.0000
  C   C1733     1.0  0.41661  0.69320  0.23356  1.0000
  C   C1734     1.0  0.47387  0.89768  0.56911  1.0000
  H   H1376     1.0  0.46592  0.87639  0.52016  1.0000
  C   C1735     1.0  0.39220  0.72564  0.48398  1.0000
  H   H1377     1.0  0.43112  0.73298  0.52978  1.0000
  H   H1378     1.0  0.26808  0.95452  0.67928  1.0000
  H   H1379     1.0  0.47314  0.85148  0.54050  1.0000
  H   H1380     1.0  0.26756  0.97853  0.72712  1.0000
  P   P60       1.0  0.45370  0.80837  0.54838  1.0000
  C   C1736     1.0  0.47694  0.70499  0.49805  1.0000
  H   H1381     1.0  0.45074  0.91676  0.49005  1.0000
  S   S234      1.0  0.42562  0.80600  0.50097  1.0000
  S   S235      1.0  0.40317  0.87504  0.49511  1.0000
  H   H1382     1.0  0.16763  0.97891  0.61348  1.0000
  C   C1737     1.0  0.48227  0.81444  0.54038  1.0000
  C   C1738     1.0  0.41137  0.69507  0.49978  1.0000
  H   H1383     1.0  0.45785  0.75707  0.51470  1.0000
  H   H1384     1.0  0.49252  0.90989  0.51156  1.0000
  C   C1739     1.0  0.24205  0.98237  0.70614  1.0000
  H   H1385     1.0  0.47919  0.95087  0.57379  1.0000
  C   C1740     1.0  0.41735  0.88709  0.50502  1.0000
  C   C1741     1.0  0.43900  0.87589  0.50868  1.0000
  C   C1742     1.0  0.44925  0.88514  0.51733  1.0000
  C   C1743     1.0  0.43788  0.90552  0.52240  1.0000
  C   C1744     1.0  0.41667  0.91718  0.51830  1.0000
  C   C1745     1.0  0.40640  0.90794  0.50966  1.0000
  H   H1386     1.0  0.44757  0.85986  0.50510  1.0000
  H   H1387     1.0  0.40787  0.93301  0.52207  1.0000
  H   H1388     1.0  0.38971  0.91673  0.50679  1.0000
  H   H1389     1.0  0.43911  0.85301  0.55839  1.0000
  C   C1746     1.0  0.45083  0.76054  0.52497  1.0000
  C   C1747     1.0  0.41794  0.71176  0.50552  1.0000
  H   H1390     1.0  0.34884  0.95266  0.49472  1.0000
  H   H1391     1.0  0.14791  0.96775  0.63705  1.0000
  H   H1392     1.0  0.46396  0.72587  0.56116  1.0000
  H   H1393     1.0  0.41730  0.74820  0.50471  1.0000
  H   H1394     1.0  0.42747  0.70641  0.51404  1.0000
  H   H1395     1.0  0.46718  0.79005  0.52257  1.0000
  C   C1748     1.0  0.47376  0.79317  0.57219  1.0000
  S   S236      1.0  0.38936  0.77179  0.48396  1.0000
  C   C1749     1.0  0.46457  0.70793  0.56045  1.0000
  H   H1396     1.0  0.42418  0.77384  0.56130  1.0000
  P   P61       1.0  0.49491  0.66353  0.53317  1.0000
  H   H1397     1.0  0.45157  0.78942  0.60600  1.0000
  S   S237      1.0  0.41844  0.66577  0.50678  1.0000
  H   H1398     1.0  0.48148  0.82977  0.49913  1.0000
  H   H1399     1.0  0.49308  0.95669  0.50347  1.0000
  H   H1400     1.0  0.31794  0.97710  0.69809  1.0000
  H   H1401     1.0  0.43839  0.97745  0.58613  1.0000
  H   H1402     1.0  0.32331  0.95980  0.72190  1.0000
  C   C1750     1.0  0.26389  0.96764  0.68584  1.0000
  C   C1751     1.0  0.43128  0.83326  0.54452  1.0000
  C   C1752     1.0  0.41659  0.83335  0.53512  1.0000
  C   C1753     1.0  0.39863  0.85219  0.53263  1.0000
  C   C1754     1.0  0.39537  0.87121  0.53935  1.0000
  C   C1755     1.0  0.41006  0.87141  0.54858  1.0000
  C   C1756     1.0  0.42786  0.85247  0.55124  1.0000
  C   C1757     1.0  0.42617  0.75192  0.54653  1.0000
  C   C1758     1.0  0.43818  0.97547  0.48434  1.0000
  C   C1759     1.0  0.48671  0.83711  0.53798  1.0000
  C   C1760     1.0  0.45311  0.69386  0.57111  1.0000
  C   C1761     1.0  0.46942  0.97552  0.59479  1.0000
  H   H1403     1.0  0.41408  0.74166  0.55299  1.0000
  C   C1762     1.0  0.44735  0.78376  0.54277  1.0000
  C   C1763     1.0  0.47792  0.67564  0.54782  1.0000
  C   C1764     1.0  0.41223  0.73535  0.50025  1.0000
  H   H1404     1.0  0.23922  0.95031  0.70046  1.0000
  C   C1765     1.0  0.43572  0.74700  0.53345  1.0000
  H   H1405     1.0  0.41565  0.81336  0.57144  1.0000
  H   H1406     1.0  0.45043  0.92459  0.57891  1.0000
  H   H1407     1.0  0.41898  0.81907  0.52957  1.0000
  H   H1408     1.0  0.38775  0.85244  0.52509  1.0000
  H   H1409     1.0  0.38198  0.88615  0.53702  1.0000
  H   H1410     1.0  0.40808  0.88660  0.55335  1.0000
  C   C1766     1.0  0.24764  0.96529  0.69776  1.0000
  C   C1767     1.0  0.39891  0.74232  0.48967  1.0000
  C   C1768     1.0  0.45416  0.67066  0.57023  1.0000
  H   H1411     1.0  0.49036  0.78963  0.56564  1.0000
  C   C1769     1.0  0.43202  0.77016  0.55122  1.0000
  C   C1770     1.0  0.46786  0.91912  0.57361  1.0000
  C   C1771     1.0  0.43133  0.80186  0.58961  1.0000
  H   H1412     1.0  0.44533  0.65971  0.57852  1.0000
  C   C1772     1.0  0.45198  0.79292  0.59504  1.0000
  C   C1773     1.0  0.45632  0.77907  0.52952  1.0000
  Fe  Fe119     1.0  0.43550  0.95271  0.53694  1.0000
  S   S238      1.0  0.44977  0.91540  0.53441  1.0000
  C   C1774     1.0  0.45353  0.93442  0.48698  1.0000
  H   H1413     1.0  0.46738  0.67427  0.51035  1.0000
  H   H1414     1.0  0.48539  0.71026  0.54069  1.0000
  C   C1775     1.0  0.39874  0.70199  0.48888  1.0000
  C   C1776     1.0  0.47858  0.68687  0.50903  1.0000
  H   H1415     1.0  0.46109  0.88652  0.57091  1.0000
  C   C1777     1.0  0.45313  0.80249  0.56664  1.0000
  S   S239      1.0  0.44696  0.96945  0.55197  1.0000
  C   C1778     1.0  0.48404  0.93394  0.57080  1.0000
  S   S240      1.0  0.39765  0.96828  0.54198  1.0000
  C   C1779     1.0  0.46666  0.66151  0.55869  1.0000
  H   H1416     1.0  0.47111  0.95715  0.59858  1.0000
  C   C1780     1.0  0.43186  0.80652  0.57547  1.0000
  C   C1781     1.0  0.43455  0.95268  0.48786  1.0000
  Fe  Fe120     1.0  0.42203  0.84139  0.48820  1.0000
  C   C1782     1.0  0.47317  0.78852  0.58634  1.0000
  C   C1783     1.0  0.47680  0.69894  0.54881  1.0000
  H   H1417     1.0  0.41488  0.80526  0.59636  1.0000
  H   H1418     1.0  0.44348  0.70092  0.58007  1.0000
  H   H1419     1.0  0.41707  0.94920  0.49157  1.0000
  H   H1420     1.0  0.46455  0.70616  0.49126  1.0000
  H   H1421     1.0  0.48919  0.78158  0.59054  1.0000
  S   S241      1.0  0.44341  0.98035  0.51941  1.0000
  Fe  Fe121     1.0  0.46148  0.80040  0.48861  1.0000
  H   H1422     1.0  0.39340  0.68918  0.48453  1.0000
  H   H1423     1.0  0.22930  0.98039  0.71531  1.0000
  S   S242      1.0  0.49363  0.78129  0.49723  1.0000
  C   C1784     1.0  0.35975  0.95689  0.48504  1.0000
  H   H1424     1.0  0.44725  0.65693  0.53367  1.0000
  H   H1425     1.0  0.48908  0.73617  0.48771  1.0000
  C   C1785     1.0  0.32706  0.97692  0.71777  1.0000
  C   C1786     1.0  0.49080  0.72184  0.49604  1.0000
  C   C1787     1.0  0.14936  0.98566  0.63327  1.0000
  H   H1426     1.0  0.36912  0.98606  0.49094  1.0000
  C   C1788     1.0  0.49411  0.68554  0.51817  1.0000
  Fe  Fe122     1.0  0.41502  0.79468  0.48350  1.0000
  Fe  Fe123     1.0  0.08735  0.81745  0.93715  1.0000
  S   S243      1.0  0.11948  0.79183  0.93101  1.0000
  S   S244      1.0  0.05877  0.83250  0.92471  1.0000
  Fe  Fe124     1.0  0.10240  0.82212  0.96320  1.0000
  S   S245      1.0  0.13576  0.79684  0.95954  1.0000
  C   C1789     1.0  0.11671  0.80600  0.87601  1.0000
  Fe  Fe125     1.0  0.13796  0.81553  0.93796  1.0000
  S   S246      1.0  0.17132  0.82638  0.92670  1.0000
  Fe  Fe126     1.0  0.11401  0.77530  0.95310  1.0000
  S   S247      1.0  0.12001  0.73657  0.96126  1.0000
  S   S248      1.0  0.10633  0.84232  0.94221  1.0000
  S   S249      1.0  0.08025  0.79930  0.95860  1.0000
  C   C1790     1.0  0.17722  0.72676  0.92382  1.0000
  S   S250      1.0  0.17749  0.93072  0.90208  1.0000
  C   C1791     1.0  0.17085  0.85628  0.92130  1.0000
  C   C1792     1.0  0.15093  0.87168  0.91739  1.0000
  C   C1793     1.0  0.15237  0.89480  0.91145  1.0000
  C   C1794     1.0  0.17356  0.90258  0.90985  1.0000
  C   C1795     1.0  0.19301  0.88736  0.91430  1.0000
  C   C1796     1.0  0.19177  0.86431  0.91977  1.0000
  H   H1427     1.0  0.13487  0.86545  0.91822  1.0000
  H   H1428     1.0  0.13743  0.90634  0.90776  1.0000
  H   H1429     1.0  0.20943  0.89321  0.91306  1.0000
  H   H1430     1.0  0.20724  0.85255  0.92263  1.0000
  C   C1797     1.0  0.11030  0.71602  0.95428  1.0000
  C   C1798     1.0  0.12081  0.69256  0.95681  1.0000
  C   C1799     1.0  0.11302  0.67564  0.95178  1.0000
  C   C1800     1.0  0.08386  0.70542  0.94189  1.0000
  C   C1801     1.0  0.09173  0.72237  0.94684  1.0000
  H   H1431     1.0  0.13497  0.68741  0.96273  1.0000
  H   H1432     1.0  0.09524  0.85717  0.90985  1.0000
  H   H1433     1.0  0.08334  0.74032  0.94497  1.0000
  C   C1802     1.0  0.04502  0.81047  0.92303  1.0000
  H   H1434     1.0  0.01694  0.83385  0.91409  1.0000
  H   H1435     1.0  0.11732  0.97094  0.97834  1.0000
  C   C1803     1.0  0.19127  0.76307  0.92027  1.0000
  C   C1804     1.0  0.04345  0.76969  0.92600  1.0000
  C   C1805     1.0  0.05453  0.78736  0.92739  1.0000
  C   C1806     1.0  0.09282  0.91226  0.89278  1.0000
  C   C1807     1.0  0.08130  0.90021  0.86449  1.0000
  H   H1436     1.0  0.05058  0.75182  0.92951  1.0000
  H   H1437     1.0  0.07030  0.78312  0.93193  1.0000
  C   C1808     1.0  0.10577  0.93807  0.93137  1.0000
  H   H1438     1.0  0.09236  0.89617  0.97090  1.0000
  C   C1809     1.0  0.07544  0.67139  0.97869  1.0000
  C   C1810     1.0  0.15681  0.85244  0.88792  1.0000
  H   H1439     1.0  0.09093  0.85067  0.85083  1.0000
  H   H1440     1.0  0.20778  0.87209  0.88414  1.0000
  H   H1441     1.0  0.04665  0.73299  0.98053  1.0000
  H   H1442     1.0  0.08738  0.95388  0.97726  1.0000
  C   C1811     1.0  0.00847  0.80730  0.96459  1.0000
  C   C1812     1.0  0.18529  0.76408  0.93421  1.0000
  C   C1813     1.0  0.19622  0.67302  0.93571  1.0000
  H   H1443     1.0  0.01815  0.70032  0.90045  1.0000
  C   C1814     1.0  0.01071  0.69958  0.96546  1.0000
  C   C1815     1.0  0.20591  0.95099  0.92033  1.0000
  C   C1816     1.0  0.00178  0.79628  0.95538  1.0000
  C   C1817     1.0  0.19781  0.94420  0.97185  1.0000
  C   C1818     1.0  0.00356  0.83134  0.86318  1.0000
  H   H1444     1.0  0.15891  0.96074  0.95196  1.0000
  C   C1819     1.0  0.04210  0.97006  0.86447  1.0000
  H   H1445     1.0  0.05680  0.92086  0.85173  1.0000
  H   H1446     1.0  0.07280  0.68740  0.97161  1.0000
  C   C1820     1.0  0.19386  0.92182  0.97201  1.0000
  C   C1821     1.0  0.99611  0.67844  0.87221  1.0000
  C   C1822     1.0  0.02487  0.68725  0.93383  1.0000
  C   C1823     1.0  0.03094  0.69099  0.91966  1.0000
  H   H1447     1.0  0.03455  0.87223  0.90813  1.0000
  C   C1824     1.0  0.02813  0.88358  0.89939  1.0000
  C   C1825     1.0  0.03230  0.73076  0.96295  1.0000
  H   H1448     1.0  0.10069  0.69163  0.90087  1.0000
  C   C1826     1.0  0.10947  0.90092  0.96808  1.0000
  H   H1449     1.0  0.07657  0.94294  0.90137  1.0000
  C   C1827     1.0  0.03415  0.87139  0.96765  1.0000
  C   C1828     1.0  0.13081  0.69661  0.90821  1.0000
  C   C1829     1.0  0.12635  0.73233  0.91709  1.0000
  H   H1450     1.0  0.01419  0.90574  0.96337  1.0000
  S   S251      1.0  0.11599  0.97264  0.89504  1.0000
  P   P62       1.0  0.17013  0.70346  0.91732  1.0000
  C   C1830     1.0  0.17221  0.95792  0.94322  1.0000
  H   H1451     1.0  0.01677  0.82215  0.96062  1.0000
  H   H1452     1.0  0.26257  0.86485  0.94796  1.0000
  H   H1453     1.0  0.07530  0.92618  0.94343  1.0000
  H   H1454     1.0  0.19860  0.77701  0.91352  1.0000
  C   C1831     1.0  0.01318  0.79833  0.91618  1.0000
  H   H1455     1.0  0.16738  0.97237  0.83214  1.0000
  C   C1832     1.0  0.20813  0.68285  0.89987  1.0000
  C   C1833     1.0  0.17119  0.72801  0.93780  1.0000
  C   C1834     1.0  0.18020  0.85223  0.88855  1.0000
  H   H1456     1.0  0.16579  0.72771  0.88967  1.0000
  H   H1457     1.0  0.19032  0.83727  0.89401  1.0000
  C   C1835     1.0  0.19488  0.71184  0.87636  1.0000
  H   H1458     1.0  0.07129  0.85256  0.89336  1.0000
  C   C1836     1.0  0.01112  0.66352  0.88053  1.0000
  H   H1459     1.0  0.02187  0.98183  0.95666  1.0000
  C   C1837     1.0  0.07759  0.88777  0.91815  1.0000
  C   C1838     1.0  0.06111  0.97973  0.86546  1.0000
  H   H1460     1.0  0.14270  0.90781  0.87170  1.0000
  C   C1839     1.0  0.10622  0.84458  0.88222  1.0000
  C   C1840     1.0  0.14328  0.87216  0.88140  1.0000
  P   P63       1.0  0.18509  0.91392  0.95763  1.0000
  Fe  Fe127     1.0  0.15419  0.95862  0.89001  1.0000
  C   C1841     1.0  0.11426  0.90188  0.84072  1.0000
  H   H1461     1.0  0.06828  0.89973  0.87359  1.0000
  H   H1462     1.0  0.06939  0.71050  0.93620  1.0000
  H   H1463     1.0  0.06207  0.81414  0.89428  1.0000
  H   H1464     1.0  0.08612  0.92300  0.83077  1.0000
  H   H1465     1.0  0.02905  0.91472  0.90673  1.0000
  H   H1466     1.0  0.12707  0.90276  0.83153  1.0000
  H   H1467     1.0  0.13875  0.83152  0.87001  1.0000
  C   C1842     1.0  0.01422  0.69328  0.97913  1.0000
  C   C1843     1.0  0.17646  0.89180  0.87690  1.0000
  H   H1468     1.0  0.09098  0.78406  0.88340  1.0000
  H   H1469     1.0  0.00360  0.92485  0.86885  1.0000
  H   H1470     1.0  0.04461  0.95195  0.86376  1.0000
  C   C1844     1.0  0.12212  0.82780  0.87553  1.0000
  S   S252      1.0  0.08391  0.66145  0.93784  1.0000
  H   H1471     1.0  0.13283  0.74389  0.92184  1.0000
  C   C1845     1.0  0.07885  0.81794  0.88903  1.0000
  H   H1472     1.0  0.12620  0.96974  0.84192  1.0000
  C   C1846     1.0  0.08425  0.83970  0.88860  1.0000
  H   H1473     1.0  0.16281  0.71492  0.94470  1.0000
  C   C1847     1.0  0.17432  0.97590  0.93222  1.0000
  C   C1848     1.0  0.10451  0.88902  0.86506  1.0000
  C   C1849     1.0  0.03255  0.87166  0.85207  1.0000
  H   H1474     1.0  0.24680  0.82973  0.94773  1.0000
  C   C1850     1.0  0.23503  0.84566  0.94967  1.0000
  C   C1851     1.0  0.11866  0.90971  0.97731  1.0000
  C   C1852     1.0  0.08584  0.93950  0.94131  1.0000
  C   C1853     1.0  0.12087  0.88958  0.85304  1.0000
  H   H1475     1.0  0.11063  0.92378  0.92566  1.0000
  C   C1854     1.0  0.24388  0.86546  0.94975  1.0000
  H   H1476     1.0  0.00470  0.80284  0.94458  1.0000
  H   H1477     1.0  0.12925  0.79295  0.87110  1.0000
  C   C1855     1.0  0.09062  0.87585  0.90776  1.0000
  C   C1856     1.0  0.13030  0.98530  0.83526  1.0000
  C   C1857     1.0  0.18738  0.93647  0.94299  1.0000
  C   C1858     1.0  0.02263  0.77524  0.92058  1.0000
  P   P64       1.0  0.11285  0.87306  0.88096  1.0000
  C   C1859     1.0  0.20436  0.88706  0.95442  1.0000
  C   C1860     1.0  0.22863  0.88604  0.95220  1.0000
  C   C1861     1.0  0.21094  0.84634  0.95224  1.0000
  C   C1862     1.0  0.19566  0.86684  0.95475  1.0000
  C   C1863     1.0  0.20407  0.93304  0.93136  1.0000
  H   H1478     1.0  0.01769  0.96421  0.93589  1.0000
  H   H1479     1.0  0.21364  0.67140  0.90879  1.0000
  H   H1480     1.0  0.14122  0.68039  0.90566  1.0000
  C   C1864     1.0  0.19001  0.87189  0.88306  1.0000
  C   C1865     1.0  0.15495  0.91039  0.96150  1.0000
  S   S253      1.0  0.15333  0.95909  0.86796  1.0000
  C   C1866     1.0  0.17527  0.74656  0.94296  1.0000
  S   S254      1.0  0.08896  0.96226  0.86496  1.0000
  C   C1867     1.0  0.12276  0.89732  0.95544  1.0000
  C   C1868     1.0  0.14512  0.90277  0.95197  1.0000
  C   C1869     1.0  0.09461  0.68204  0.94420  1.0000
  C   C1870     1.0  0.15315  0.89199  0.87611  1.0000
  C   C1871     1.0  0.01354  0.69667  0.91142  1.0000
  H   H1481     1.0  0.23571  0.90122  0.95233  1.0000
  H   H1482     1.0  0.20398  0.83100  0.95224  1.0000
  C   C1872     1.0  0.18774  0.69978  0.90094  1.0000
  H   H1483     1.0  0.21528  0.91647  0.93054  1.0000
  H   H1484     1.0  0.14614  0.66299  0.92793  1.0000
  C   C1873     1.0  0.09514  0.80101  0.88287  1.0000
  H   H1485     1.0  0.04919  0.83575  0.97313  1.0000
  H   H1486     1.0  0.13876  0.88073  0.85318  1.0000
  H   H1487     1.0  0.13538  0.95365  0.92134  1.0000
  C   C1874     1.0  0.03143  0.87477  0.83807  1.0000
  C   C1875     1.0  0.01398  0.88832  0.96877  1.0000
  H   H1488     1.0  0.11590  0.88996  0.94841  1.0000
  H   H1489     1.0  0.15522  0.89993  0.94211  1.0000
  C   C1876     1.0  0.10388  0.73909  0.91367  1.0000
  C   C1877     1.0  0.09455  0.72437  0.90793  1.0000
  C   C1878     1.0  0.10801  0.70311  0.90521  1.0000
  H   H1490     1.0  0.09347  0.75553  0.91584  1.0000
  H   H1491     1.0  0.07675  0.72931  0.90580  1.0000
  H   H1492     1.0  0.09905  0.92197  0.88311  1.0000
  H   H1493     1.0  0.04914  0.69005  0.91516  1.0000
  C   C1879     1.0  0.08006  0.95758  0.94896  1.0000
  H   H1494     1.0  0.03106  0.95082  0.97597  1.0000
  H   H1495     1.0  0.03736  0.95653  0.91312  1.0000
  C   C1880     1.0  0.09121  0.91328  0.84027  1.0000
  C   C1881     1.0  0.14003  0.71095  0.91445  1.0000
  P   P65       1.0  0.00639  0.87700  0.86436  1.0000
  H   H1496     1.0  0.18377  0.90739  0.87326  1.0000
  H   H1497     1.0  0.19179  0.74419  0.90421  1.0000
  C   C1882     1.0  0.09741  0.88801  0.89482  1.0000
  H   H1498     1.0  0.14918  0.83755  0.89301  1.0000
  C   C1883     1.0  0.05410  0.86252  0.85659  1.0000
  H   H1499     1.0  0.07161  0.87816  0.92796  1.0000
  H   H1500     1.0  0.23728  0.66717  0.88637  1.0000
  C   C1884     1.0  0.07470  0.91223  0.85212  1.0000
  H   H1501     1.0  0.06180  0.92106  0.92381  1.0000
  C   C1885     1.0  0.07213  0.91191  0.91582  1.0000
  C   C1886     1.0  0.08014  0.92419  0.90321  1.0000
  H   H1502     1.0  0.06464  0.95832  0.95661  1.0000
  C   C1887     1.0  0.07308  0.96700  0.98073  1.0000
  C   C1888     1.0  0.17623  0.67712  0.92938  1.0000
  H   H1503     1.0  0.02444  0.98130  0.89242  1.0000
  C   C1889     1.0  0.02283  0.97070  0.91411  1.0000
  C   C1890     1.0  0.18130  0.71436  0.88908  1.0000
  C   C1891     1.0  0.21503  0.69484  0.87538  1.0000
  C   C1892     1.0  0.09439  0.97420  0.94682  1.0000
  C   C1893     1.0  0.12612  0.98406  0.97196  1.0000
  C   C1894     1.0  0.02508  0.90752  0.89862  1.0000
  H   H1504     1.0  0.14842  0.92005  0.98171  1.0000
  C   C1895     1.0  0.02447  0.81598  0.91731  1.0000
  H   H1505     1.0  0.00564  0.91896  0.84362  1.0000
  C   C1896     1.0  0.23361  0.98445  0.88628  1.0000
  C   C1897     1.0  0.11979  0.95485  0.92898  1.0000
  C   C1898     1.0  0.18730  0.74445  0.91505  1.0000
  H   H1506     1.0  0.18977  0.72308  0.86725  1.0000
  C   C1899     1.0  0.03611  0.72409  0.97647  1.0000
  H   H1507     1.0  0.05534  0.85926  0.86734  1.0000
  H   H1508     1.0  0.18805  0.77866  0.93822  1.0000
  H   H1509     1.0  0.05078  0.87250  0.81791  1.0000
  C   C1900     1.0  0.07321  0.86131  0.83329  1.0000
  C   C1901     1.0  0.05174  0.86985  0.82871  1.0000
  H   H1510     1.0  0.01388  0.83350  0.85314  1.0000
  C   C1902     1.0  0.01926  0.71888  0.95753  1.0000
  H   H1511     1.0  0.19194  0.98604  0.91202  1.0000
  H   H1512     1.0  0.23831  0.96576  0.88831  1.0000
  H   H1513     1.0  0.36938  0.96993  0.77105  1.0000
  H   H1514     1.0  0.01487  0.88066  0.83435  1.0000
  C   C1903     1.0  0.07435  0.85744  0.84724  1.0000
  H   H1515     1.0  0.08893  0.85752  0.82603  1.0000
  H   H1516     1.0  0.17005  0.74762  0.95373  1.0000
  C   C1904     1.0  0.01082  0.91299  0.87713  1.0000
  C   C1905     1.0  0.02260  0.87426  0.88900  1.0000
  H   H1517     1.0  0.02512  0.85564  0.88980  1.0000
  C   C1906     1.0  0.14139  0.91424  0.97412  1.0000
  H   H1518     1.0  0.03847  0.68391  0.94006  1.0000
  H   H1519     1.0  0.37489  0.98641  0.74655  1.0000
  C   C1907     1.0  0.01157  0.97524  0.92703  1.0000
  H   H1520     1.0  0.22552  0.69285  0.86552  1.0000
  H   H1521     1.0  0.05021  0.87553  0.96150  1.0000
  C   C1908     1.0  0.01401  0.95434  0.97288  1.0000
  Fe  Fe128     1.0  0.11578  0.97602  0.87258  1.0000
  H   H1522     1.0  0.03930  0.74532  0.95666  1.0000
  H   H1523     1.0  0.28603  0.96740  0.74789  1.0000
  C   C1909     1.0  0.01370  0.88891  0.87781  1.0000
  H   H1524     1.0  0.19664  0.95726  0.96290  1.0000
  C   C1910     1.0  0.00873  0.97178  0.96196  1.0000
  H   H1525     1.0  0.01600  0.72484  0.94713  1.0000
  H   H1526     1.0  0.20761  0.68562  0.93362  1.0000
  H   H1527     1.0  0.17720  0.86650  0.95707  1.0000
  C   C1911     1.0  0.01647  0.92221  0.88750  1.0000
  H   H1528     1.0  0.00512  0.97613  0.86386  1.0000
  S   S255      1.0  0.08982  0.84324  0.98015  1.0000
  S   S256      1.0  0.00767  0.75343  0.92009  1.0000
  H   H1529     1.0  0.21817  0.94791  0.91119  1.0000
  C   C1912     1.0  0.16190  0.66036  0.93233  1.0000
  C   C1913     1.0  0.19100  0.97238  0.92073  1.0000
  C   C1914     1.0  0.11382  0.97314  0.93646  1.0000
  C   C1915     1.0  0.00145  0.68854  0.93997  1.0000
  H   H1530     1.0  0.01346  0.94081  0.88709  1.0000
  C   C1916     1.0  0.22165  0.68038  0.88713  1.0000
  C   C1917     1.0  0.01972  0.98371  0.86460  1.0000
  H   H1531     1.0  0.02336  0.67055  0.88449  1.0000
  C   C1918     1.0  0.03369  0.84883  0.97446  1.0000
  C   C1919     1.0  0.01551  0.98466  0.90241  1.0000
  H   H1532     1.0  0.12090  0.65760  0.95402  1.0000
  H   H1533     1.0  0.14054  0.83531  0.97489  1.0000
  C   C1920     1.0  0.99700  0.94184  0.98015  1.0000
  H   H1534     1.0  0.22646  0.98509  0.86608  1.0000
  C   C1921     1.0  0.14759  0.98609  0.97491  1.0000
  C   C1922     1.0  0.99626  0.81018  0.86831  1.0000
  C   C1923     1.0  0.00429  0.79920  0.97867  1.0000
  H   H1535     1.0  0.00115  0.92262  0.92755  1.0000
  H   H1536     1.0  0.99699  0.69668  0.86972  1.0000
  H   H1537     1.0  0.33727  0.98131  0.73618  1.0000
  C   C1924     1.0  0.27947  0.98546  0.74439  1.0000
  H   H1538     1.0  0.05647  0.65434  0.96888  1.0000
  C   C1925     1.0  0.01328  0.84312  0.98273  1.0000
  H   H1539     1.0  0.99709  0.80256  0.91200  1.0000
  H   H1540     1.0  0.12438  0.98644  0.93418  1.0000
  C   C1926     1.0  0.99749  0.84940  0.87098  1.0000
  H   H1541     1.0  0.00111  0.79624  0.86232  1.0000
  C   C1927     1.0  0.35767  0.98538  0.76730  1.0000
  C   C1928     1.0  0.96682  0.03619  0.01835  1.0000
  C   C1929     1.0  0.98239  0.04585  0.00777  1.0000
  Fe  Fe129     1.0  0.92283  0.27600  0.99066  1.0000
  H   H1542     1.0  0.89466  0.08636  0.05293  1.0000
  H   H1543     1.0  0.86087  0.02409  0.03211  1.0000
  C   C1930     1.0  0.98475  0.12686  0.01364  1.0000
  H   H1544     1.0  0.97717  0.05261  0.99782  1.0000
  C   C1931     1.0  0.87737  0.00198  0.06761  1.0000
  C   C1932     1.0  0.97327  0.02807  0.03124  1.0000
  C   C1933     1.0  0.96832  0.19647  0.01331  1.0000
  S   S257      1.0  0.90481  0.24536  0.99930  1.0000
  H   H1545     1.0  0.91817  0.21544  0.03401  1.0000
  H   H1546     1.0  0.96192  0.21987  0.98841  1.0000
  H   H1547     1.0  0.85218  0.03300  0.06252  1.0000
  C   C1934     1.0  0.94654  0.23403  0.02689  1.0000
  H   H1548     1.0  0.90421  0.02756  0.02286  1.0000
  C   C1935     1.0  0.90598  0.03414  0.99337  1.0000
  C   C1936     1.0  0.93014  0.03206  0.99229  1.0000
  C   C1937     1.0  0.94393  0.01065  0.99644  1.0000
  H   H1549     1.0  0.89263  0.04579  0.06315  1.0000
  C   C1938     1.0  0.89564  0.01471  0.99901  1.0000
  H   H1550     1.0  0.94746  0.08919  0.01765  1.0000
  H   H1551     1.0  0.96265  0.00917  0.99545  1.0000
  H   H1552     1.0  0.87693  0.01628  0.99996  1.0000
  S   S258      1.0  0.93728  0.29359  0.00417  1.0000
  C   C1939     1.0  0.90284  0.06330  0.02380  1.0000
  C   C1940     1.0  0.90264  0.22657  0.98824  1.0000
  H   H1553     1.0  0.97676  0.24910  0.01763  1.0000
  C   C1941     1.0  0.96844  0.23420  0.01889  1.0000
  H   H1554     1.0  0.92697  0.00107  0.07040  1.0000
  H   H1555     1.0  0.90389  0.16911  0.98841  1.0000
  C   C1942     1.0  0.97922  0.21564  0.01202  1.0000
  C   C1943     1.0  0.90001  0.07993  0.03224  1.0000
  H   H1556     1.0  0.90053  0.09780  0.02778  1.0000
  H   H1557     1.0  0.92101  0.12575  0.01019  1.0000
  C   C1944     1.0  0.85710  0.01849  0.07029  1.0000
  C   C1945     1.0  0.97650  0.10596  0.01676  1.0000
  C   C1946     1.0  0.90166  0.04031  0.02953  1.0000
  S   S259      1.0  0.88845  0.06101  0.98818  1.0000
  C   C1947     1.0  0.95351  0.10552  0.01566  1.0000
  C   C1948     1.0  0.94634  0.19642  0.02145  1.0000
  H   H1558     1.0  0.82709  0.02889  0.08499  1.0000
  C   C1949     1.0  0.89651  0.07348  0.04641  1.0000
  C   C1950     1.0  0.90405  0.20282  0.99316  1.0000
  P   P66       1.0  0.98113  0.17410  0.00295  1.0000
  H   H1559     1.0  0.90637  0.19640  0.00364  1.0000
  C   C1951     1.0  0.90942  0.99335  0.00352  1.0000
  Fe  Fe130     1.0  0.97028  0.28880  0.98913  1.0000
  C   C1952     1.0  0.93552  0.21515  0.02819  1.0000
  C   C1953     1.0  0.93867  0.12603  0.01142  1.0000
  C   C1954     1.0  0.94696  0.14686  0.00804  1.0000
  H   H1560     1.0  0.94971  0.03508  0.01656  1.0000
  C   C1955     1.0  0.89516  0.05051  0.05216  1.0000
  C   C1956     1.0  0.96998  0.14755  0.00922  1.0000
  H   H1561     1.0  0.90574  0.06823  0.01278  1.0000
  H   H1562     1.0  0.83696  0.99505  0.10270  1.0000
  C   C1957     1.0  0.86412  0.00544  0.03301  1.0000
  H   H1563     1.0  0.93568  0.16233  0.00398  1.0000
  H   H1564     1.0  0.93785  0.24883  0.03179  1.0000
  H   H1565     1.0  0.93710  0.18238  0.02235  1.0000
  C   C1958     1.0  0.97332  0.18375  0.98610  1.0000
  C   C1959     1.0  0.89685  0.03395  0.04373  1.0000
  H   H1566     1.0  0.96104  0.02076  0.03942  1.0000
  H   H1567     1.0  0.83960  0.00617  0.01963  1.0000
  H   H1568     1.0  0.93824  0.04700  0.98850  1.0000
  C   C1960     1.0  0.93364  0.99129  0.00211  1.0000
  P   P67       1.0  0.89503  0.00428  0.05098  1.0000
  C   C1961     1.0  0.84826  0.99702  0.09294  1.0000
  C   C1962     1.0  0.90261  0.18739  0.98456  1.0000
  C   C1963     1.0  0.84273  0.01611  0.08297  1.0000
  H   H1569     1.0  0.98818  0.08997  0.01951  1.0000
  C   C1964     1.0  0.93608  0.99126  0.06241  1.0000
  C   C1965     1.0  0.85175  0.99532  0.02601  1.0000
  C   C1966     1.0  0.92468  0.98946  0.05178  1.0000
  C   C1967     1.0  0.88024  0.99151  0.04111  1.0000
  Fe  Fe131     1.0  0.60822  0.08084  0.44779  1.0000
  S   S260      1.0  0.64676  0.07930  0.44383  1.0000
  S   S261      1.0  0.59030  0.06173  0.46677  1.0000
  Fe  Fe132     1.0  0.60178  0.11114  0.42044  1.0000
  S   S262      1.0  0.63995  0.11275  0.41451  1.0000
  S   S263      1.0  0.57451  0.12935  0.40741  1.0000
  Fe  Fe133     1.0  0.64479  0.07447  0.42259  1.0000
  S   S264      1.0  0.66941  0.04601  0.41234  1.0000
  Fe  Fe134     1.0  0.63787  0.11755  0.43633  1.0000
  S   S265      1.0  0.65110  0.14178  0.44654  1.0000
  S   S266      1.0  0.60674  0.07289  0.42737  1.0000
  S   S267      1.0  0.59917  0.11904  0.44149  1.0000
  H   H1570     1.0  0.61648  0.09740  0.38057  1.0000
  S   S268      1.0  0.67390  0.24066  0.41955  1.0000
  H   H1571     1.0  0.62517  0.18533  0.41338  1.0000
  C   C1968     1.0  0.61381  0.22106  0.41590  1.0000
  P   P68       1.0  0.55465  0.19567  0.44818  1.0000
  H   H1572     1.0  0.58153  0.03081  0.41734  1.0000
  C   C1969     1.0  0.61504  0.04825  0.36093  1.0000
  C   C1970     1.0  0.66068  0.02913  0.47921  1.0000
  H   H1573     1.0  0.54653  0.09896  0.30999  1.0000
  P   P69       1.0  0.56963  0.06590  0.35522  1.0000
  C   C1971     1.0  0.72959  0.31540  0.43830  1.0000
  C   C1972     1.0  0.56098  0.09099  0.31546  1.0000
  H   H1574     1.0  0.52711  0.14533  0.35952  1.0000
  C   C1973     1.0  0.52161  0.09983  0.40339  1.0000
  C   C1974     1.0  0.69041  0.05241  0.47739  1.0000
  H   H1575     1.0  0.53905  0.08758  0.33491  1.0000
  H   H1576     1.0  0.54883  0.04514  0.45714  1.0000
  C   C1975     1.0  0.65519  0.02772  0.40635  1.0000
  C   C1976     1.0  0.63286  0.03591  0.40297  1.0000
  C   C1977     1.0  0.62195  0.02200  0.39751  1.0000
  S   S269      1.0  0.58031  0.31016  0.44987  1.0000
  H   H1577     1.0  0.50034  0.05225  0.45801  1.0000
  C   C1978     1.0  0.66648  0.00518  0.40438  1.0000
  H   H1578     1.0  0.62440  0.05346  0.40386  1.0000
  H   H1579     1.0  0.60501  0.02896  0.39446  1.0000
  S   S270      1.0  0.51136  0.28302  0.41749  1.0000
  C   C1979     1.0  0.54980  0.15304  0.46414  1.0000
  C   C1980     1.0  0.65482  0.16970  0.43809  1.0000
  C   C1981     1.0  0.66800  0.17307  0.42509  1.0000
  C   C1982     1.0  0.67347  0.19501  0.41943  1.0000
  C   C1983     1.0  0.66553  0.21377  0.42663  1.0000
  C   C1984     1.0  0.65163  0.21057  0.43938  1.0000
  C   C1985     1.0  0.64663  0.18851  0.44518  1.0000
  H   H1580     1.0  0.67457  0.15868  0.41956  1.0000
  H   H1581     1.0  0.68413  0.19742  0.40951  1.0000
  H   H1582     1.0  0.64541  0.22501  0.44489  1.0000
  H   H1583     1.0  0.63677  0.18582  0.45528  1.0000
  C   C1986     1.0  0.53484  0.11629  0.40399  1.0000
  C   C1987     1.0  0.55886  0.10968  0.40421  1.0000
  C   C1988     1.0  0.56989  0.08709  0.40255  1.0000
  C   C1989     1.0  0.67205  0.01472  0.44439  1.0000
  H   H1584     1.0  0.58854  0.08212  0.40216  1.0000
  C   C1990     1.0  0.53857  0.18251  0.42706  1.0000
  C   C1991     1.0  0.59576  0.00398  0.44828  1.0000
  H   H1585     1.0  0.59314  0.23558  0.45673  1.0000
  H   H1586     1.0  0.52631  0.13390  0.40487  1.0000
  H   H1587     1.0  0.58278  0.02325  0.37482  1.0000
  H   H1588     1.0  0.58710  0.29862  0.42235  1.0000
  H   H1589     1.0  0.70982  0.24572  0.45569  1.0000
  S   S271      1.0  0.68586  0.29682  0.46884  1.0000
  H   H1590     1.0  0.68073  0.25042  0.47603  1.0000
  H   H1591     1.0  0.55665  0.17755  0.42272  1.0000
  C   C1992     1.0  0.54513  0.08688  0.36143  1.0000
  S   S272      1.0  0.63503  0.30209  0.42035  1.0000
  H   H1592     1.0  0.51753  0.01027  0.42641  1.0000
  C   C1993     1.0  0.54286  0.21574  0.46018  1.0000
  C   C1994     1.0  0.52523  0.07981  0.36960  1.0000
  H   H1593     1.0  0.50900  0.04877  0.43352  1.0000
  C   C1995     1.0  0.59473  0.18990  0.42872  1.0000
  C   C1996     1.0  0.52368  0.29477  0.43960  1.0000
  H   H1594     1.0  0.61480  0.03402  0.35580  1.0000
  C   C1997     1.0  0.50391  0.01548  0.46485  1.0000
  H   H1595     1.0  0.59409  0.17160  0.43086  1.0000
  C   C1998     1.0  0.52648  0.12704  0.36217  1.0000
  C   C1999     1.0  0.52670  0.11215  0.44086  1.0000
  C   C2000     1.0  0.66892  0.21818  0.47712  1.0000
  Fe  Fe135     1.0  0.66507  0.29960  0.45179  1.0000
  C   C2001     1.0  0.61715  0.07752  0.48095  1.0000
  C   C2002     1.0  0.68992  0.19527  0.45963  1.0000
  C   C2003     1.0  0.54547  0.03285  0.35160  1.0000
  C   C2004     1.0  0.52133  0.17969  0.42014  1.0000
  H   H1596     1.0  0.80479  0.02095  0.47191  1.0000
  H   H1597     1.0  0.61263  0.14015  0.47296  1.0000
  C   C2005     1.0  0.53251  0.07694  0.40243  1.0000
  H   H1598     1.0  0.66170  0.18533  0.47465  1.0000
  C   C2006     1.0  0.51730  0.25104  0.46601  1.0000
  H   H1599     1.0  0.55102  0.05411  0.43195  1.0000
  H   H1600     1.0  0.79673  0.04951  0.45129  1.0000
  C   C2007     1.0  0.57794  0.01672  0.45658  1.0000
  C   C2008     1.0  0.52292  0.24588  0.47916  1.0000
  H   H1601     1.0  0.62425  0.08663  0.47129  1.0000
  C   C2009     1.0  0.52744  0.23630  0.45646  1.0000
  H   H1602     1.0  0.56513  0.26727  0.46661  1.0000
  H   H1603     1.0  0.69215  0.18023  0.45467  1.0000
  H   H1604     1.0  0.71564  0.21073  0.44477  1.0000
  C   C2010     1.0  0.70320  0.21242  0.45404  1.0000
  C   C2011     1.0  0.53916  0.30029  0.44677  1.0000
  C   C2012     1.0  0.63586  0.06655  0.37294  1.0000
  C   C2013     1.0  0.63518  0.04862  0.36609  1.0000
  C   C2014     1.0  0.59824  0.07046  0.32964  1.0000
  H   H1605     1.0  0.65128  0.06651  0.37725  1.0000
  H   H1606     1.0  0.65004  0.03461  0.36516  1.0000
  H   H1607     1.0  0.56646  0.24209  0.43755  1.0000
  C   C2015     1.0  0.53235  0.19156  0.43935  1.0000
  C   C2016     1.0  0.55401  0.29148  0.42009  1.0000
  C   C2017     1.0  0.57543  0.07418  0.33687  1.0000
  H   H1608     1.0  0.63572  0.02305  0.44243  1.0000
  H   H1609     1.0  0.56065  0.11649  0.35120  1.0000
  Fe  Fe136     1.0  0.66029  0.27254  0.42979  1.0000
  C   C2018     1.0  0.56188  0.03473  0.45070  1.0000
  C   C2019     1.0  0.53101  0.29019  0.42630  1.0000
  C   C2020     1.0  0.64946  0.00998  0.44646  1.0000
  C   C2021     1.0  0.69842  0.09941  0.42884  1.0000
  C   C2022     1.0  0.70412  0.08074  0.42167  1.0000
  C   C2023     1.0  0.71280  0.05866  0.42817  1.0000
  C   C2024     1.0  0.71546  0.05517  0.44191  1.0000
  C   C2025     1.0  0.70918  0.07375  0.44930  1.0000
  C   C2026     1.0  0.70097  0.09599  0.44259  1.0000
  H   H1610     1.0  0.61219  0.00572  0.47802  1.0000
  H   H1611     1.0  0.52453  0.06164  0.37294  1.0000
  C   C2027     1.0  0.50914  0.03334  0.44116  1.0000
  C   C2028     1.0  0.56503  0.99817  0.37104  1.0000
  H   H1612     1.0  0.52626  0.00762  0.34893  1.0000
  H   H1613     1.0  0.56652  0.00292  0.40136  1.0000
  H   H1614     1.0  0.57667  0.01349  0.46753  1.0000
  H   H1615     1.0  0.67853  0.04409  0.46032  1.0000
  C   C2029     1.0  0.54549  0.11065  0.35757  1.0000
  S   S273      1.0  0.68492  0.29553  0.43094  1.0000
  H   H1616     1.0  0.69841  0.99009  0.23875  1.0000
  C   C2030     1.0  0.49775  0.18564  0.42548  1.0000
  H   H1617     1.0  0.73622  0.13328  0.48160  1.0000
  C   C2031     1.0  0.50862  0.19685  0.44482  1.0000
  C   C2032     1.0  0.55686  0.13368  0.47361  1.0000
  C   C2033     1.0  0.59563  0.24039  0.46607  1.0000
  H   H1618     1.0  0.73392  0.00423  0.24059  1.0000
  C   C2034     1.0  0.54893  0.21095  0.47337  1.0000
  C   C2035     1.0  0.70703  0.09591  0.47333  1.0000
  H   H1619     1.0  0.69141  0.11651  0.42386  1.0000
  H   H1620     1.0  0.70137  0.08326  0.41113  1.0000
  H   H1621     1.0  0.71682  0.04420  0.42258  1.0000
  H   H1622     1.0  0.72202  0.03795  0.44685  1.0000
  H   H1623     1.0  0.52637  0.17284  0.41062  1.0000
  C   C2036     1.0  0.59688  0.00929  0.43405  1.0000
  H   H1624     1.0  0.75663  0.07028  0.44931  1.0000
  H   H1625     1.0  0.74151  0.29295  0.42313  1.0000
  C   C2037     1.0  0.51396  0.01156  0.43717  1.0000
  C   C2038     1.0  0.72172  0.12635  0.47996  1.0000
  C   C2039     1.0  0.50908  0.99342  0.46095  1.0000
  H   H1626     1.0  0.54550  0.99149  0.47696  1.0000
  C   C2040     1.0  0.50427  0.03528  0.45497  1.0000
  C   C2041     1.0  0.78255  0.04600  0.45943  1.0000
  C   C2042     1.0  0.69024  0.99808  0.44919  1.0000
  H   H1627     1.0  0.49934  0.01752  0.47550  1.0000
  H   H1628     1.0  0.53337  0.30328  0.45717  1.0000
  H   H1629     1.0  0.74346  0.09537  0.47406  1.0000
  H   H1630     1.0  0.50604  0.29395  0.44441  1.0000
  C   C2043     1.0  0.57983  0.25825  0.47165  1.0000
  H   H1631     1.0  0.52299  0.24078  0.44623  1.0000
  H   H1632     1.0  0.51606  0.10089  0.47537  1.0000
  H   H1633     1.0  0.72794  0.30135  0.44676  1.0000
  H   H1634     1.0  0.53755  0.04606  0.34410  1.0000
  C   C2044     1.0  0.58044  0.02687  0.42827  1.0000
  C   C2045     1.0  0.57799  0.20571  0.43572  1.0000
  C   C2046     1.0  0.61625  0.08390  0.37484  1.0000
  S   S274      1.0  0.51590  0.05557  0.40331  1.0000
  C   C2047     1.0  0.58372  0.08724  0.30838  1.0000
  H   H1635     1.0  0.58693  0.09230  0.29741  1.0000
  H   H1636     1.0  0.59858  0.25504  0.42061  1.0000
  C   C2048     1.0  0.55678  0.07092  0.40126  1.0000
  H   H1637     1.0  0.56531  0.05361  0.39972  1.0000
  S   S275      1.0  0.64260  0.27390  0.45138  1.0000
  C   C2049     1.0  0.59603  0.08354  0.36974  1.0000
  C   C2050     1.0  0.69984  0.23215  0.46012  1.0000
  C   C2051     1.0  0.61238  0.19761  0.41876  1.0000
  C   C2052     1.0  0.59734  0.23689  0.42285  1.0000
  C   C2053     1.0  0.56204  0.30182  0.44062  1.0000
  C   C2054     1.0  0.57928  0.22935  0.43258  1.0000
  C   C2055     1.0  0.67697  0.04194  0.47124  1.0000
  C   C2056     1.0  0.53893  0.01112  0.35432  1.0000
  H   H1638     1.0  0.61999  0.07409  0.30999  1.0000
  C   C2057     1.0  0.59532  0.06588  0.36254  1.0000
  C   C2058     1.0  0.56180  0.03747  0.35866  1.0000
  H   H1639     1.0  0.62787  0.22697  0.40842  1.0000
  H   H1640     1.0  0.53227  0.15626  0.46171  1.0000
  H   H1641     1.0  0.61299  0.06262  0.33480  1.0000
  C   C2059     1.0  0.57098  0.02011  0.36872  1.0000
  H   H1642     1.0  0.58099  0.09689  0.37174  1.0000
  H   H1643     1.0  0.54009  0.10768  0.43240  1.0000
  C   C2060     1.0  0.56519  0.16829  0.45808  1.0000
  H   H1644     1.0  0.64997  0.02159  0.47437  1.0000
  C   C2061     1.0  0.60233  0.07699  0.31547  1.0000
  C   C2062     1.0  0.55683  0.08450  0.32963  1.0000
  C   C2063     1.0  0.59494  0.14401  0.47071  1.0000
  C   C2064     1.0  0.58791  0.16349  0.46131  1.0000
  H   H1645     1.0  0.54625  0.09087  0.45606  1.0000
  C   C2065     1.0  0.56953  0.29732  0.42725  1.0000
  C   C2066     1.0  0.61507  0.22934  0.47224  1.0000
  C   C2067     1.0  0.53012  0.10263  0.45421  1.0000
  H   H1646     1.0  0.60008  0.17494  0.45673  1.0000
  C   C2068     1.0  0.56316  0.03986  0.43655  1.0000
  C   C2069     1.0  0.63310  0.99960  0.39548  1.0000
  H   H1647     1.0  0.55979  0.28802  0.40975  1.0000
  C   C2070     1.0  0.50610  0.12756  0.43843  1.0000
  Fe  Fe137     1.0  0.61880  0.30488  0.44202  1.0000
  H   H1648     1.0  0.69615  0.11078  0.44786  1.0000
  H   H1649     1.0  0.62716  0.21579  0.46768  1.0000
  H   H1650     1.0  0.67544  0.03135  0.43896  1.0000
  H   H1651     1.0  0.50482  0.26650  0.46330  1.0000
  H   H1652     1.0  0.54506  0.12193  0.47834  1.0000
  C   C2071     1.0  0.51289  0.10843  0.46514  1.0000
  H   H1653     1.0  0.50299  0.10494  0.40357  1.0000
  C   C2072     1.0  0.60031  0.06403  0.48153  1.0000
  C   C2073     1.0  0.72574  0.10481  0.47567  1.0000
  C   C2074     1.0  0.50679  0.11983  0.37038  1.0000
  C   C2075     1.0  0.65540  0.99105  0.39900  1.0000
  P   P70       1.0  0.71189  0.06865  0.46721  1.0000
  C   C2076     1.0  0.74124  0.05329  0.46882  1.0000
  H   H1654     1.0  0.56127  0.19566  0.47650  1.0000
  C   C2077     1.0  0.75976  0.05769  0.45833  1.0000
  C   C2078     1.0  0.68035  0.13038  0.47962  1.0000
  H   H1655     1.0  0.66966  0.10249  0.47334  1.0000
  C   C2079     1.0  0.67265  0.19824  0.47100  1.0000
  C   C2080     1.0  0.57926  0.12935  0.47701  1.0000
  C   C2081     1.0  0.68299  0.23489  0.47168  1.0000
  H   H1656     1.0  0.70776  0.00171  0.44731  1.0000
  C   C2082     1.0  0.54879  0.99376  0.36399  1.0000
  C   C2083     1.0  0.69907  0.13914  0.48189  1.0000
  C   C2084     1.0  0.51391  0.99165  0.44702  1.0000
  C   C2085     1.0  0.50610  0.09626  0.37396  1.0000
  C   C2086     1.0  0.78709  0.02992  0.47104  1.0000
  H   H1657     1.0  0.50338  0.13477  0.42806  1.0000
  C   C2087     1.0  0.73726  0.31069  0.42500  1.0000
  C   C2088     1.0  0.68428  0.10879  0.47541  1.0000
  H   H1658     1.0  0.61058  0.00012  0.42731  1.0000
  H   H1659     1.0  0.68389  0.99878  0.40685  1.0000
  C   C2089     1.0  0.74602  0.03725  0.48051  1.0000
  H   H1660     1.0  0.53022  0.99847  0.39490  1.0000
  H   H1661     1.0  0.66280  0.14043  0.48083  1.0000
  C   C2090     1.0  0.55759  0.98910  0.40692  1.0000
  H   H1662     1.0  0.72441  0.30608  0.47840  1.0000
  H   H1663     1.0  0.50326  0.20331  0.45439  1.0000
  C   C2091     1.0  0.76884  0.02558  0.48158  1.0000
  C   C2092     1.0  0.53893  0.22593  0.48282  1.0000
  C   C2093     1.0  0.64504  0.98841  0.45349  1.0000
  C   C2094     1.0  0.60894  0.98844  0.48232  1.0000
  C   C2095     1.0  0.73123  0.98714  0.24570  1.0000
  Fe  Fe138     1.0  0.92187  0.27287  0.68095  1.0000
  H   H1664     1.0  0.59772  0.10672  0.66185  1.0000
  Fe  Fe139     1.0  0.90774  0.08651  0.68386  1.0000
  S   S276      1.0  0.89705  0.06609  0.70448  1.0000
  Fe  Fe140     1.0  0.90446  0.09113  0.65375  1.0000
  S   S277      1.0  0.89073  0.08093  0.63666  1.0000
  S   S278      1.0  0.88096  0.10670  0.67103  1.0000
  Fe  Fe141     1.0  0.73525  0.09158  0.60260  1.0000
  S   S279      1.0  0.70924  0.12442  0.60445  1.0000
  S   S280      1.0  0.73529  0.07413  0.58446  1.0000
  Fe  Fe142     1.0  0.75847  0.09746  0.62621  1.0000
  S   S281      1.0  0.73388  0.13060  0.62942  1.0000
  S   S282      1.0  0.78126  0.08707  0.64276  1.0000
  Fe  Fe143     1.0  0.70624  0.11212  0.62698  1.0000
  S   S283      1.0  0.67146  0.11693  0.64070  1.0000
  Fe  Fe144     1.0  0.73945  0.13942  0.60668  1.0000
  S   S284      1.0  0.74632  0.17412  0.59530  1.0000
  S   S285      1.0  0.73026  0.07807  0.62517  1.0000
  S   S286      1.0  0.76618  0.10753  0.60344  1.0000
  Fe  Fe145     1.0  0.71301  0.28404  0.62858  1.0000
  S   S287      1.0  0.74619  0.29157  0.61538  1.0000
  S   S288      1.0  0.69716  0.25234  0.63065  1.0000
  Fe  Fe146     1.0  0.75486  0.30107  0.63408  1.0000
  S   S289      1.0  0.72298  0.29069  0.64752  1.0000
  H   H1665     1.0  0.64464  0.01722  0.49962  1.0000
  C   C2096     1.0  0.84170  0.15740  0.64461  1.0000
  S   S290      1.0  0.60968  0.03719  0.55763  1.0000
  H   H1666     1.0  0.74914  0.16761  0.56305  1.0000
  P   P71       1.0  0.78079  0.06192  0.72899  1.0000
  S   S291      1.0  0.92987  0.06846  0.66691  1.0000
  C   C2097     1.0  0.90169  0.19017  0.66680  1.0000
  H   H1667     1.0  0.82593  0.20678  0.59330  1.0000
  Fe  Fe147     1.0  0.65974  0.06851  0.71592  1.0000
  H   H1668     1.0  0.87614  0.05303  0.73225  1.0000
  S   S292      1.0  0.67163  0.05047  0.69751  1.0000
  C   C2098     1.0  0.82912  0.08849  0.69894  1.0000
  C   C2099     1.0  0.72369  0.30148  0.68087  1.0000
  C   C2100     1.0  0.68630  0.22865  0.68944  1.0000
  S   S293      1.0  0.98782  0.09770  0.65593  1.0000
  H   H1669     1.0  0.58670  0.17511  0.72036  1.0000
  C   C2101     1.0  0.59030  0.13662  0.69299  1.0000
  S   S294      1.0  0.63150  0.09978  0.71760  1.0000
  H   H1670     1.0  0.95365  0.15950  0.64281  1.0000
  C   C2102     1.0  0.75632  0.26091  0.71957  1.0000
  H   H1671     1.0  0.62834  0.23474  0.69095  1.0000
  H   H1672     1.0  0.54759  0.06259  0.71218  1.0000
  H   H1673     1.0  0.78073  0.12562  0.71626  1.0000
  H   H1674     1.0  0.54248  0.05047  0.56153  1.0000
  H   H1675     1.0  0.93996  0.30853  0.63406  1.0000
  H   H1676     1.0  0.98570  0.07255  0.68379  1.0000
  H   H1677     1.0  0.81637  0.01829  0.69058  1.0000
  C   C2103     1.0  0.77599  0.02544  0.71701  1.0000
  H   H1678     1.0  0.65471  0.19720  0.71688  1.0000
  H   H1679     1.0  0.54218  0.12195  0.67675  1.0000
  C   C2104     1.0  0.71742  0.19472  0.70336  1.0000
  Fe  Fe148     1.0  0.88218  0.31331  0.67713  1.0000
  H   H1680     1.0  0.59051  0.04622  0.51578  1.0000
  H   H1681     1.0  0.85040  0.13737  0.71925  1.0000
  C   C2105     1.0  0.80467  0.16285  0.69043  1.0000
  C   C2106     1.0  0.74063  0.03042  0.68516  1.0000
  Fe  Fe149     1.0  0.90363  0.13360  0.66624  1.0000
  S   S295      1.0  0.92843  0.11497  0.68074  1.0000
  H   H1682     1.0  0.50940  0.18888  0.48953  1.0000
  C   C2107     1.0  0.67827  0.03501  0.58080  1.0000
  C   C2108     1.0  0.69248  0.04396  0.56915  1.0000
  C   C2109     1.0  0.70966  0.05618  0.57040  1.0000
  C   C2110     1.0  0.71239  0.06012  0.58324  1.0000
  C   C2111     1.0  0.69765  0.05185  0.59482  1.0000
  S   S296      1.0  0.62537  0.06968  0.52040  1.0000
  H   H1683     1.0  0.69073  0.04079  0.55925  1.0000
  H   H1684     1.0  0.72113  0.06232  0.56141  1.0000
  H   H1685     1.0  0.69964  0.05462  0.60476  1.0000
  H   H1686     1.0  0.82633  0.26530  0.68570  1.0000
  C   C2112     1.0  0.73203  0.19638  0.60461  1.0000
  C   C2113     1.0  0.71395  0.19250  0.61536  1.0000
  C   C2114     1.0  0.70308  0.21002  0.62307  1.0000
  C   C2115     1.0  0.71026  0.23147  0.62013  1.0000
  C   C2116     1.0  0.72785  0.23567  0.60909  1.0000
  C   C2117     1.0  0.73876  0.21809  0.60134  1.0000
  H   H1687     1.0  0.70833  0.17597  0.61777  1.0000
  H   H1688     1.0  0.68937  0.20678  0.63154  1.0000
  H   H1689     1.0  0.73322  0.25230  0.60664  1.0000
  H   H1690     1.0  0.75258  0.22122  0.59294  1.0000
  C   C2118     1.0  0.67025  0.06855  0.68167  1.0000
  C   C2119     1.0  0.68408  0.06107  0.66993  1.0000
  C   C2120     1.0  0.68471  0.07594  0.65737  1.0000
  C   C2121     1.0  0.67109  0.09817  0.65641  1.0000
  C   C2122     1.0  0.65661  0.10535  0.66805  1.0000
  C   C2123     1.0  0.65643  0.09068  0.68069  1.0000
  H   H1691     1.0  0.69473  0.04395  0.67060  1.0000
  H   H1692     1.0  0.69548  0.07004  0.64840  1.0000
  H   H1693     1.0  0.64593  0.12246  0.66735  1.0000
  H   H1694     1.0  0.64580  0.09662  0.68965  1.0000
  C   C2124     1.0  0.87919  0.08255  0.71648  1.0000
  C   C2125     1.0  0.65928  0.15616  0.51114  1.0000
  H   H1695     1.0  0.85360  0.01104  0.61520  1.0000
  C   C2126     1.0  0.87223  0.10643  0.71293  1.0000
  C   C2127     1.0  0.62270  0.31158  0.54315  1.0000
  H   H1696     1.0  0.87881  0.11508  0.70297  1.0000
  C   C2128     1.0  0.86015  0.08438  0.63782  1.0000
  C   C2129     1.0  0.84988  0.08568  0.62617  1.0000
  C   C2130     1.0  0.82551  0.08726  0.62729  1.0000
  C   C2131     1.0  0.81159  0.08671  0.64014  1.0000
  C   C2132     1.0  0.82203  0.08516  0.65163  1.0000
  C   C2133     1.0  0.84598  0.08471  0.65047  1.0000
  H   H1697     1.0  0.86079  0.08538  0.61632  1.0000
  H   H1698     1.0  0.81766  0.08822  0.61833  1.0000
  H   H1699     1.0  0.81151  0.08415  0.66150  1.0000
  H   H1700     1.0  0.85366  0.08350  0.65947  1.0000
  C   C2134     1.0  0.82556  0.28501  0.65440  1.0000
  H   H1701     1.0  0.85412  0.28531  0.66477  1.0000
  H   H1702     1.0  0.82893  0.26637  0.65525  1.0000
  C   C2135     1.0  0.66132  0.17877  0.50488  1.0000
  C   C2136     1.0  0.90655  0.22957  0.66662  1.0000
  C   C2137     1.0  0.89404  0.21414  0.66371  1.0000
  H   H1703     1.0  0.90080  0.24803  0.66403  1.0000
  H   H1704     1.0  0.87863  0.22082  0.65894  1.0000
  S   S297      1.0  0.65904  0.01459  0.53958  1.0000
  H   H1705     1.0  0.61814  0.27635  0.54519  1.0000
  C   C2138     1.0  0.78642  0.01712  0.67198  1.0000
  C   C2139     1.0  0.50222  0.99614  0.55194  1.0000
  S   S298      1.0  0.66386  0.14808  0.71961  1.0000
  H   H1706     1.0  0.79714  0.16200  0.57542  1.0000
  C   C2140     1.0  0.76594  0.31729  0.67678  1.0000
  C   C2141     1.0  0.65977  0.28297  0.60533  1.0000
  H   H1707     1.0  0.71094  0.25135  0.56871  1.0000
  C   C2142     1.0  0.68737  0.20524  0.58608  1.0000
  C   C2143     1.0  0.72497  0.11497  0.73038  1.0000
  H   H1708     1.0  0.66764  0.03620  0.51061  1.0000
  H   H1709     1.0  0.67426  0.24111  0.70863  1.0000
  C   C2144     1.0  0.59521  0.18834  0.71376  1.0000
  H   H1710     1.0  0.63732  0.09019  0.49256  1.0000
  C   C2145     1.0  0.55552  0.12576  0.68148  1.0000
  C   C2146     1.0  0.74218  0.00686  0.72236  1.0000
  C   C2147     1.0  0.52185  0.05532  0.67270  1.0000
  H   H1711     1.0  0.82633  0.07728  0.72050  1.0000
  C   C2148     1.0  0.79545  0.08838  0.68875  1.0000
  P   P72       1.0  0.81589  0.00896  0.66335  1.0000
  H   H1712     1.0  0.63162  0.03208  0.71388  1.0000
  H   H1713     1.0  0.71810  0.19412  0.55135  1.0000
  H   H1714     1.0  0.72875  0.18139  0.70905  1.0000
  C   C2149     1.0  0.61891  0.22173  0.69712  1.0000
  C   C2150     1.0  0.81869  0.03094  0.61679  1.0000
  H   H1715     1.0  0.83962  0.14561  0.66619  1.0000
  C   C2151     1.0  0.98343  0.27157  0.64892  1.0000
  H   H1716     1.0  0.81922  0.30976  0.71534  1.0000
  H   H1717     1.0  0.66968  0.30357  0.65669  1.0000
  S   S299      1.0  0.68584  0.08219  0.72395  1.0000
  H   H1718     1.0  0.60483  0.19886  0.49979  1.0000
  C   C2152     1.0  0.64182  0.19444  0.50065  1.0000
  C   C2153     1.0  0.99035  0.17835  0.65864  1.0000
  C   C2154     1.0  0.92179  0.18174  0.67279  1.0000
  H   H1719     1.0  0.98867  0.28270  0.67201  1.0000
  S   S300      1.0  0.56110  0.99751  0.56630  1.0000
  C   C2155     1.0  0.52199  0.24938  0.71384  1.0000
  H   H1720     1.0  0.54539  0.12759  0.71136  1.0000
  C   C2156     1.0  0.88381  0.14075  0.61851  1.0000
  H   H1721     1.0  0.77239  0.01326  0.49064  1.0000
  H   H1722     1.0  0.67824  0.18392  0.50300  1.0000
  C   C2157     1.0  0.93433  0.19712  0.67561  1.0000
  H   H1723     1.0  0.75373  0.18455  0.62939  1.0000
  H   H1724     1.0  0.70937  0.12079  0.72563  1.0000
  H   H1725     1.0  0.64452  0.19298  0.69068  1.0000
  C   C2158     1.0  0.81691  0.01774  0.64513  1.0000
  C   C2159     1.0  0.56595  0.05572  0.71218  1.0000
  Fe  Fe150     1.0  0.89011  0.28907  0.70567  1.0000
  H   H1726     1.0  0.52631  0.09404  0.69833  1.0000
  C   C2160     1.0  0.97945  0.16305  0.65424  1.0000
  H   H1727     1.0  0.87318  0.13019  0.62597  1.0000
  C   C2161     1.0  0.55173  0.26840  0.71781  1.0000
  H   H1728     1.0  0.78715  0.18464  0.67462  1.0000
  C   C2162     1.0  0.61515  0.06801  0.50554  1.0000
  H   H1729     1.0  0.50642  0.03455  0.56910  1.0000
  H   H1730     1.0  0.72098  0.20900  0.57438  1.0000
  C   C2163     1.0  0.52657  0.08439  0.56638  1.0000
  P   P73       1.0  0.84362  0.17478  0.61698  1.0000
  C   C2164     1.0  0.59801  0.22855  0.70559  1.0000
  C   C2165     1.0  0.80292  0.14631  0.70219  1.0000
  C   C2166     1.0  0.50990  0.27075  0.70828  1.0000
  H   H1731     1.0  0.52050  0.04435  0.66563  1.0000
  C   C2167     1.0  0.59830  0.05459  0.50609  1.0000
  C   C2168     1.0  0.54326  0.11512  0.72053  1.0000
  C   C2169     1.0  0.62014  0.18726  0.50302  1.0000
  C   C2170     1.0  0.58584  0.21192  0.71394  1.0000
  C   C2171     1.0  0.62432  0.07978  0.49299  1.0000
  H   H1732     1.0  0.81923  0.23762  0.72871  1.0000
  C   C2172     1.0  0.52004  0.99169  0.55999  1.0000
  H   H1733     1.0  0.98612  0.25526  0.65576  1.0000
  C   C2173     1.0  0.74823  0.00796  0.68218  1.0000
  C   C2174     1.0  0.54317  0.24799  0.71856  1.0000
  H   H1734     1.0  0.73639  0.28865  0.70723  1.0000
  C   C2175     1.0  0.55553  0.14881  0.68234  1.0000
  H   H1735     1.0  0.60392  0.14065  0.69737  1.0000
  C   C2176     1.0  0.86690  0.03918  0.68124  1.0000
  Fe  Fe151     1.0  0.65665  0.11215  0.72730  1.0000
  H   H1736     1.0  0.96906  0.14992  0.68043  1.0000
  H   H1737     1.0  0.91489  0.11460  0.61943  1.0000
  C   C2177     1.0  0.83498  0.24990  0.62438  1.0000
  H   H1738     1.0  0.50946  0.30742  0.70299  1.0000
  H   H1739     1.0  0.54365  0.22214  0.49294  1.0000
  H   H1740     1.0  0.54682  0.30520  0.71118  1.0000
  C   C2178     1.0  0.85552  0.02864  0.66182  1.0000
  C   C2179     1.0  0.81797  0.09294  0.68751  1.0000
  H   H1741     1.0  0.92048  0.17585  0.70657  1.0000
  H   H1742     1.0  0.86789  0.23710  0.70580  1.0000
  H   H1743     1.0  0.69233  0.18663  0.58881  1.0000
  C   C2180     1.0  0.57295  0.04248  0.72418  1.0000
  H   H1744     1.0  0.80449  0.20100  0.57599  1.0000
  C   C2181     1.0  0.52350  0.02207  0.53533  1.0000
  H   H1745     1.0  0.82685  0.10009  0.67777  1.0000
  C   C2182     1.0  0.54371  0.05949  0.67380  1.0000
  H   H1746     1.0  0.50512  0.14960  0.48741  1.0000
  C   C2183     1.0  0.77105  0.00126  0.67566  1.0000
  C   C2184     1.0  0.69593  0.29586  0.57204  1.0000
  C   C2185     1.0  0.90747  0.13180  0.61478  1.0000
  H   H1747     1.0  0.65530  0.29806  0.50021  1.0000
  H   H1748     1.0  0.64675  0.05578  0.64167  1.0000
  H   H1749     1.0  0.66548  0.28259  0.52332  1.0000
  C   C2186     1.0  0.62353  0.04234  0.65909  1.0000
  C   C2187     1.0  0.66437  0.30738  0.66699  1.0000
  C   C2188     1.0  0.63223  0.05997  0.64963  1.0000
  C   C2189     1.0  0.92155  0.14491  0.60508  1.0000
  C   C2190     1.0  0.60445  0.08865  0.66117  1.0000
  C   C2191     1.0  0.67064  0.03742  0.49962  1.0000
  H   H1750     1.0  0.70497  0.28802  0.59246  1.0000
  C   C2192     1.0  0.65996  0.16642  0.73175  1.0000
  C   C2193     1.0  0.89575  0.20792  0.70631  1.0000
  H   H1751     1.0  0.54203  0.16246  0.67857  1.0000
  H   H1752     1.0  0.60503  0.25916  0.49893  1.0000
  C   C2194     1.0  0.61917  0.23625  0.48392  1.0000
  C   C2195     1.0  0.68783  0.08946  0.54032  1.0000
  C   C2196     1.0  0.66731  0.08419  0.53787  1.0000
  C   C2197     1.0  0.64566  0.09605  0.54329  1.0000
  C   C2198     1.0  0.64447  0.11323  0.55110  1.0000
  C   C2199     1.0  0.66498  0.11858  0.55367  1.0000
  C   C2200     1.0  0.68672  0.10648  0.54828  1.0000
  P   P74       1.0  0.66273  0.13919  0.56494  1.0000
  C   C2201     1.0  0.64087  0.16394  0.56001  1.0000
  C   C2202     1.0  0.65542  0.12566  0.58240  1.0000
  C   C2203     1.0  0.65611  0.13719  0.59313  1.0000
  C   C2204     1.0  0.65149  0.12654  0.60669  1.0000
  C   C2205     1.0  0.64667  0.10414  0.60962  1.0000
  C   C2206     1.0  0.64598  0.09252  0.59904  1.0000
  C   C2207     1.0  0.65047  0.10312  0.58547  1.0000
  C   C2208     1.0  0.63999  0.17214  0.54609  1.0000
  C   C2209     1.0  0.62326  0.19125  0.54202  1.0000
  C   C2210     1.0  0.60739  0.20247  0.55181  1.0000
  C   C2211     1.0  0.60815  0.19447  0.56568  1.0000
  C   C2212     1.0  0.62475  0.17522  0.56978  1.0000
  C   C2213     1.0  0.69033  0.14823  0.56363  1.0000
  C   C2214     1.0  0.69406  0.17023  0.55682  1.0000
  C   C2215     1.0  0.71533  0.17707  0.55646  1.0000
  C   C2216     1.0  0.73290  0.16212  0.56295  1.0000
  C   C2217     1.0  0.72939  0.14016  0.56958  1.0000
  C   C2218     1.0  0.70821  0.13325  0.56992  1.0000
  H   H1753     1.0  0.70460  0.07977  0.53646  1.0000
  H   H1754     1.0  0.66810  0.07056  0.53203  1.0000
  H   H1755     1.0  0.62975  0.09150  0.54173  1.0000
  H   H1756     1.0  0.62750  0.12180  0.55550  1.0000
  H   H1757     1.0  0.70284  0.10961  0.55045  1.0000
  H   H1758     1.0  0.66088  0.15414  0.59104  1.0000
  H   H1759     1.0  0.65261  0.13525  0.61494  1.0000
  H   H1760     1.0  0.64412  0.09557  0.62009  1.0000
  H   H1761     1.0  0.64265  0.07497  0.60131  1.0000
  H   H1762     1.0  0.65072  0.09322  0.57754  1.0000
  H   H1763     1.0  0.65230  0.16370  0.53842  1.0000
  H   H1764     1.0  0.62253  0.19730  0.53128  1.0000
  H   H1765     1.0  0.59443  0.21730  0.54865  1.0000
  H   H1766     1.0  0.59577  0.20309  0.57328  1.0000
  H   H1767     1.0  0.62478  0.16924  0.58056  1.0000
  H   H1768     1.0  0.68061  0.18226  0.55196  1.0000
  H   H1769     1.0  0.74292  0.12851  0.57468  1.0000
  H   H1770     1.0  0.70567  0.11624  0.57525  1.0000
  H   H1771     1.0  0.74262  0.30114  0.58556  1.0000
  H   H1772     1.0  0.80471  0.21436  0.61549  1.0000
  H   H1773     1.0  0.54247  0.09136  0.56284  1.0000
  C   C2219     1.0  0.98228  0.14142  0.68662  1.0000
  H   H1774     1.0  0.55902  0.05162  0.66749  1.0000
  C   C2220     1.0  0.84697  0.03261  0.68951  1.0000
  C   C2221     1.0  0.79431  0.23602  0.66884  1.0000
  C   C2222     1.0  0.81018  0.22398  0.65944  1.0000
  C   C2223     1.0  0.83081  0.21044  0.66324  1.0000
  C   C2224     1.0  0.83566  0.20909  0.67640  1.0000
  C   C2225     1.0  0.81970  0.22088  0.68599  1.0000
  C   C2226     1.0  0.79889  0.23434  0.68210  1.0000
  P   P75       1.0  0.82615  0.21965  0.70294  1.0000
  C   C2227     1.0  0.80783  0.20312  0.71577  1.0000
  C   C2228     1.0  0.85618  0.20598  0.70402  1.0000
  C   C2229     1.0  0.87266  0.21877  0.70539  1.0000
  C   C2230     1.0  0.52660  0.06135  0.56562  1.0000
  C   C2231     1.0  0.90251  0.18418  0.70604  1.0000
  C   C2232     1.0  0.88622  0.17128  0.70476  1.0000
  C   C2233     1.0  0.86314  0.18212  0.70378  1.0000
  C   C2234     1.0  0.78549  0.20124  0.71384  1.0000
  C   C2235     1.0  0.79751  0.03160  0.63972  1.0000
  H   H1775     1.0  0.78165  0.03769  0.64630  1.0000
  H   H1776     1.0  0.50051  0.23881  0.61796  1.0000
  S   S301      1.0  0.60839  0.00740  0.53369  1.0000
  C   C2236     1.0  0.82181  0.24859  0.70682  1.0000
  C   C2237     1.0  0.82313  0.26761  0.69630  1.0000
  C   C2238     1.0  0.82164  0.28973  0.69935  1.0000
  C   C2239     1.0  0.81920  0.29293  0.71292  1.0000
  C   C2240     1.0  0.81795  0.27410  0.72342  1.0000
  C   C2241     1.0  0.81922  0.25203  0.72042  1.0000
  H   H1777     1.0  0.77880  0.24721  0.66563  1.0000
  H   H1778     1.0  0.80672  0.22557  0.64913  1.0000
  H   H1779     1.0  0.84334  0.20136  0.65590  1.0000
  H   H1780     1.0  0.85199  0.19893  0.67897  1.0000
  H   H1781     1.0  0.78652  0.24402  0.68918  1.0000
  H   H1782     1.0  0.51876  0.16698  0.71137  1.0000
  C   C2242     1.0  0.57294  0.15424  0.68809  1.0000
  C   C2243     1.0  0.59658  0.03396  0.72480  1.0000
  H   H1783     1.0  0.89158  0.15294  0.70436  1.0000
  H   H1784     1.0  0.85077  0.17195  0.70266  1.0000
  H   H1785     1.0  0.77889  0.20897  0.70445  1.0000
  C   C2244     1.0  0.87124  0.03703  0.66745  1.0000
  H   H1786     1.0  0.60154  0.15900  0.51086  1.0000
  C   C2245     1.0  0.76418  0.00893  0.71484  1.0000
  C   C2246     1.0  0.98435  0.20217  0.65409  1.0000
  S   S302      1.0  0.88321  0.27662  0.68755  1.0000
  H   H1787     1.0  0.65021  0.27630  0.67447  1.0000
  H   H1788     1.0  0.98188  0.19628  0.68691  1.0000
  C   C2247     1.0  0.62797  0.19827  0.69694  1.0000
  H   H1789     1.0  0.87898  0.04601  0.68551  1.0000
  S   S303      1.0  0.88604  0.17096  0.66311  1.0000
  H   H1790     1.0  0.50740  0.18223  0.64965  1.0000
  C   C2248     1.0  0.66136  0.27114  0.51738  1.0000
  C   C2249     1.0  0.92689  0.22102  0.67245  1.0000
  S   S304      1.0  0.78880  0.28379  0.64193  1.0000
  Fe  Fe152     1.0  0.62472  0.03685  0.53559  1.0000
  C   C2250     1.0  0.65347  0.29189  0.67708  1.0000
  H   H1791     1.0  0.78358  0.04942  0.62157  1.0000
  H   H1792     1.0  0.76997  0.25681  0.71119  1.0000
  C   C2251     1.0  0.71785  0.19524  0.68937  1.0000
  H   H1793     1.0  0.70149  0.21091  0.72102  1.0000
  C   C2252     1.0  0.80692  0.29824  0.64797  1.0000
  H   H1794     1.0  0.62385  0.16347  0.70561  1.0000
  C   C2253     1.0  0.83988  0.29571  0.65983  1.0000
  C   C2254     1.0  0.70197  0.21140  0.71022  1.0000
  H   H1795     1.0  0.56755  0.26800  0.72180  1.0000
  H   H1796     1.0  0.56008  0.03946  0.73317  1.0000
  S   S305      1.0  0.92887  0.28217  0.69997  1.0000
  H   H1797     1.0  0.98427  0.14457  0.65730  1.0000
  H   H1798     1.0  0.57920  0.11031  0.72342  1.0000
  H   H1799     1.0  0.73284  0.99426  0.72062  1.0000
  C   C2255     1.0  0.75578  0.04627  0.68152  1.0000
  C   C2256     1.0  0.68649  0.22841  0.70325  1.0000
  C   C2257     1.0  0.61619  0.18162  0.70532  1.0000
  H   H1800     1.0  0.83293  0.26753  0.62619  1.0000
  S   S306      1.0  0.63438  0.27620  0.70301  1.0000
  C   C2258     1.0  0.80973  0.14059  0.65858  1.0000
  H   H1801     1.0  0.95827  0.12241  0.70068  1.0000
  C   C2259     1.0  0.50601  0.09838  0.57157  1.0000
  H   H1802     1.0  0.65360  0.28168  0.62715  1.0000
  C   C2260     1.0  0.69786  0.24196  0.57483  1.0000
  C   C2261     1.0  0.77848  0.03978  0.67481  1.0000
  H   H1803     1.0  0.50591  0.11632  0.57198  1.0000
  C   C2262     1.0  0.70183  0.21211  0.68251  1.0000
  H   H1804     1.0  0.61981  0.05594  0.69290  1.0000
  C   C2263     1.0  0.64698  0.29644  0.69048  1.0000
  H   H1805     1.0  0.94755  0.27024  0.64858  1.0000
  S   S307      1.0  0.65780  0.01768  0.58008  1.0000
  H   H1806     1.0  0.51488  0.25752  0.48643  1.0000
  H   H1807     1.0  0.80052  0.25476  0.61922  1.0000
  C   C2264     1.0  0.74680  0.18997  0.66298  1.0000
  C   C2265     1.0  0.52230  0.17364  0.71985  1.0000
  H   H1808     1.0  0.73071  0.31862  0.54398  1.0000
  C   C2266     1.0  0.68096  0.03908  0.59361  1.0000
  C   C2267     1.0  0.85820  0.21149  0.62412  1.0000
  H   H1809     1.0  0.69607  0.05923  0.49667  1.0000
  H   H1810     1.0  0.76223  0.22407  0.62662  1.0000
  H   H1811     1.0  0.60492  0.99462  0.50304  1.0000
  C   C2268     1.0  0.75828  0.21445  0.63673  1.0000
  C   C2269     1.0  0.75341  0.19222  0.63831  1.0000
  S   S308      1.0  0.92549  0.11948  0.64813  1.0000
  H   H1812     1.0  0.74242  0.16356  0.65210  1.0000
  C   C2270     1.0  0.68669  0.05050  0.49166  1.0000
  C   C2271     1.0  0.75754  0.24823  0.73264  1.0000
  C   C2272     1.0  0.53991  0.28961  0.71189  1.0000
  H   H1813     1.0  0.92778  0.16336  0.67518  1.0000
  C   C2273     1.0  0.78462  0.07836  0.70129  1.0000
  H   H1814     1.0  0.76723  0.07481  0.70207  1.0000
  C   C2274     1.0  0.75708  0.22468  0.64818  1.0000
  C   C2275     1.0  0.74723  0.18019  0.65134  1.0000
  H   H1815     1.0  0.82357  0.30411  0.69112  1.0000
  H   H1816     1.0  0.93988  0.13787  0.60229  1.0000
  H   H1817     1.0  0.76010  0.24227  0.64684  1.0000
  H   H1818     1.0  0.51441  0.23424  0.71456  1.0000
  H   H1819     1.0  0.69333  0.16077  0.69183  1.0000
  Fe  Fe153     1.0  0.64306  0.01297  0.56172  1.0000
  C   C2276     1.0  0.60538  0.04783  0.66966  1.0000
  C   C2277     1.0  0.78528  0.17201  0.68378  1.0000
  C   C2278     1.0  0.75154  0.21245  0.66126  1.0000
  C   C2279     1.0  0.59593  0.07107  0.67089  1.0000
  C   C2280     1.0  0.52526  0.08331  0.69108  1.0000
  P   P76       1.0  0.57378  0.07814  0.68516  1.0000
  C   C2281     1.0  0.60639  0.05198  0.70142  1.0000
  H   H1820     1.0  0.74306  0.09829  0.66786  1.0000
  H   H1821     1.0  0.59914  0.03399  0.67709  1.0000
  C   C2282     1.0  0.71031  0.29449  0.58182  1.0000
  H   H1822     1.0  0.75042  0.22069  0.67004  1.0000
  H   H1823     1.0  0.70136  0.21263  0.67178  1.0000
  H   H1824     1.0  0.74657  0.14072  0.70438  1.0000
  P   P77       1.0  0.73893  0.17492  0.68008  1.0000
  C   C2283     1.0  0.70449  0.14727  0.68663  1.0000
  C   C2284     1.0  0.61326  0.03856  0.71339  1.0000
  H   H1825     1.0  0.67881  0.12509  0.69210  1.0000
  C   C2285     1.0  0.69617  0.12701  0.68683  1.0000
  H   H1826     1.0  0.72293  0.03561  0.69020  1.0000
  Fe  Fe154     1.0  0.63165  0.28173  0.72464  1.0000
  C   C2286     1.0  0.54379  0.99053  0.49844  1.0000
  H   H1827     1.0  0.70366  0.09378  0.68015  1.0000
  C   C2287     1.0  0.58260  0.06049  0.70064  1.0000
  C   C2288     1.0  0.71014  0.10930  0.68017  1.0000
  C   C2289     1.0  0.72706  0.14965  0.67994  1.0000
  H   H1828     1.0  0.78231  0.28253  0.67441  1.0000
  H   H1829     1.0  0.74465  0.26824  0.67819  1.0000
  C   C2290     1.0  0.78191  0.13856  0.70720  1.0000
  C   C2291     1.0  0.64883  0.29103  0.61748  1.0000
  H   H1830     1.0  0.74973  0.06366  0.68376  1.0000
  C   C2292     1.0  0.76263  0.14725  0.70045  1.0000
  C   C2293     1.0  0.76405  0.16427  0.68875  1.0000
  C   C2294     1.0  0.54560  0.07344  0.68308  1.0000
  C   C2295     1.0  0.73252  0.11164  0.67345  1.0000
  H   H1831     1.0  0.75884  0.13258  0.66889  1.0000
  C   C2296     1.0  0.53971  0.00225  0.55566  1.0000
  C   C2297     1.0  0.74120  0.13139  0.67373  1.0000
  P   P78       1.0  0.66890  0.28495  0.57702  1.0000
  S   S309      1.0  0.87418  0.27452  0.72671  1.0000
  C   C2298     1.0  0.65760  0.02675  0.49341  1.0000
  H   H1832     1.0  0.52371  0.26211  0.59988  1.0000
  C   C2299     1.0  0.81928  0.21989  0.61813  1.0000
  H   H1833     1.0  0.96207  0.22902  0.64262  1.0000
  C   C2300     1.0  0.76590  0.29402  0.67669  1.0000
  C   C2301     1.0  0.74479  0.28608  0.67871  1.0000
  Fe  Fe155     1.0  0.94891  0.09844  0.66289  1.0000
  H   H1834     1.0  0.55640  0.02582  0.53994  1.0000
  C   C2302     1.0  0.96238  0.17145  0.64581  1.0000
  H   H1835     1.0  0.81943  0.03639  0.60588  1.0000
  C   C2303     1.0  0.50509  0.26809  0.60246  1.0000
  P   P79       1.0  0.55941  0.22046  0.72552  1.0000
  C   C2304     1.0  0.87066  0.07148  0.72944  1.0000
  C   C2305     1.0  0.83083  0.16031  0.63307  1.0000
  H   H1836     1.0  0.70521  0.29814  0.72646  1.0000
  C   C2306     1.0  0.61817  0.16464  0.50930  1.0000
  C   C2307     1.0  0.65552  0.27991  0.50440  1.0000
  C   C2308     1.0  0.81790  0.07940  0.71164  1.0000
  H   H1837     1.0  0.80151  0.13301  0.66840  1.0000
  H   H1838     1.0  0.83291  0.19344  0.72991  1.0000
  C   C2309     1.0  0.64018  0.27992  0.55908  1.0000
  C   C2310     1.0  0.67583  0.25368  0.58008  1.0000
  C   C2311     1.0  0.65571  0.19034  0.72748  1.0000
  C   C2312     1.0  0.70384  0.30389  0.55828  1.0000
  C   C2313     1.0  0.50616  0.05223  0.57012  1.0000
  C   C2314     1.0  0.63774  0.14906  0.51329  1.0000
  H   H1839     1.0  0.60379  0.10021  0.69608  1.0000
  C   C2315     1.0  0.65951  0.24086  0.58821  1.0000
  H   H1840     1.0  0.78975  0.05250  0.67164  1.0000
  S   S310      1.0  0.94394  0.23987  0.67511  1.0000
  C   C2316     1.0  0.65730  0.23284  0.51473  1.0000
  C   C2317     1.0  0.83551  0.02179  0.67007  1.0000
  C   C2318     1.0  0.54147  0.01734  0.54326  1.0000
  H   H1841     1.0  0.66684  0.24088  0.53262  1.0000
  H   H1842     1.0  0.84373  0.03430  0.70021  1.0000
  H   H1843     1.0  0.81788  0.13930  0.70739  1.0000
  C   C2319     1.0  0.65045  0.26525  0.49661  1.0000
  C   C2320     1.0  0.66215  0.24764  0.52258  1.0000
  C   C2321     1.0  0.53716  0.18970  0.71762  1.0000
  H   H1844     1.0  0.75420  0.18758  0.72269  1.0000
  C   C2322     1.0  0.70357  0.21787  0.57787  1.0000
  H   H1845     1.0  0.85907  0.02796  0.65103  1.0000
  P   P80       1.0  0.64534  0.22272  0.49120  1.0000
  H   H1846     1.0  0.67446  0.14396  0.51417  1.0000
  H   H1847     1.0  0.69364  0.30442  0.55039  1.0000
  C   C2323     1.0  0.83110  0.14769  0.65734  1.0000
  H   H1848     1.0  0.65830  0.21473  0.51890  1.0000
  H   H1849     1.0  0.90847  0.21803  0.70706  1.0000
  H   H1850     1.0  0.57307  0.17207  0.68872  1.0000
  H   H1851     1.0  0.67019  0.03208  0.60269  1.0000
  H   H1852     1.0  0.85830  0.16276  0.64379  1.0000
  H   H1853     1.0  0.94983  0.19043  0.68021  1.0000
  H   H1854     1.0  0.73630  0.99581  0.68488  1.0000
  C   C2324     1.0  0.73187  0.30165  0.57794  1.0000
  C   C2325     1.0  0.82277  0.18967  0.59330  1.0000
  H   H1855     1.0  0.83327  0.13390  0.60956  1.0000
  H   H1856     1.0  0.78284  0.13702  0.64785  1.0000
  C   C2326     1.0  0.79899  0.14318  0.64710  1.0000
  C   C2327     1.0  0.91194  0.16696  0.59894  1.0000
  H   H1857     1.0  0.82121  0.16832  0.68642  1.0000
  C   C2328     1.0  0.50346  0.07913  0.68997  1.0000
  C   C2329     1.0  0.65148  0.24152  0.50163  1.0000
  C   C2330     1.0  0.85606  0.11899  0.72207  1.0000
  C   C2331     1.0  0.96731  0.21057  0.64560  1.0000
  C   C2332     1.0  0.59087  0.05261  0.49409  1.0000
  H   H1858     1.0  0.82926  0.03602  0.72685  1.0000
  H   H1859     1.0  0.62960  0.09680  0.64352  1.0000
  H   H1860     1.0  0.54497  0.19559  0.70730  1.0000
  H   H1861     1.0  0.94236  0.20177  0.63543  1.0000
  H   H1862     1.0  0.69615  0.15597  0.48496  1.0000
  C   C2333     1.0  0.73746  0.27887  0.71734  1.0000
  H   H1863     1.0  0.70726  0.29557  0.68198  1.0000
  C   C2334     1.0  0.80917  0.15349  0.63446  1.0000
  C   C2335     1.0  0.52135  0.10892  0.72552  1.0000
  C   C2336     1.0  0.80696  0.16439  0.58289  1.0000
  H   H1864     1.0  0.79990  0.15613  0.62589  1.0000
  H   H1865     1.0  0.55735  0.00068  0.49713  1.0000
  C   C2337     1.0  0.64730  0.31865  0.55787  1.0000
  C   C2338     1.0  0.72514  0.31159  0.55451  1.0000
  C   C2339     1.0  0.73990  0.09432  0.72791  1.0000
  H   H1866     1.0  0.67402  0.24167  0.68413  1.0000
  H   H1867     1.0  0.57763  0.04242  0.49457  1.0000
  C   C2340     1.0  0.62254  0.08308  0.65063  1.0000
  C   C2341     1.0  0.77136  0.18905  0.72415  1.0000
  H   H1868     1.0  0.87403  0.19942  0.62616  1.0000
  H   H1869     1.0  0.59190  0.24682  0.70569  1.0000
  C   C2342     1.0  0.97584  0.12604  0.69833  1.0000
  C   C2343     1.0  0.83142  0.02381  0.68398  1.0000
  H   H1870     1.0  0.92281  0.17705  0.59133  1.0000
  H   H1871     1.0  0.57109  0.27891  0.48769  1.0000
  H   H1872     1.0  0.98718  0.10295  0.71591  1.0000
  H   H1873     1.0  0.64265  0.26173  0.56333  1.0000
  C   C2344     1.0  0.65401  0.29516  0.59273  1.0000
  C   C2345     1.0  0.84043  0.20442  0.61939  1.0000
  H   H1874     1.0  0.88096  0.19295  0.59768  1.0000
  C   C2346     1.0  0.79595  0.07340  0.71279  1.0000
  C   C2347     1.0  0.50393  0.01136  0.53958  1.0000
  C   C2348     1.0  0.79846  0.03823  0.62562  1.0000
  Fe  Fe156     1.0  0.59652  0.00543  0.55618  1.0000
  C   C2349     1.0  0.82710  0.14870  0.60227  1.0000
  C   C2350     1.0  0.65077  0.29518  0.56375  1.0000
  H   H1875     1.0  0.78627  0.09259  0.68006  1.0000
  H   H1876     1.0  0.52486  0.03392  0.52579  1.0000
  H   H1877     1.0  0.85195  0.99877  0.64006  1.0000
  C   C2351     1.0  0.83011  0.17096  0.60320  1.0000
  C   C2352     1.0  0.81676  0.24269  0.62035  1.0000
  C   C2353     1.0  0.88826  0.17593  0.60259  1.0000
  H   H1878     1.0  0.73233  0.03370  0.48888  1.0000
  C   C2354     1.0  0.96149  0.28009  0.64495  1.0000
  H   H1879     1.0  0.84646  0.09225  0.69792  1.0000
  C   C2355     1.0  0.87413  0.16301  0.61256  1.0000
  C   C2356     1.0  0.51894  0.29083  0.70720  1.0000
  C   C2357     1.0  0.81533  0.14550  0.59225  1.0000
  H   H1880     1.0  0.81227  0.12843  0.59193  1.0000
  C   C2358     1.0  0.59017  0.11360  0.69228  1.0000
  C   C2359     1.0  0.95618  0.19523  0.64156  1.0000
  H   H1881     1.0  0.67301  0.26740  0.60584  1.0000
  C   C2360     1.0  0.62625  0.28812  0.54880  1.0000
  C   C2361     1.0  0.57267  0.10793  0.68667  1.0000
  C   C2362     1.0  0.54133  0.19863  0.72862  1.0000
  H   H1882     1.0  0.77201  0.99781  0.70728  1.0000
  C   C2363     1.0  0.81094  0.18641  0.58330  1.0000
  H   H1883     1.0  0.63625  0.13139  0.51791  1.0000
  H   H1884     1.0  0.63120  0.02442  0.65838  1.0000
  H   H1885     1.0  0.64256  0.24960  0.59252  1.0000
  H   H1886     1.0  0.65304  0.20696  0.59791  1.0000
  C   C2364     1.0  0.66531  0.21672  0.59122  1.0000
  H   H1887     1.0  0.86922  0.23958  0.63016  1.0000
  C   C2365     1.0  0.85551  0.23419  0.62650  1.0000
  H   H1888     1.0  0.88655  0.04248  0.66098  1.0000
  C   C2366     1.0  0.81574  0.19245  0.72811  1.0000
  S   S311      1.0  0.92078  0.30876  0.66891  1.0000
  C   C2367     1.0  0.76580  0.04009  0.72666  1.0000
  C   C2368     1.0  0.83791  0.01671  0.62205  1.0000
  H   H1889     1.0  0.58443  0.11449  0.48447  1.0000
  H   H1890     1.0  0.64608  0.27248  0.48651  1.0000
  H   H1891     1.0  0.50465  0.29908  0.58748  1.0000
  H   H1892     1.0  0.79302  0.02686  0.71118  1.0000
  H   H1893     1.0  0.73581  0.08450  0.72104  1.0000
  H   H1894     1.0  0.75535  0.31704  0.56155  1.0000
  H   H1895     1.0  0.98531  0.28823  0.69560  1.0000
  C   C2369     1.0  0.63231  0.31146  0.61719  1.0000
  C   C2370     1.0  0.58324  0.26477  0.48355  1.0000
  C   C2371     1.0  0.56242  0.10539  0.72736  1.0000
  C   C2372     1.0  0.60271  0.25369  0.48977  1.0000
  C   C2373     1.0  0.73911  0.31056  0.56436  1.0000
  C   C2374     1.0  0.71995  0.28431  0.72818  1.0000
  C   C2375     1.0  0.50175  0.06504  0.68083  1.0000
  H   H1896     1.0  0.99240  0.21434  0.65733  1.0000
  C   C2376     1.0  0.95717  0.30174  0.63683  1.0000
  C   C2377     1.0  0.83697  0.00996  0.63615  1.0000
  H   H1897     1.0  0.62438  0.31794  0.62661  1.0000
  S   S312      1.0  0.49788  0.12202  0.71656  1.0000
  H   H1898     1.0  0.98697  0.22566  0.69944  1.0000
  C   C2378     1.0  0.99205  0.11520  0.70698  1.0000
  C   C2379     1.0  0.97479  0.31494  0.63273  1.0000
  C   C2380     1.0  0.63708  0.31555  0.59257  1.0000
  Fe  Fe157     1.0  0.92477  0.31840  0.68865  1.0000
  H   H1899     1.0  0.71743  0.00041  0.48381  1.0000
  C   C2381     1.0  0.51176  0.16616  0.73307  1.0000
  C   C2382     1.0  0.73223  0.02098  0.73224  1.0000
  C   C2383     1.0  0.65070  0.31690  0.69371  1.0000
  H   H1900     1.0  0.61183  0.31807  0.53523  1.0000
  C   C2384     1.0  0.83580  0.31980  0.65876  1.0000
  S   S313      1.0  0.69240  0.31984  0.62372  1.0000
  H   H1901     1.0  0.53816  0.98684  0.52033  1.0000
  H   H1902     1.0  0.64939  0.22399  0.73337  1.0000
  Fe  Fe158     1.0  0.93191  0.10088  0.94573  1.0000
  S   S314      1.0  0.94387  0.09208  0.92451  1.0000
  S   S315      1.0  0.94593  0.12914  0.95124  1.0000
  C   C2385     1.0  0.84972  0.16913  0.88093  1.0000
  C   C2386     1.0  0.87149  0.15444  0.87993  1.0000
  H   H1903     1.0  0.82029  0.19200  0.76737  1.0000
  C   C2387     1.0  0.74408  0.03739  0.73450  1.0000
  C   C2388     1.0  0.94745  0.00735  0.94602  1.0000
  S   S316      1.0  0.69004  0.04292  0.76056  1.0000
  Fe  Fe159     1.0  0.78934  0.13332  0.79238  1.0000
  S   S317      1.0  0.79436  0.09967  0.80659  1.0000
  S   S318      1.0  0.76779  0.16587  0.79955  1.0000
  Fe  Fe160     1.0  0.81622  0.11163  0.76772  1.0000
  S   S319      1.0  0.82410  0.07613  0.77996  1.0000
  C   C2389     1.0  0.84592  0.24975  0.83339  1.0000
  Fe  Fe161     1.0  0.78641  0.08454  0.78967  1.0000
  S   S320      1.0  0.76244  0.05855  0.79508  1.0000
  Fe  Fe162     1.0  0.83138  0.09446  0.79580  1.0000
  S   S321      1.0  0.86174  0.08795  0.80764  1.0000
  S   S322      1.0  0.77814  0.11864  0.77643  1.0000
  S   S323      1.0  0.82670  0.12944  0.78253  1.0000
  C   C2390     1.0  0.89671  0.21967  0.96632  1.0000
  Fe  Fe163     1.0  0.91195  0.00800  0.88914  1.0000
  C   C2391     1.0  0.51862  0.09297  0.73750  1.0000
  S   S324      1.0  0.88837  0.02879  0.90441  1.0000
  Fe  Fe164     1.0  0.95871  0.00529  0.87081  1.0000
  H   H1904     1.0  0.83886  0.01704  0.76879  1.0000
  C   C2392     1.0  0.55222  0.23792  0.74994  1.0000
  H   H1905     1.0  0.97121  0.27713  0.91253  1.0000
  H   H1906     1.0  0.99273  0.25994  0.94488  1.0000
  H   H1907     1.0  0.83598  0.22697  0.76794  1.0000
  S   S325      1.0  0.92293  0.02503  0.86787  1.0000
  C   C2393     1.0  0.53064  0.19099  0.74189  1.0000
  C   C2394     1.0  0.87111  0.06135  0.81796  1.0000
  C   C2395     1.0  0.86297  0.04117  0.81775  1.0000
  C   C2396     1.0  0.87169  0.02020  0.82574  1.0000
  C   C2397     1.0  0.88818  0.01936  0.83424  1.0000
  C   C2398     1.0  0.89590  0.03968  0.83463  1.0000
  C   C2399     1.0  0.88758  0.06048  0.82644  1.0000
  H   H1908     1.0  0.85031  0.04162  0.81124  1.0000
  H   H1909     1.0  0.86561  0.00459  0.82536  1.0000
  H   H1910     1.0  0.90874  0.03929  0.84098  1.0000
  H   H1911     1.0  0.89419  0.07590  0.82653  1.0000
  C   C2400     1.0  0.78349  0.18752  0.79975  1.0000
  C   C2401     1.0  0.80767  0.18221  0.79930  1.0000
  C   C2402     1.0  0.82000  0.19951  0.79965  1.0000
  C   C2403     1.0  0.80827  0.22212  0.80071  1.0000
  C   C2404     1.0  0.78405  0.22758  0.80113  1.0000
  C   C2405     1.0  0.77166  0.21023  0.80067  1.0000
  H   H1912     1.0  0.81688  0.16472  0.79889  1.0000
  H   H1913     1.0  0.83867  0.19530  0.79919  1.0000
  H   H1914     1.0  0.77488  0.24501  0.80200  1.0000
  H   H1915     1.0  0.75290  0.21435  0.80111  1.0000
  C   C2406     1.0  0.70926  0.04963  0.76991  1.0000
  C   C2407     1.0  0.71767  0.07055  0.76708  1.0000
  C   C2408     1.0  0.73401  0.07393  0.77473  1.0000
  C   C2409     1.0  0.74173  0.05639  0.78517  1.0000
  C   C2410     1.0  0.73284  0.03591  0.78802  1.0000
  C   C2411     1.0  0.71690  0.03250  0.78041  1.0000
  H   H1916     1.0  0.71190  0.08385  0.75892  1.0000
  H   H1917     1.0  0.74075  0.08987  0.77252  1.0000
  H   H1918     1.0  0.73864  0.02235  0.79606  1.0000
  H   H1919     1.0  0.71057  0.01631  0.78263  1.0000
  C   C2412     1.0  0.79945  0.04790  0.74150  1.0000
  C   C2413     1.0  0.87323  0.19883  0.81534  1.0000
  C   C2414     1.0  0.87275  0.27120  0.83839  1.0000
  C   C2415     1.0  0.76756  0.22233  0.84402  1.0000
  C   C2416     1.0  0.49853  0.30719  0.74123  1.0000
  H   H1920     1.0  0.98282  0.14982  0.92443  1.0000
  S   S326      1.0  0.94326  0.07511  0.96342  1.0000
  C   C2417     1.0  0.56698  0.22284  0.74159  1.0000
  C   C2418     1.0  0.85849  0.16451  0.82745  1.0000
  C   C2419     1.0  0.92816  0.07440  0.91925  1.0000
  C   C2420     1.0  0.90553  0.07206  0.92569  1.0000
  C   C2421     1.0  0.89313  0.05848  0.92090  1.0000
  C   C2422     1.0  0.90359  0.04659  0.90998  1.0000
  C   C2423     1.0  0.92629  0.04878  0.90367  1.0000
  C   C2424     1.0  0.93839  0.06291  0.90816  1.0000
  H   H1921     1.0  0.89752  0.08092  0.93424  1.0000
  H   H1922     1.0  0.87559  0.05684  0.92583  1.0000
  H   H1923     1.0  0.93446  0.03988  0.89516  1.0000
  H   H1924     1.0  0.95582  0.06476  0.90309  1.0000
  H   H1925     1.0  0.84092  0.26431  0.90979  1.0000
  C   C2425     1.0  0.75052  0.12109  0.74482  1.0000
  C   C2426     1.0  0.91314  0.30853  0.86944  1.0000
  H   H1926     1.0  0.71722  0.26986  0.80297  1.0000
  C   C2427     1.0  0.87930  0.26525  0.79229  1.0000
  S   S327      1.0  0.58344  0.07688  0.74819  1.0000
  H   H1927     1.0  0.53558  0.07111  0.75374  1.0000
  Fe  Fe165     1.0  0.67037  0.06627  0.74464  1.0000
  Fe  Fe166     1.0  0.95400  0.10430  0.97005  1.0000
  C   C2428     1.0  0.72120  0.27177  0.74129  1.0000
  C   C2429     1.0  0.55674  0.11673  0.82677  1.0000
  P   P81       1.0  0.74159  0.23622  0.76018  1.0000
  C   C2430     1.0  0.73305  0.20904  0.76047  1.0000
  C   C2431     1.0  0.77136  0.23283  0.76308  1.0000
  H   H1928     1.0  0.91408  0.26948  0.94640  1.0000
  H   H1929     1.0  0.89339  0.19575  0.79544  1.0000
  Fe  Fe167     1.0  0.63796  0.25230  0.75215  1.0000
  C   C2432     1.0  0.65396  0.19691  0.75058  1.0000
  H   H1930     1.0  0.76821  0.29118  0.73653  1.0000
  C   C2433     1.0  0.73486  0.19202  0.77204  1.0000
  C   C2434     1.0  0.72679  0.17145  0.77299  1.0000
  C   C2435     1.0  0.71579  0.16823  0.76265  1.0000
  C   C2436     1.0  0.71340  0.18537  0.75120  1.0000
  C   C2437     1.0  0.72202  0.20572  0.75008  1.0000
  C   C2438     1.0  0.72073  0.24878  0.77348  1.0000
  C   C2439     1.0  0.69683  0.24908  0.77393  1.0000
  C   C2440     1.0  0.68048  0.25688  0.78471  1.0000
  C   C2441     1.0  0.68783  0.26420  0.79523  1.0000
  C   C2442     1.0  0.71155  0.26385  0.79491  1.0000
  C   C2443     1.0  0.72796  0.25616  0.78411  1.0000
  C   C2444     1.0  0.93636  0.00023  0.93688  1.0000
  S   S328      1.0  0.82440  0.24281  0.80194  1.0000
  H   H1931     1.0  0.91402  0.24066  0.91069  1.0000
  C   C2445     1.0  0.81620  0.20919  0.84283  1.0000
  H   H1932     1.0  0.66352  0.03429  0.79697  1.0000
  H   H1933     1.0  0.77960  0.19543  0.76441  1.0000
  C   C2446     1.0  0.65832  0.17293  0.75490  1.0000
  S   S329      1.0  0.77724  0.29298  0.81781  1.0000
  C   C2447     1.0  0.82782  0.02531  0.76117  1.0000
  H   H1934     1.0  0.87463  0.21676  0.81455  1.0000
  H   H1935     1.0  0.74221  0.19489  0.78045  1.0000
  H   H1936     1.0  0.72870  0.15830  0.78193  1.0000
  H   H1937     1.0  0.70866  0.15268  0.76365  1.0000
  H   H1938     1.0  0.70413  0.18329  0.74341  1.0000
  H   H1939     1.0  0.60780  0.15706  0.74217  1.0000
  H   H1940     1.0  0.69078  0.24297  0.76604  1.0000
  H   H1941     1.0  0.66211  0.25708  0.78492  1.0000
  H   H1942     1.0  0.67517  0.27043  0.80354  1.0000
  H   H1943     1.0  0.74616  0.25570  0.78432  1.0000
  C   C2448     1.0  0.78017  0.20647  0.83563  1.0000
  H   H1944     1.0  0.83863  0.16946  0.89076  1.0000
  H   H1945     1.0  0.87076  0.23729  0.78479  1.0000
  Fe  Fe168     1.0  0.59677  0.29235  0.74974  1.0000
  H   H1946     1.0  0.61532  0.03745  0.76958  1.0000
  H   H1947     1.0  0.73617  0.04801  0.74230  1.0000
  H   H1948     1.0  0.90250  0.14223  0.86650  1.0000
  C   C2449     1.0  0.83654  0.02554  0.74731  1.0000
  H   H1949     1.0  0.84993  0.26854  0.75386  1.0000
  C   C2450     1.0  0.82006  0.31024  0.87945  1.0000
  C   C2451     1.0  0.79630  0.14503  0.84859  1.0000
  C   C2452     1.0  0.80026  0.14346  0.83468  1.0000
  C   C2453     1.0  0.81761  0.12610  0.82968  1.0000
  C   C2454     1.0  0.83052  0.10990  0.83860  1.0000
  C   C2455     1.0  0.82648  0.11106  0.85260  1.0000
  C   C2456     1.0  0.80946  0.12900  0.85752  1.0000
  P   P82       1.0  0.84239  0.08899  0.86407  1.0000
  C   C2457     1.0  0.84056  0.06057  0.86122  1.0000
  C   C2458     1.0  0.87284  0.09159  0.86170  1.0000
  C   C2459     1.0  0.88608  0.08235  0.87231  1.0000
  C   C2460     1.0  0.90968  0.08389  0.87047  1.0000
  C   C2461     1.0  0.92044  0.09426  0.85799  1.0000
  C   C2462     1.0  0.90746  0.10356  0.84740  1.0000
  C   C2463     1.0  0.88376  0.10236  0.84926  1.0000
  C   C2464     1.0  0.85501  0.04094  0.86713  1.0000
  C   C2465     1.0  0.85335  0.01888  0.86525  1.0000
  C   C2466     1.0  0.83746  0.01619  0.85737  1.0000
  C   C2467     1.0  0.82272  0.03556  0.85165  1.0000
  C   C2468     1.0  0.82399  0.05764  0.85372  1.0000
  C   C2469     1.0  0.82965  0.09132  0.88157  1.0000
  C   C2470     1.0  0.81324  0.07770  0.88860  1.0000
  C   C2471     1.0  0.80411  0.07905  0.90230  1.0000
  C   C2472     1.0  0.81121  0.09403  0.90904  1.0000
  C   C2473     1.0  0.82726  0.10791  0.90204  1.0000
  C   C2474     1.0  0.83631  0.10668  0.88833  1.0000
  H   H1950     1.0  0.78281  0.15850  0.85245  1.0000
  H   H1951     1.0  0.78984  0.15555  0.82774  1.0000
  H   H1952     1.0  0.82087  0.12494  0.81889  1.0000
  H   H1953     1.0  0.84329  0.09602  0.83462  1.0000
  H   H1954     1.0  0.80588  0.13037  0.86825  1.0000
  H   H1955     1.0  0.87838  0.07353  0.88197  1.0000
  H   H1956     1.0  0.91982  0.07641  0.87862  1.0000
  H   H1957     1.0  0.93894  0.09467  0.85648  1.0000
  H   H1958     1.0  0.91588  0.11124  0.83762  1.0000
  H   H1959     1.0  0.87435  0.10936  0.84080  1.0000
  H   H1960     1.0  0.86764  0.04251  0.87318  1.0000
  H   H1961     1.0  0.86496  0.00385  0.86948  1.0000
  H   H1962     1.0  0.83700  0.99912  0.85546  1.0000
  H   H1963     1.0  0.81055  0.03350  0.84542  1.0000
  H   H1964     1.0  0.81202  0.07222  0.84937  1.0000
  H   H1965     1.0  0.80767  0.06582  0.88361  1.0000
  H   H1966     1.0  0.79175  0.06821  0.90774  1.0000
  H   H1967     1.0  0.80443  0.09476  0.91971  1.0000
  H   H1968     1.0  0.83296  0.11932  0.90732  1.0000
  H   H1969     1.0  0.84884  0.11734  0.88305  1.0000
  C   C2475     1.0  0.51602  0.17473  0.74408  1.0000
  H   H1970     1.0  0.57350  0.31765  0.77863  1.0000
  H   H1971     1.0  0.81378  0.18834  0.82805  1.0000
  H   H1972     1.0  0.84868  0.15560  0.83628  1.0000
  H   H1973     1.0  0.87985  0.02183  0.94867  1.0000
  C   C2476     1.0  0.84226  0.18340  0.86930  1.0000
  H   H1974     1.0  0.65927  0.16626  0.76552  1.0000
  S   S330      1.0  0.60886  0.26068  0.73986  1.0000
  H   H1975     1.0  0.53674  0.24903  0.74659  1.0000
  S   S331      1.0  0.78716  0.29993  0.78413  1.0000
  S   S332      1.0  0.64290  0.09716  0.74867  1.0000
  C   C2477     1.0  0.88973  0.28488  0.78897  1.0000
  C   C2478     1.0  0.91135  0.25583  0.92867  1.0000
  Fe  Fe169     1.0  0.94464  0.30310  0.96455  1.0000
  C   C2479     1.0  0.86064  0.18759  0.82698  1.0000
  S   S333      1.0  0.89555  0.11195  0.95637  1.0000
  C   C2480     1.0  0.51635  0.29852  0.74932  1.0000
  C   C2481     1.0  0.76010  0.08664  0.73406  1.0000
  H   H1976     1.0  0.77213  0.23419  0.73424  1.0000
  C   C2482     1.0  0.55747  0.23890  0.76270  1.0000
  C   C2483     1.0  0.57726  0.22465  0.76729  1.0000
  C   C2484     1.0  0.59181  0.20937  0.75913  1.0000
  C   C2485     1.0  0.77942  0.17855  0.73637  1.0000
  C   C2486     1.0  0.85139  0.29534  0.93780  1.0000
  H   H1977     1.0  0.81626  0.27325  0.85870  1.0000
  H   H1978     1.0  0.86681  0.13515  0.81672  1.0000
  C   C2487     1.0  0.88554  0.25056  0.84434  1.0000
  C   C2488     1.0  0.93025  0.30327  0.87793  1.0000
  C   C2489     1.0  0.80375  0.25039  0.76489  1.0000
  H   H1979     1.0  0.90734  0.28327  0.75496  1.0000
  P   P83       1.0  0.99092  0.22982  0.92541  1.0000
  S   S334      1.0  0.89564  0.17725  0.96015  1.0000
  S   S335      1.0  0.55781  0.29822  0.75790  1.0000
  H   H1980     1.0  0.96656  0.16188  0.95873  1.0000
  H   H1981     1.0  0.56904  0.14917  0.74030  1.0000
  C   C2490     1.0  0.99270  0.99379  0.92834  1.0000
  H   H1982     1.0  0.83834  0.24475  0.93369  1.0000
  H   H1983     1.0  0.58162  0.22578  0.77704  1.0000
  H   H1984     1.0  0.60722  0.19845  0.76266  1.0000
  C   C2491     1.0  0.93381  0.01902  0.95643  1.0000
  C   C2492     1.0  0.62189  0.04542  0.77647  1.0000
  C   C2493     1.0  0.64023  0.03314  0.78329  1.0000
  C   C2494     1.0  0.64891  0.04367  0.79194  1.0000
  C   C2495     1.0  0.63949  0.06661  0.79362  1.0000
  C   C2496     1.0  0.62158  0.07937  0.78641  1.0000
  C   C2497     1.0  0.61249  0.06835  0.77811  1.0000
  P   P84       1.0  0.61077  0.10964  0.78775  1.0000
  C   C2498     1.0  0.58971  0.11230  0.80306  1.0000
  C   C2499     1.0  0.63529  0.12282  0.78825  1.0000
  C   C2500     1.0  0.63233  0.14129  0.79549  1.0000
  C   C2501     1.0  0.65158  0.15055  0.79648  1.0000
  C   C2502     1.0  0.67391  0.14133  0.79036  1.0000
  C   C2503     1.0  0.67695  0.12332  0.78286  1.0000
  C   C2504     1.0  0.65768  0.11437  0.78159  1.0000
  C   C2505     1.0  0.57286  0.13259  0.80390  1.0000
  S   S336      1.0  0.64681  0.04953  0.73634  1.0000
  C   C2506     1.0  0.84236  0.26204  0.93102  1.0000
  H   H1985     1.0  0.76938  0.24420  0.85821  1.0000
  C   C2507     1.0  0.58995  0.09429  0.81424  1.0000
  C   C2508     1.0  0.59656  0.12420  0.77328  1.0000
  C   C2509     1.0  0.60786  0.13854  0.76262  1.0000
  C   C2510     1.0  0.59806  0.14746  0.75072  1.0000
  C   C2511     1.0  0.57637  0.14296  0.74965  1.0000
  C   C2512     1.0  0.56441  0.12970  0.76051  1.0000
  C   C2513     1.0  0.57444  0.12032  0.77228  1.0000
  H   H1986     1.0  0.87058  0.26051  0.80258  1.0000
  C   C2514     1.0  0.84993  0.27581  0.88199  1.0000
  C   C2515     1.0  0.90949  0.02402  0.95745  1.0000
  H   H1987     1.0  0.64673  0.07455  0.80020  1.0000
  H   H1988     1.0  0.59863  0.07749  0.77254  1.0000
  H   H1989     1.0  0.61526  0.14852  0.80044  1.0000
  H   H1990     1.0  0.64924  0.16485  0.80204  1.0000
  H   H1991     1.0  0.68881  0.14829  0.79137  1.0000
  H   H1992     1.0  0.69424  0.11613  0.77809  1.0000
  H   H1993     1.0  0.66045  0.10054  0.77561  1.0000
  H   H1994     1.0  0.57243  0.14676  0.79542  1.0000
  C   C2516     1.0  0.88278  0.30849  0.88934  1.0000
  H   H1995     1.0  0.60271  0.07847  0.81390  1.0000
  H   H1996     1.0  0.62480  0.14189  0.76315  1.0000
  H   H1997     1.0  0.90091  0.25095  0.84855  1.0000
  H   H1998     1.0  0.77125  0.19954  0.82937  1.0000
  H   H1999     1.0  0.54792  0.12565  0.75950  1.0000
  H   H2000     1.0  0.56544  0.10913  0.78032  1.0000
  H   H2001     1.0  0.93958  0.30287  0.74574  1.0000
  H   H2002     1.0  0.54398  0.11839  0.83590  1.0000
  H   H2003     1.0  0.95596  0.25479  0.94533  1.0000
  C   C2517     1.0  0.81815  0.22863  0.76628  1.0000
  H   H2004     1.0  0.86517  0.26607  0.88628  1.0000
  S   S337      1.0  0.66205  0.27047  0.73602  1.0000
  H   H2005     1.0  0.84500  0.26437  0.95168  1.0000
  C   C2518     1.0  0.80158  0.18027  0.73832  1.0000
  C   C2519     1.0  0.92369  0.30098  0.89208  1.0000
  H   H2006     1.0  0.88976  0.24861  0.76106  1.0000
  H   H2007     1.0  0.88830  0.21378  0.84985  1.0000
  H   H2008     1.0  0.81052  0.26547  0.76551  1.0000
  S   S338      1.0  0.95340  0.30495  0.94173  1.0000
  C   C2520     1.0  0.94965  0.29180  0.78498  1.0000
  C   C2521     1.0  0.55644  0.13476  0.81570  1.0000
  C   C2522     1.0  0.86186  0.29454  0.73784  1.0000
  H   H2009     1.0  0.91812  0.31149  0.85845  1.0000
  C   C2523     1.0  0.95551  0.21380  0.96947  1.0000
  P   P85       1.0  0.85224  0.31024  0.89651  1.0000
  S   S339      1.0  0.94804  0.99062  0.89263  1.0000
  H   H2010     1.0  0.88935  0.29485  0.79690  1.0000
  H   H2011     1.0  0.99001  0.01386  0.96944  1.0000
  C   C2524     1.0  0.84398  0.27317  0.91745  1.0000
  C   C2525     1.0  0.82231  0.03647  0.73750  1.0000
  C   C2526     1.0  0.89864  0.01737  0.94811  1.0000
  C   C2527     1.0  0.87842  0.16817  0.85564  1.0000
  C   C2528     1.0  0.86883  0.15285  0.81646  1.0000
  C   C2529     1.0  0.88573  0.15383  0.86727  1.0000
  C   C2530     1.0  0.82245  0.27968  0.86640  1.0000
  H   H2012     1.0  0.53338  0.19758  0.75058  1.0000
  H   H2013     1.0  0.84979  0.25015  0.86971  1.0000
  C   C2531     1.0  0.84139  0.26682  0.87254  1.0000
  H   H2014     1.0  0.71528  0.01923  0.73820  1.0000
  C   C2532     1.0  0.57350  0.09652  0.82604  1.0000
  C   C2533     1.0  0.89002  0.25854  0.76892  1.0000
  H   H2015     1.0  0.81207  0.23273  0.85727  1.0000
  C   C2534     1.0  0.90007  0.30363  0.89778  1.0000
  C   C2535     1.0  0.95951  0.23889  0.92733  1.0000
  S   S340      1.0  0.90948  0.30923  0.97754  1.0000
  C   C2536     1.0  0.77913  0.23161  0.85187  1.0000
  H   H2016     1.0  0.78174  0.09561  0.74658  1.0000
  C   C2537     1.0  0.55976  0.08946  0.73934  1.0000
  C   C2538     1.0  0.74003  0.25364  0.74361  1.0000
  C   C2539     1.0  0.58692  0.20869  0.74624  1.0000
  C   C2540     1.0  0.94723  0.25119  0.93778  1.0000
  C   C2541     1.0  0.92329  0.25967  0.93841  1.0000
  C   C2542     1.0  0.76981  0.30902  0.73588  1.0000
  C   C2543     1.0  0.92333  0.24358  0.91824  1.0000
  C   C2544     1.0  0.94733  0.23525  0.91751  1.0000
  C   C2545     1.0  0.84604  0.27311  0.94119  1.0000
  S   S341      1.0  0.89912  0.99263  0.84400  1.0000
  H   H2017     1.0  0.89353  0.22629  0.95598  1.0000
  P   P86       1.0  0.97880  0.00073  0.94499  1.0000
  H   H2018     1.0  0.97393  0.18629  0.93376  1.0000
  Fe  Fe170     1.0  0.91050  0.13865  0.96334  1.0000
  H   H2019     1.0  0.94193  0.02430  0.96375  1.0000
  C   C2546     1.0  0.85661  0.18315  0.85654  1.0000
  H   H2020     1.0  0.54643  0.25112  0.76890  1.0000
  S   S342      1.0  0.82767  0.30517  0.80129  1.0000
  H   H2021     1.0  0.74887  0.22766  0.84426  1.0000
  C   C2547     1.0  0.87939  0.25213  0.78227  1.0000
  H   H2022     1.0  0.95638  0.22622  0.90918  1.0000
  H   H2023     1.0  0.71845  0.14418  0.74064  1.0000
  C   C2548     1.0  0.88385  0.18698  0.80445  1.0000
  H   H2024     1.0  0.70736  0.27626  0.74950  1.0000
  C   C2549     1.0  0.96618  0.17449  0.96509  1.0000
  H   H2025     1.0  0.89909  0.03342  0.96536  1.0000
  H   H2026     1.0  0.76951  0.26950  0.76217  1.0000
  C   C2550     1.0  0.53777  0.08340  0.74444  1.0000
  H   H2027     1.0  0.57373  0.08252  0.83461  1.0000
  H   H2028     1.0  0.84291  0.28680  0.82842  1.0000
  H   H2029     1.0  0.84757  0.07544  0.74850  1.0000
  H   H2030     1.0  0.80803  0.17174  0.74770  1.0000
  Fe  Fe171     1.0  0.62021  0.08183  0.73867  1.0000
  C   C2551     1.0  0.76562  0.10046  0.74230  1.0000
  C   C2552     1.0  0.79060  0.04684  0.75544  1.0000
  C   C2553     1.0  0.80476  0.03568  0.76522  1.0000
  C   C2554     1.0  0.84695  0.10787  0.73485  1.0000
  C   C2555     1.0  0.85458  0.08414  0.73866  1.0000
  C   C2556     1.0  0.99025  0.04477  0.93735  1.0000
  S   S343      1.0  0.82469  0.12401  0.74515  1.0000
  C   C2557     1.0  0.98976  0.29767  0.77923  1.0000
  H   H2031     1.0  0.89285  0.26244  0.92917  1.0000
  H   H2032     1.0  0.97062  0.02176  0.91713  1.0000
  H   H2033     1.0  0.60199  0.02427  0.73424  1.0000
  H   H2034     1.0  0.85438  0.01734  0.74417  1.0000
  H   H2035     1.0  0.64815  0.01568  0.78158  1.0000
  H   H2036     1.0  0.94716  0.23149  0.96665  1.0000
  C   C2558     1.0  0.65266  0.20555  0.73685  1.0000
  H   H2037     1.0  0.83256  0.29593  0.77007  1.0000
  C   C2559     1.0  0.90010  0.27838  0.76549  1.0000
  C   C2560     1.0  0.96390  0.20702  0.98190  1.0000
  H   H2038     1.0  0.98942  0.30779  0.89730  1.0000
  H   H2039     1.0  0.77272  0.05451  0.75878  1.0000
  C   C2561     1.0  0.88158  0.16404  0.80499  1.0000
  H   H2040     1.0  0.87729  0.14338  0.88895  1.0000
  H   H2041     1.0  0.88991  0.16762  0.84596  1.0000
  H   H2042     1.0  0.51429  0.28437  0.75761  1.0000
  H   H2043     1.0  0.75477  0.13154  0.75129  1.0000
  C   C2562     1.0  0.95630  0.19754  0.96117  1.0000
  S   S344      1.0  0.65015  0.21603  0.76231  1.0000
  Fe  Fe172     1.0  0.80508  0.27947  0.80147  1.0000
  C   C2563     1.0  0.66144  0.15765  0.74548  1.0000
  H   H2044     1.0  0.88936  0.15499  0.79644  1.0000
  H   H2045     1.0  0.66509  0.13915  0.74881  1.0000
  C   C2564     1.0  0.80928  0.20896  0.76599  1.0000
  C   C2565     1.0  0.84041  0.30230  0.75992  1.0000
  H   H2046     1.0  0.90306  0.31907  0.94871  1.0000
  C   C2566     1.0  0.85820  0.22899  0.83977  1.0000
  H   H2047     1.0  0.83066  0.24985  0.82893  1.0000
  H   H2048     1.0  0.50780  0.16886  0.75431  1.0000
  S   S345      1.0  0.62454  0.28235  0.76352  1.0000
  P   P87       1.0  0.84770  0.20215  0.84146  1.0000
  H   H2049     1.0  0.54345  0.15044  0.81626  1.0000
  C   C2567     1.0  0.81176  0.30130  0.86991  1.0000
  H   H2050     1.0  0.93671  0.28273  0.79154  1.0000
  H   H2051     1.0  0.76867  0.16888  0.74433  1.0000
  C   C2568     1.0  0.80333  0.22505  0.85131  1.0000
  C   C2569     1.0  0.78598  0.21101  0.76443  1.0000
  C   C2570     1.0  0.90007  0.29177  0.77548  1.0000
  H   H2052     1.0  0.79785  0.03518  0.77598  1.0000
  C   C2571     1.0  0.85052  0.28674  0.75080  1.0000
  H   H2053     1.0  0.87799  0.28761  0.83808  1.0000
  H   H2054     1.0  0.82536  0.19456  0.87037  1.0000
  C   C2572     1.0  0.78054  0.25254  0.76314  1.0000
  C   C2573     1.0  0.87830  0.22951  0.84507  1.0000
  C   C2574     1.0  0.80439  0.20004  0.83496  1.0000
  H   H2055     1.0  0.94839  0.20267  0.95198  1.0000
  C   C2575     1.0  0.85299  0.27076  0.83290  1.0000
  H   H2056     1.0  0.98538  0.04508  0.92756  1.0000
  H   H2057     1.0  0.89555  0.30221  0.90873  1.0000
  C   C2576     1.0  0.89879  0.19579  0.97112  1.0000
  S   S346      1.0  0.95669  0.26900  0.97681  1.0000
  Fe  Fe173     1.0  0.90805  0.08779  0.97467  1.0000
  C   C2577     1.0  0.98532  0.00755  0.91648  1.0000
  H   H2058     1.0  0.90384  0.00119  0.93023  1.0000
  Fe  Fe174     1.0  0.64692  0.30148  0.74645  1.0000
  C   C2578     1.0  0.98826  0.02591  0.94789  1.0000
  C   C2579     1.0  0.84931  0.29552  0.91397  1.0000
  H   H2059     1.0  0.94851  0.30200  0.87351  1.0000
  C   C2580     1.0  0.89894  0.23497  0.97477  1.0000
  H   H2060     1.0  0.97744  0.27259  0.79585  1.0000
  H   H2061     1.0  0.59890  0.19739  0.73988  1.0000
  H   H2062     1.0  0.50176  0.08816  0.74147  1.0000
  C   C2581     1.0  0.83929  0.29758  0.88558  1.0000
  C   C2582     1.0  0.98642  0.18485  0.92453  1.0000
  H   H2063     1.0  0.93685  0.29779  0.89866  1.0000
  H   H2064     1.0  0.71920  0.21909  0.74139  1.0000
  H   H2065     1.0  0.89745  0.25328  0.97097  1.0000
  C   C2583     1.0  0.91210  0.00556  0.93781  1.0000
  C   C2584     1.0  0.99142  0.16412  0.91926  1.0000
  C   C2585     1.0  0.73020  0.12827  0.73886  1.0000
  Fe  Fe175     1.0  0.91790  0.99280  0.86154  1.0000
  C   C2586     1.0  0.98999  0.27401  0.90963  1.0000
  C   C2587     1.0  0.97275  0.28605  0.78748  1.0000
  C   C2588     1.0  0.97454  0.16754  0.97753  1.0000
  H   H2066     1.0  0.79052  0.30178  0.75211  1.0000
  H   H2067     1.0  0.85448  0.30389  0.94564  1.0000
  C   C2589     1.0  0.85299  0.30650  0.92426  1.0000
  S   S347      1.0  0.98863  0.02472  0.86535  1.0000
  H   H2068     1.0  0.99155  0.12634  0.95331  1.0000
  C   C2590     1.0  0.88951  0.31121  0.87510  1.0000
  C   C2591     1.0  0.68576  0.31969  0.78634  1.0000
  H   H2069     1.0  0.99100  0.01389  0.89451  1.0000
  C   C2592     1.0  0.99293  0.02730  0.96082  1.0000
  S   S348      1.0  0.98639  0.09753  0.97989  1.0000
  C   C2593     1.0  0.53673  0.30809  0.74677  1.0000
  H   H2070     1.0  0.94628  0.99085  0.92890  1.0000
  H   H2071     1.0  0.86025  0.99430  0.92197  1.0000
  H   H2072     1.0  0.87652  0.31578  0.86834  1.0000
  H   H2073     1.0  0.50020  0.15375  0.73477  1.0000
  S   S349      1.0  0.61787  0.31444  0.73357  1.0000
  C   C2594     1.0  0.94341  0.30918  0.77415  1.0000
  C   C2595     1.0  0.98364  0.31517  0.76854  1.0000
  H   H2074     1.0  0.79743  0.31151  0.86489  1.0000
  H   H2075     1.0  0.98112  0.14937  0.98068  1.0000
  C   C2596     1.0  0.78228  0.31492  0.74468  1.0000
  P   P88       1.0  0.91339  0.31734  0.77129  1.0000
  Fe  Fe176     1.0  0.76086  0.31584  0.80024  1.0000
  H   H2076     1.0  0.65674  0.31825  0.77662  1.0000
  C   C2597     1.0  0.86312  0.31798  0.73403  1.0000
  H   H2077     1.0  0.81729  0.27637  0.73386  1.0000
  C   C2598     1.0  0.68824  0.31888  0.76214  1.0000
  C   C2599     1.0  0.67517  0.31860  0.77519  1.0000
  C   C2600     1.0  0.92786  0.31905  0.74324  1.0000
  S   S350      1.0  0.91946  0.11548  0.98265  1.0000
  C   C2601     1.0  0.72306  0.31956  0.77172  1.0000
  H   H2078     1.0  0.72243  0.31982  0.75039  1.0000
  C   C2602     1.0  0.71225  0.31931  0.76047  1.0000
  Fe  Fe177     1.0  0.62878  0.56725  0.17783  1.0000
  S   S351      1.0  0.64601  0.59097  0.18542  1.0000
  S   S352      1.0  0.64887  0.54161  0.16441  1.0000
  Fe  Fe178     1.0  0.61519  0.61743  0.17964  1.0000
  H   H2079     1.0  0.94620  0.52279  0.07042  1.0000
  S   S353      1.0  0.59934  0.59439  0.17057  1.0000
  C   C2603     1.0  0.98787  0.60946  0.15871  1.0000
  C   C2604     1.0  0.75200  0.57128  0.18669  1.0000
  H   H2080     1.0  0.91374  0.57656  0.14155  1.0000
  C   C2605     1.0  0.87559  0.43529  0.03963  1.0000
  Fe  Fe179     1.0  0.78221  0.55910  0.13727  1.0000
  S   S354      1.0  0.81310  0.54033  0.14731  1.0000
  S   S355      1.0  0.75416  0.53959  0.13644  1.0000
  Fe  Fe180     1.0  0.80527  0.60094  0.12502  1.0000
  S   S356      1.0  0.83808  0.58521  0.13381  1.0000
  C   C2606     1.0  0.94512  0.52623  0.99186  1.0000
  Fe  Fe181     1.0  0.83458  0.55232  0.12742  1.0000
  S   S357      1.0  0.86613  0.52876  0.11803  1.0000
  Fe  Fe182     1.0  0.81338  0.57490  0.15260  1.0000
  S   S358      1.0  0.81568  0.58183  0.17328  1.0000
  S   S359      1.0  0.80380  0.56892  0.11703  1.0000
  S   S360      1.0  0.78055  0.59280  0.14423  1.0000
  Fe  Fe183     1.0  0.93798  0.44668  0.03929  1.0000
  S   S361      1.0  0.91522  0.47683  0.02849  1.0000
  S   S362      1.0  0.93959  0.40853  0.03893  1.0000
  Fe  Fe184     1.0  0.96041  0.47834  0.05149  1.0000
  S   S363      1.0  0.93964  0.51076  0.04153  1.0000
  C   C2607     1.0  0.90929  0.48591  0.98828  1.0000
  Fe  Fe185     1.0  0.90962  0.49165  0.04803  1.0000
  S   S364      1.0  0.87413  0.50878  0.05763  1.0000
  Fe  Fe186     1.0  0.94735  0.49287  0.02323  1.0000
  S   S365      1.0  0.96370  0.50783  0.00246  1.0000
  S   S366      1.0  0.92986  0.46026  0.05931  1.0000
  S   S367      1.0  0.97054  0.46182  0.03274  1.0000
  C   C2608     1.0  0.72273  0.64019  0.10796  1.0000
  C   C2609     1.0  0.55521  0.51515  0.17508  1.0000
  C   C2610     1.0  0.84753  0.39230  0.00335  1.0000
  H   H2081     1.0  0.50692  0.54115  0.20905  1.0000
  C   C2611     1.0  0.56163  0.50696  0.18807  1.0000
  C   C2612     1.0  0.92177  0.53473  0.99672  1.0000
  C   C2613     1.0  0.89273  0.47391  0.99666  1.0000
  C   C2614     1.0  0.92929  0.55574  0.07645  1.0000
  C   C2615     1.0  0.66788  0.59951  0.21750  1.0000
  H   H2082     1.0  0.91474  0.53003  0.00734  1.0000
  H   H2083     1.0  0.89376  0.58048  0.06268  1.0000
  C   C2616     1.0  0.86817  0.52393  0.10109  1.0000
  C   C2617     1.0  0.88951  0.51297  0.09452  1.0000
  C   C2618     1.0  0.89161  0.50851  0.08113  1.0000
  C   C2619     1.0  0.87226  0.51472  0.07429  1.0000
  C   C2620     1.0  0.85097  0.52580  0.08081  1.0000
  C   C2621     1.0  0.84895  0.53048  0.09414  1.0000
  H   H2084     1.0  0.90446  0.50778  0.09983  1.0000
  H   H2085     1.0  0.90813  0.49997  0.07621  1.0000
  H   H2086     1.0  0.83590  0.53057  0.07561  1.0000
  H   H2087     1.0  0.83237  0.53865  0.09912  1.0000
  H   H2088     1.0  0.95272  0.37950  0.06794  1.0000
  H   H2089     1.0  0.53279  0.48286  0.23237  1.0000
  Fe  Fe187     1.0  0.62264  0.58273  0.20521  1.0000
  C   C2622     1.0  0.84587  0.41345  0.00772  1.0000
  H   H2090     1.0  0.82484  0.63268  0.13523  1.0000
  C   C2623     1.0  0.91675  0.62233  0.98579  1.0000
  H   H2091     1.0  0.64458  0.50914  0.19877  1.0000
  C   C2624     1.0  0.92150  0.37500  0.00609  1.0000
  C   C2625     1.0  0.93210  0.36143  0.01690  1.0000
  C   C2626     1.0  0.93814  0.37203  0.02667  1.0000
  C   C2627     1.0  0.93422  0.39623  0.02553  1.0000
  C   C2628     1.0  0.92508  0.40983  0.01422  1.0000
  C   C2629     1.0  0.91824  0.39926  0.00469  1.0000
  H   H2092     1.0  0.93474  0.34276  0.01807  1.0000
  H   H2093     1.0  0.94542  0.36138  0.03533  1.0000
  H   H2094     1.0  0.92237  0.42845  0.01318  1.0000
  C   C2630     1.0  0.52551  0.43415  0.21706  1.0000
  C   C2631     1.0  0.67824  0.54242  0.15716  1.0000
  C   C2632     1.0  0.69095  0.55797  0.15982  1.0000
  C   C2633     1.0  0.71448  0.55752  0.15364  1.0000
  C   C2634     1.0  0.72515  0.54150  0.14485  1.0000
  C   C2635     1.0  0.71239  0.52606  0.14235  1.0000
  C   C2636     1.0  0.68917  0.52649  0.14847  1.0000
  H   H2095     1.0  0.68277  0.57019  0.16663  1.0000
  H   H2096     1.0  0.72432  0.56941  0.15569  1.0000
  H   H2097     1.0  0.72052  0.51364  0.13559  1.0000
  H   H2098     1.0  0.67959  0.51440  0.14638  1.0000
  H   H2099     1.0  0.81075  0.53363  0.18291  1.0000
  H   H2100     1.0  0.85582  0.57447  0.05882  1.0000
  C   C2637     1.0  0.73009  0.60967  0.18052  1.0000
  H   H2101     1.0  0.84258  0.48544  0.04852  1.0000
  C   C2638     1.0  0.84387  0.57460  0.17759  1.0000
  C   C2639     1.0  0.86271  0.56331  0.16925  1.0000
  C   C2640     1.0  0.84754  0.58120  0.18941  1.0000
  H   H2102     1.0  0.85993  0.55799  0.16014  1.0000
  H   H2103     1.0  0.83297  0.58996  0.19582  1.0000
  H   H2104     1.0  0.89751  0.61860  0.03433  1.0000
  C   C2641     1.0  0.65788  0.58388  0.22789  1.0000
  C   C2642     1.0  0.75142  0.59449  0.18089  1.0000
  H   H2105     1.0  0.88801  0.42054  0.04352  1.0000
  H   H2106     1.0  0.76755  0.60073  0.17676  1.0000
  H   H2107     1.0  0.77558  0.60610  0.09983  1.0000
  C   C2643     1.0  0.82077  0.52458  0.19089  1.0000
  H   H2108     1.0  0.55062  0.56699  0.17400  1.0000
  C   C2644     1.0  0.85000  0.47185  0.04241  1.0000
  H   H2109     1.0  0.74844  0.62867  0.19964  1.0000
  H   H2110     1.0  0.85362  0.57568  0.22464  1.0000
  H   H2111     1.0  0.88304  0.63947  0.09597  1.0000
  S   S368      1.0  0.93634  0.62022  0.22705  1.0000
  S   S369      1.0  0.72273  0.60926  0.23259  1.0000
  C   C2645     1.0  0.72277  0.65203  0.15020  1.0000
  C   C2646     1.0  0.70972  0.57843  0.19144  1.0000
  C   C2647     1.0  0.86556  0.45261  0.04755  1.0000
  H   H2112     1.0  0.87281  0.58287  0.20163  1.0000
  C   C2648     1.0  0.98563  0.38770  0.05718  1.0000
  C   C2649     1.0  0.81890  0.53408  0.20275  1.0000
  C   C2650     1.0  0.56551  0.42916  0.20560  1.0000
  H   H2113     1.0  0.89985  0.55016  0.16632  1.0000
  C   C2651     1.0  0.51126  0.51137  0.19891  1.0000
  C   C2652     1.0  0.53204  0.57321  0.17633  1.0000
  C   C2653     1.0  0.71036  0.62273  0.11504  1.0000
  H   H2114     1.0  0.59043  0.49865  0.19961  1.0000
  H   H2115     1.0  0.79852  0.46802  0.19577  1.0000
  H   H2116     1.0  0.91301  0.54980  0.08065  1.0000
  C   C2654     1.0  0.87009  0.57738  0.19266  1.0000
  H   H2117     1.0  0.95641  0.60151  0.07373  1.0000
  C   C2655     1.0  0.93313  0.60569  0.99250  1.0000
  H   H2118     1.0  0.57882  0.46009  0.19675  1.0000
  H   H2119     1.0  0.86123  0.47620  0.19782  1.0000
  C   C2656     1.0  0.66382  0.52427  0.20965  1.0000
  C   C2657     1.0  0.93164  0.57843  0.07690  1.0000
  P   P89       1.0  0.90741  0.59786  0.08484  1.0000
  C   C2658     1.0  0.90693  0.62821  0.07843  1.0000
  C   C2659     1.0  0.87985  0.59324  0.08181  1.0000
  C   C2660     1.0  0.85933  0.59963  0.09080  1.0000
  C   C2661     1.0  0.83780  0.59714  0.08817  1.0000
  C   C2662     1.0  0.83656  0.58793  0.07671  1.0000
  C   C2663     1.0  0.85682  0.58185  0.06761  1.0000
  C   C2664     1.0  0.87836  0.58488  0.07000  1.0000
  H   H2120     1.0  0.50181  0.62376  0.16155  1.0000
  C   C2665     1.0  0.94777  0.65233  0.12547  1.0000
  C   C2666     1.0  0.50070  0.50039  0.19128  1.0000
  C   C2667     1.0  0.49975  0.63587  0.15223  1.0000
  C   C2668     1.0  0.98511  0.55157  0.02157  1.0000
  C   C2669     1.0  0.90911  0.59175  0.10284  1.0000
  C   C2670     1.0  0.89970  0.57324  0.11098  1.0000
  C   C2671     1.0  0.90123  0.56789  0.12490  1.0000
  C   C2672     1.0  0.91256  0.58082  0.13075  1.0000
  C   C2673     1.0  0.92253  0.59899  0.12262  1.0000
  C   C2674     1.0  0.92086  0.60446  0.10869  1.0000
  C   C2675     1.0  0.97783  0.38669  0.98659  1.0000
  H   H2121     1.0  0.85982  0.60659  0.09985  1.0000
  H   H2122     1.0  0.82206  0.60226  0.09509  1.0000
  H   H2123     1.0  0.81991  0.58534  0.07496  1.0000
  H   H2124     1.0  0.99036  0.53311  0.02147  1.0000
  H   H2125     1.0  0.76942  0.60446  0.22311  1.0000
  C   C2676     1.0  0.88496  0.65013  0.17248  1.0000
  H   H2126     1.0  0.53375  0.64467  0.15001  1.0000
  H   H2127     1.0  0.92818  0.62324  0.05891  1.0000
  H   H2128     1.0  0.89127  0.56285  0.10651  1.0000
  H   H2129     1.0  0.89367  0.55359  0.13110  1.0000
  H   H2130     1.0  0.50741  0.46917  0.21725  1.0000
  H   H2131     1.0  0.90226  0.63251  0.99154  1.0000
  H   H2132     1.0  0.92889  0.61839  0.10252  1.0000
  C   C2677     1.0  0.89303  0.55810  0.03796  1.0000
  C   C2678     1.0  0.87492  0.55726  0.03114  1.0000
  C   C2679     1.0  0.87348  0.57011  0.01816  1.0000
  C   C2680     1.0  0.89031  0.58360  0.01190  1.0000
  C   C2681     1.0  0.90884  0.58410  0.01859  1.0000
  C   C2682     1.0  0.90986  0.57151  0.03177  1.0000
  P   P90       1.0  0.93037  0.60189  0.01090  1.0000
  C   C2683     1.0  0.89630  0.64238  0.16025  1.0000
  Fe  Fe188     1.0  0.92730  0.32635  0.98972  1.0000
  C   C2684     1.0  0.88567  0.62881  0.15428  1.0000
  C   C2685     1.0  0.54501  0.51016  0.21707  1.0000
  H   H2133     1.0  0.95452  0.55377  0.01270  1.0000
  H   H2134     1.0  0.76876  0.55985  0.18709  1.0000
  C   C2686     1.0  0.57184  0.52165  0.16399  1.0000
  C   C2687     1.0  0.91844  0.63563  0.06536  1.0000
  C   C2688     1.0  0.95767  0.58731  0.01654  1.0000
  C   C2689     1.0  0.96480  0.56341  0.01650  1.0000
  H   H2135     1.0  0.51066  0.42676  0.22269  1.0000
  C   C2690     1.0  0.82023  0.56582  0.22542  1.0000
  C   C2691     1.0  0.75827  0.64183  0.19994  1.0000
  C   C2692     1.0  0.97125  0.59920  0.02169  1.0000
  H   H2136     1.0  0.89424  0.54806  0.04801  1.0000
  H   H2137     1.0  0.86215  0.54645  0.03590  1.0000
  H   H2138     1.0  0.96809  0.38517  0.99683  1.0000
  H   H2139     1.0  0.76431  0.47040  0.00388  1.0000
  H   H2140     1.0  0.92376  0.57176  0.03727  1.0000
  C   C2693     1.0  0.85096  0.43292  0.99827  1.0000
  H   H2141     1.0  0.79602  0.63195  0.22108  1.0000
  H   H2142     1.0  0.79159  0.53307  0.99842  1.0000
  C   C2694     1.0  0.83615  0.50388  0.18906  1.0000
  C   C2695     1.0  0.56380  0.45319  0.20244  1.0000
  H   H2143     1.0  0.92592  0.48506  0.99150  1.0000
  H   H2144     1.0  0.86445  0.64373  0.23048  1.0000
  H   H2145     1.0  0.73252  0.62309  0.13918  1.0000
  S   S370      1.0  0.89368  0.60324  0.21684  1.0000
  H   H2146     1.0  0.96609  0.61756  0.02193  1.0000
  C   C2696     1.0  0.68104  0.63582  0.16002  1.0000
  H   H2147     1.0  0.69266  0.61338  0.18560  1.0000
  H   H2148     1.0  0.67803  0.50032  0.18062  1.0000
  C   C2697     1.0  0.70925  0.60163  0.18573  1.0000
  C   C2698     1.0  0.95365  0.58479  0.07253  1.0000
  C   C2699     1.0  0.87018  0.43728  0.02653  1.0000
  C   C2700     1.0  0.85447  0.45652  0.02128  1.0000
  C   C2701     1.0  0.84460  0.47392  0.02931  1.0000
  P   P91       1.0  0.84931  0.46027  0.00382  1.0000
  C   C2702     1.0  0.82041  0.47705  0.00262  1.0000
  H   H2149     1.0  0.52684  0.58543  0.22618  1.0000
  H   H2150     1.0  0.91014  0.40987  0.99630  1.0000
  H   H2151     1.0  0.84460  0.37707  0.01072  1.0000
  P   P92       1.0  0.83107  0.53506  0.22813  1.0000
  C   C2703     1.0  0.83523  0.58156  0.22418  1.0000
  C   C2704     1.0  0.72147  0.59952  0.11658  1.0000
  H   H2152     1.0  0.66477  0.62962  0.16368  1.0000
  C   C2705     1.0  0.54639  0.41964  0.21290  1.0000
  H   H2153     1.0  0.83108  0.51025  0.00007  1.0000
  C   C2706     1.0  0.79431  0.51434  0.99989  1.0000
  C   C2707     1.0  0.81670  0.50134  0.00076  1.0000
  C   C2708     1.0  0.77545  0.50320  0.00097  1.0000
  C   C2709     1.0  0.94708  0.62513  0.15674  1.0000
  H   H2154     1.0  0.75810  0.51329  0.00032  1.0000
  H   H2155     1.0  0.94225  0.64723  0.99916  1.0000
  H   H2156     1.0  0.98801  0.37459  0.05076  1.0000
  H   H2157     1.0  0.85508  0.37410  0.98617  1.0000
  H   H2158     1.0  0.87854  0.42393  0.02048  1.0000
  H   H2159     1.0  0.83300  0.48930  0.02547  1.0000
  H   H2160     1.0  0.89696  0.46372  0.00619  1.0000
  C   C2710     1.0  0.99365  0.42547  0.01020  1.0000
  C   C2711     1.0  0.97245  0.56932  0.06677  1.0000
  H   H2161     1.0  0.69228  0.62677  0.11959  1.0000
  H   H2162     1.0  0.88929  0.55546  0.99129  1.0000
  C   C2712     1.0  0.86316  0.64472  0.17850  1.0000
  H   H2163     1.0  0.57153  0.64168  0.17492  1.0000
  C   C2713     1.0  0.87941  0.53117  0.22176  1.0000
  C   C2714     1.0  0.49899  0.53189  0.20353  1.0000
  C   C2715     1.0  0.94810  0.54031  0.07074  1.0000
  H   H2164     1.0  0.84081  0.41442  0.01848  1.0000
  H   H2165     1.0  0.92471  0.59932  0.16123  1.0000
  C   C2716     1.0  0.97005  0.62842  0.15608  1.0000
  H   H2166     1.0  0.78830  0.62808  0.18625  1.0000
  H   H2167     1.0  0.89417  0.62233  0.14498  1.0000
  S   S371      1.0  0.91730  0.56128  0.18855  1.0000
  S   S372      1.0  0.54126  0.58785  0.19865  1.0000
  Fe  Fe189     1.0  0.91488  0.63126  0.21018  1.0000
  P   P93       1.0  0.92441  0.64946  0.15237  1.0000
  C   C2717     1.0  0.71916  0.63217  0.14618  1.0000
  H   H2168     1.0  0.76784  0.49353  0.20877  1.0000
  C   C2718     1.0  0.88902  0.56630  0.18437  1.0000
  C   C2719     1.0  0.86385  0.62353  0.16029  1.0000
  H   H2169     1.0  0.53318  0.62930  0.18137  1.0000
  H   H2170     1.0  0.80361  0.44730  0.00546  1.0000
  C   C2720     1.0  0.99160  0.58724  0.02679  1.0000
  Fe  Fe190     1.0  0.57994  0.58626  0.19169  1.0000
  H   H2171     1.0  0.56670  0.52846  0.15406  1.0000
  S   S373      1.0  0.60770  0.55649  0.19816  1.0000
  H   H2172     1.0  0.64905  0.52862  0.21743  1.0000
  S   S374      1.0  0.59343  0.61180  0.20023  1.0000
  H   H2173     1.0  0.72977  0.62768  0.17632  1.0000
  H   H2174     1.0  0.93167  0.60869  0.12713  1.0000
  H   H2175     1.0  0.87714  0.53353  0.21117  1.0000
  H   H2176     1.0  0.69547  0.60863  0.14802  1.0000
  C   C2721     1.0  0.76998  0.49685  0.19776  1.0000
  C   C2722     1.0  0.79063  0.48610  0.17615  1.0000
  C   C2723     1.0  0.77646  0.50456  0.16924  1.0000
  C   C2724     1.0  0.75918  0.51926  0.17653  1.0000
  C   C2725     1.0  0.78744  0.48228  0.19041  1.0000
  C   C2726     1.0  0.58502  0.50490  0.18970  1.0000
  H   H2177     1.0  0.80746  0.55054  0.20362  1.0000
  H   H2178     1.0  0.87021  0.45140  0.05758  1.0000
  H   H2179     1.0  0.80407  0.47480  0.17043  1.0000
  H   H2180     1.0  0.77872  0.50744  0.15817  1.0000
  H   H2181     1.0  0.74832  0.53342  0.17095  1.0000
  C   C2727     1.0  0.88528  0.55897  0.17272  1.0000
  C   C2728     1.0  0.52315  0.58449  0.18761  1.0000
  C   C2729     1.0  0.73513  0.53073  0.21775  1.0000
  H   H2182     1.0  0.55799  0.53992  0.20479  1.0000
  C   C2730     1.0  0.97772  0.42226  0.07342  1.0000
  H   H2183     1.0  0.66020  0.60576  0.20831  1.0000
  S   S375      1.0  0.94119  0.61216  0.19544  1.0000
  C   C2731     1.0  0.51670  0.56924  0.16836  1.0000
  C   C2732     1.0  0.73109  0.56310  0.19202  1.0000
  S   S376      1.0  0.94442  0.56758  0.22000  1.0000
  C   C2733     1.0  0.79640  0.57425  0.22502  1.0000
  C   C2734     1.0  0.75561  0.51540  0.19086  1.0000
  C   C2735     1.0  0.92967  0.64920  0.00831  1.0000
  C   C2736     1.0  0.69757  0.59962  0.23107  1.0000
  C   C2737     1.0  0.82660  0.60531  0.22231  1.0000
  H   H2184     1.0  0.56512  0.55506  0.22425  1.0000
  C   C2738     1.0  0.77896  0.47905  0.00295  1.0000
  C   C2739     1.0  0.95126  0.59224  0.98475  1.0000
  C   C2740     1.0  0.87091  0.47537  0.99278  1.0000
  C   C2741     1.0  0.96959  0.54717  0.06577  1.0000
  C   C2742     1.0  0.68783  0.60719  0.21905  1.0000
  C   C2743     1.0  0.85649  0.43115  0.98432  1.0000
  C   C2744     1.0  0.75730  0.61069  0.10399  1.0000
  C   C2745     1.0  0.80283  0.61357  0.22214  1.0000
  C   C2746     1.0  0.83242  0.52278  0.21292  1.0000
  C   C2747     1.0  0.96163  0.40760  0.07511  1.0000
  C   C2748     1.0  0.74638  0.63391  0.10258  1.0000
  C   C2749     1.0  0.96012  0.58368  0.16277  1.0000
  H   H2185     1.0  0.83805  0.49702  0.17966  1.0000
  H   H2186     1.0  0.96377  0.57876  0.98955  1.0000
  P   P94       1.0  0.73179  0.53343  0.20007  1.0000
  H   H2187     1.0  0.95612  0.56638  0.16565  1.0000
  H   H2188     1.0  0.74350  0.56487  0.21610  1.0000
  C   C2750     1.0  0.74059  0.54893  0.22275  1.0000
  S   S377      1.0  0.98646  0.48138  0.06431  1.0000
  C   C2751     1.0  0.51772  0.64774  0.14576  1.0000
  H   H2189     1.0  0.52349  0.55992  0.15987  1.0000
  H   H2190     1.0  0.71570  0.51059  0.18095  1.0000
  H   H2191     1.0  0.88901  0.59308  0.00175  1.0000
  Fe  Fe191     1.0  0.92215  0.58270  0.20359  1.0000
  H   H2192     1.0  0.53734  0.51711  0.17347  1.0000
  C   C2752     1.0  0.80133  0.46599  0.00381  1.0000
  C   C2753     1.0  0.78069  0.64151  0.19247  1.0000
  H   H2193     1.0  0.85956  0.56927  0.01282  1.0000
  C   C2754     1.0  0.96560  0.39033  0.06700  1.0000
  H   H2194     1.0  0.54775  0.40101  0.21531  1.0000
  C   C2755     1.0  0.92100  0.62998  0.01622  1.0000
  H   H2195     1.0  0.83573  0.62719  0.17696  1.0000
  H   H2196     1.0  0.68656  0.53936  0.21795  1.0000
  H   H2197     1.0  0.94582  0.41003  0.08246  1.0000
  H   H2198     1.0  0.85770  0.49239  0.21895  1.0000
  C   C2756     1.0  0.69832  0.62401  0.15113  1.0000
  C   C2757     1.0  0.68020  0.50820  0.18898  1.0000
  C   C2758     1.0  0.90176  0.52963  0.22478  1.0000
  C   C2759     1.0  0.68521  0.53027  0.20992  1.0000
  S   S378      1.0  0.63308  0.57376  0.22613  1.0000
  C   C2760     1.0  0.85252  0.63163  0.17232  1.0000
  C   C2761     1.0  0.53401  0.64729  0.17774  1.0000
  C   C2762     1.0  0.74487  0.59349  0.11098  1.0000
  C   C2763     1.0  0.70163  0.51418  0.18919  1.0000
  C   C2764     1.0  0.70437  0.52513  0.19974  1.0000
  H   H2199     1.0  0.69565  0.61916  0.21099  1.0000
  C   C2765     1.0  0.73064  0.51074  0.22689  1.0000
  C   C2766     1.0  0.60158  0.51129  0.17859  1.0000
  C   C2767     1.0  0.85339  0.39062  0.98949  1.0000
  C   C2768     1.0  0.54287  0.46791  0.20658  1.0000
  H   H2200     1.0  0.98780  0.61198  0.99175  1.0000
  H   H2201     1.0  0.91640  0.53051  0.21656  1.0000
  H   H2202     1.0  0.69337  0.57268  0.19559  1.0000
  H   H2203     1.0  0.60786  0.52519  0.15723  1.0000
  C   C2769     1.0  0.66131  0.51327  0.19917  1.0000
  H   H2204     1.0  0.97445  0.43602  0.07950  1.0000
  H   H2205     1.0  0.51006  0.48487  0.18731  1.0000
  P   P95       1.0  0.54033  0.49901  0.20262  1.0000
  S   S379      1.0  0.91097  0.36232  0.99464  1.0000
  C   C2770     1.0  0.55789  0.53936  0.22605  1.0000
  C   C2771     1.0  0.90454  0.63305  0.02801  1.0000
  Fe  Fe192     1.0  0.96145  0.59883  0.21287  1.0000
  C   C2772     1.0  0.59499  0.51981  0.16576  1.0000
  S   S380      1.0  0.80069  0.63644  0.11230  1.0000
  H   H2206     1.0  0.61954  0.50999  0.17991  1.0000
  C   C2773     1.0  0.94224  0.60258  0.16024  1.0000
  C   C2774     1.0  0.84923  0.49223  0.19927  1.0000
  C   C2775     1.0  0.84724  0.50152  0.21120  1.0000
  C   C2776     1.0  0.89291  0.64478  0.08609  1.0000
  H   H2207     1.0  0.63188  0.63876  0.19501  1.0000
  H   H2208     1.0  0.75340  0.57547  0.11219  1.0000
  H   H2209     1.0  0.97666  0.42557  0.00769  1.0000
  C   C2777     1.0  0.55396  0.53064  0.21499  1.0000
  H   H2210     1.0  0.85571  0.61305  0.15565  1.0000
  H   H2211     1.0  0.71205  0.58608  0.12221  1.0000
  H   H2212     1.0  0.58170  0.41789  0.20235  1.0000
  C   C2778     1.0  0.52373  0.45818  0.21394  1.0000
  C   C2779     1.0  0.98293  0.58708  0.16192  1.0000
  H   H2213     1.0  0.75655  0.64698  0.09738  1.0000
  H   H2214     1.0  0.96378  0.64574  0.12967  1.0000
  C   C2780     1.0  0.78778  0.59804  0.22338  1.0000
  C   C2781     1.0  0.49912  0.59284  0.19049  1.0000
  H   H2215     1.0  0.98940  0.57421  0.06333  1.0000
  H   H2216     1.0  0.83846  0.61718  0.22103  1.0000
  H   H2217     1.0  0.72594  0.49670  0.22329  1.0000
  H   H2218     1.0  0.98417  0.53500  0.06150  1.0000
  C   C2782     1.0  0.82588  0.64921  0.12888  1.0000
  H   H2219     1.0  0.78453  0.56241  0.22603  1.0000
  C   C2783     1.0  0.90746  0.54920  0.98770  1.0000
  H   H2220     1.0  0.97423  0.64562  0.15347  1.0000
  H   H2221     1.0  0.98776  0.40286  0.02916  1.0000
  H   H2222     1.0  0.85475  0.65050  0.18803  1.0000
  C   C2784     1.0  0.53967  0.49869  0.23044  1.0000
  S   S381      1.0  0.61837  0.65288  0.16846  1.0000
  C   C2785     1.0  0.84626  0.65214  0.23115  1.0000
  C   C2786     1.0  0.86018  0.53058  0.23228  1.0000
  Fe  Fe193     1.0  0.91704  0.59047  0.23270  1.0000
  C   C2787     1.0  0.52792  0.51645  0.44262  1.0000
  H   H2223     1.0  0.64291  0.61117  0.25419  1.0000
  C   C2788     1.0  0.50992  0.37736  0.41207  1.0000
  S   S382      1.0  0.67081  0.35387  0.40745  1.0000
  C   C2789     1.0  0.56887  0.36113  0.41676  1.0000
  C   C2790     1.0  0.54585  0.58127  0.41443  1.0000
  C   C2791     1.0  0.69012  0.61875  0.35450  1.0000
  H   H2224     1.0  0.96940  0.59336  0.25318  1.0000
  H   H2225     1.0  0.52820  0.45252  0.44425  1.0000
  H   H2226     1.0  0.55371  0.36955  0.44578  1.0000
  H   H2227     1.0  0.54734  0.55860  0.38590  1.0000
  C   C2792     1.0  0.73270  0.35181  0.41648  1.0000
  C   C2793     1.0  0.80614  0.50063  0.24223  1.0000
  H   H2228     1.0  0.53529  0.41341  0.38121  1.0000
  H   H2229     1.0  0.51495  0.59292  0.42798  1.0000
  C   C2794     1.0  0.83584  0.64192  0.27820  1.0000
  S   S383      1.0  0.90329  0.57940  0.25487  1.0000
  C   C2795     1.0  0.59369  0.47446  0.34221  1.0000
  C   C2796     1.0  0.68944  0.32154  0.47479  1.0000
  S   S384      1.0  0.61985  0.59899  0.47014  1.0000
  C   C2797     1.0  0.77281  0.60193  0.31841  1.0000
  Fe  Fe194     1.0  0.61409  0.48444  0.38699  1.0000
  S   S385      1.0  0.60334  0.45069  0.39782  1.0000
  Fe  Fe195     1.0  0.61126  0.53004  0.39702  1.0000
  H   H2230     1.0  0.49677  0.51445  0.38516  1.0000
  S   S386      1.0  0.60183  0.54020  0.41801  1.0000
  Fe  Fe196     1.0  0.64380  0.51963  0.37090  1.0000
  S   S387      1.0  0.67920  0.52434  0.35857  1.0000
  S   S388      1.0  0.58444  0.51277  0.39248  1.0000
  S   S389      1.0  0.64077  0.50084  0.39265  1.0000
  H   H2231     1.0  0.63774  0.50404  0.47259  1.0000
  S   S390      1.0  0.73630  0.57470  0.27033  1.0000
  Fe  Fe197     1.0  0.62929  0.62717  0.45311  1.0000
  S   S391      1.0  0.66363  0.62675  0.45947  1.0000
  S   S392      1.0  0.62665  0.63014  0.43081  1.0000
  S   S393      1.0  0.56424  0.54814  0.35832  1.0000
  C   C2798     1.0  0.59621  0.37639  0.39799  1.0000
  H   H2232     1.0  0.64787  0.64059  0.23356  1.0000
  H   H2233     1.0  0.74515  0.56140  0.24051  1.0000
  H   H2234     1.0  0.51608  0.47218  0.41369  1.0000
  H   H2235     1.0  0.63800  0.62199  0.27711  1.0000
  C   C2799     1.0  0.94602  0.64695  0.26124  1.0000
  H   H2236     1.0  0.75612  0.57446  0.31638  1.0000
  C   C2800     1.0  0.54009  0.56632  0.39499  1.0000
  C   C2801     1.0  0.55499  0.57192  0.40248  1.0000
  C   C2802     1.0  0.81523  0.63377  0.28411  1.0000
  H   H2237     1.0  0.93174  0.61618  0.26236  1.0000
  C   C2803     1.0  0.58934  0.51066  0.45770  1.0000
  H   H2238     1.0  0.51592  0.52717  0.44926  1.0000
  H   H2239     1.0  0.56408  0.34656  0.42412  1.0000
  H   H2240     1.0  0.80044  0.38358  0.43912  1.0000
  H   H2241     1.0  0.64342  0.57527  0.32075  1.0000
  C   C2804     1.0  0.96848  0.61110  0.25448  1.0000
  C   C2805     1.0  0.78263  0.38389  0.44425  1.0000
  C   C2806     1.0  0.65957  0.56653  0.32434  1.0000
  C   C2807     1.0  0.73169  0.60116  0.32582  1.0000
  H   H2242     1.0  0.51296  0.53446  0.42486  1.0000
  C   C2808     1.0  0.51909  0.46832  0.40344  1.0000
  C   C2809     1.0  0.67244  0.59352  0.37940  1.0000
  C   C2810     1.0  0.76475  0.38533  0.43670  1.0000
  C   C2811     1.0  0.51583  0.62437  0.46901  1.0000
  H   H2243     1.0  0.70185  0.58498  0.34812  1.0000
  H   H2244     1.0  0.76901  0.38574  0.42576  1.0000
  H   H2245     1.0  0.71964  0.38188  0.46290  1.0000
  H   H2246     1.0  0.55578  0.53464  0.24785  1.0000
  C   C2812     1.0  0.98843  0.62117  0.25077  1.0000
  C   C2813     1.0  0.55989  0.40090  0.40568  1.0000
  H   H2247     1.0  0.58597  0.41204  0.38922  1.0000
  C   C2814     1.0  0.55301  0.47047  0.34949  1.0000
  H   H2248     1.0  0.78426  0.63232  0.32106  1.0000
  H   H2249     1.0  0.56706  0.40702  0.47527  1.0000
  H   H2250     1.0  0.56167  0.46586  0.37592  1.0000
  C   C2815     1.0  0.57696  0.46088  0.34849  1.0000
  C   C2816     1.0  0.74159  0.38581  0.44325  1.0000
  Fe  Fe198     1.0  0.76395  0.59218  0.27435  1.0000
  H   H2251     1.0  0.57015  0.47843  0.41802  1.0000
  S   S394      1.0  0.61637  0.55033  0.37590  1.0000
  P   P96       1.0  0.69946  0.63526  0.33806  1.0000
  H   H2252     1.0  0.54540  0.61665  0.45350  1.0000
  S   S395      1.0  0.79812  0.57201  0.28049  1.0000
  C   C2817     1.0  0.56227  0.39152  0.34701  1.0000
  C   C2818     1.0  0.68741  0.58426  0.24155  1.0000
  C   C2819     1.0  0.50027  0.35727  0.44549  1.0000
  C   C2820     1.0  0.56300  0.50748  0.33805  1.0000
  C   C2821     1.0  0.68575  0.64301  0.31248  1.0000
  H   H2253     1.0  0.55477  0.47345  0.39930  1.0000
  H   H2254     1.0  0.69486  0.57837  0.25086  1.0000
  H   H2255     1.0  0.66000  0.56415  0.24797  1.0000
  C   C2822     1.0  0.74759  0.63358  0.32870  1.0000
  H   H2256     1.0  0.57367  0.56867  0.39911  1.0000
  C   C2823     1.0  0.67960  0.54153  0.34216  1.0000
  C   C2824     1.0  0.65887  0.55309  0.33742  1.0000
  H   H2257     1.0  0.54817  0.41744  0.40447  1.0000
  C   C2825     1.0  0.70171  0.55702  0.32056  1.0000
  C   C2826     1.0  0.70103  0.54366  0.33371  1.0000
  H   H2258     1.0  0.64225  0.55157  0.34379  1.0000
  H   H2259     1.0  0.81795  0.59518  0.25340  1.0000
  H   H2260     1.0  0.71715  0.53471  0.33727  1.0000
  C   C2827     1.0  0.60680  0.56655  0.42085  1.0000
  C   C2828     1.0  0.61670  0.58210  0.41035  1.0000
  C   C2829     1.0  0.62161  0.60240  0.41332  1.0000
  C   C2830     1.0  0.61703  0.60684  0.42680  1.0000
  C   C2831     1.0  0.60592  0.59192  0.43707  1.0000
  C   C2832     1.0  0.60079  0.57186  0.43411  1.0000
  H   H2261     1.0  0.62097  0.57825  0.40005  1.0000
  H   H2262     1.0  0.62984  0.61415  0.40531  1.0000
  H   H2263     1.0  0.60137  0.59573  0.44734  1.0000
  H   H2264     1.0  0.59239  0.56031  0.44216  1.0000
  C   C2833     1.0  0.94725  0.62399  0.25968  1.0000
  S   S396      1.0  0.68064  0.58553  0.29941  1.0000
  H   H2265     1.0  0.52808  0.50230  0.34548  1.0000
  H   H2266     1.0  0.72767  0.49373  0.24781  1.0000
  S   S397      1.0  0.75949  0.62097  0.25684  1.0000
  C   C2834     1.0  0.87351  0.57837  0.26111  1.0000
  C   C2835     1.0  0.86801  0.56688  0.27437  1.0000
  C   C2836     1.0  0.84488  0.56517  0.27995  1.0000
  C   C2837     1.0  0.82669  0.57538  0.27251  1.0000
  C   C2838     1.0  0.83190  0.58728  0.25924  1.0000
  C   C2839     1.0  0.85541  0.58857  0.25349  1.0000
  H   H2267     1.0  0.88181  0.55894  0.28033  1.0000
  H   H2268     1.0  0.84107  0.55589  0.29016  1.0000
  H   H2269     1.0  0.85952  0.59755  0.24326  1.0000
  H   H2270     1.0  0.53942  0.51029  0.40918  1.0000
  C   C2840     1.0  0.69325  0.59447  0.35629  1.0000
  C   C2841     1.0  0.73695  0.38321  0.45753  1.0000
  S   S398      1.0  0.61955  0.50042  0.36481  1.0000
  H   H2271     1.0  0.54480  0.41597  0.43530  1.0000
  C   C2842     1.0  0.55316  0.41509  0.34701  1.0000
  C   C2843     1.0  0.61098  0.51405  0.45973  1.0000
  C   C2844     1.0  0.54100  0.50681  0.41991  1.0000
  H   H2272     1.0  0.66553  0.58378  0.38894  1.0000
  C   C2845     1.0  0.76965  0.62341  0.32263  1.0000
  C   C2846     1.0  0.58108  0.39778  0.39685  1.0000
  C   C2847     1.0  0.54528  0.49878  0.44763  1.0000
  C   C2848     1.0  0.54342  0.50757  0.24152  1.0000
  H   H2273     1.0  0.49842  0.61254  0.26329  1.0000
  P   P97       1.0  0.54827  0.49273  0.46540  1.0000
  H   H2274     1.0  0.73699  0.52625  0.25646  1.0000
  H   H2275     1.0  0.78980  0.59414  0.31352  1.0000
  C   C2849     1.0  0.72331  0.33827  0.44068  1.0000
  C   C2850     1.0  0.54465  0.46493  0.38196  1.0000
  C   C2851     1.0  0.53490  0.54446  0.36267  1.0000
  C   C2852     1.0  0.65274  0.38134  0.40544  1.0000
  C   C2853     1.0  0.63283  0.38701  0.41489  1.0000
  C   C2854     1.0  0.61832  0.40878  0.41273  1.0000
  C   C2855     1.0  0.62377  0.42509  0.40120  1.0000
  C   C2856     1.0  0.64411  0.41974  0.39199  1.0000
  C   C2857     1.0  0.65842  0.39780  0.39405  1.0000
  H   H2276     1.0  0.62816  0.37434  0.42360  1.0000
  H   H2277     1.0  0.60239  0.41266  0.41978  1.0000
  H   H2278     1.0  0.64826  0.43210  0.38299  1.0000
  H   H2279     1.0  0.67371  0.39335  0.38665  1.0000
  C   C2858     1.0  0.54079  0.46930  0.39533  1.0000
  Fe  Fe199     1.0  0.59192  0.53003  0.37110  1.0000
  C   C2859     1.0  0.67968  0.63544  0.32650  1.0000
  C   C2860     1.0  0.52596  0.52051  0.42878  1.0000
  C   C2861     1.0  0.57761  0.49455  0.46692  1.0000
  H   H2280     1.0  0.71825  0.55822  0.31404  1.0000
  C   C2862     1.0  0.53354  0.35139  0.46269  1.0000
  Fe  Fe200     1.0  0.65246  0.60083  0.47755  1.0000
  C   C2863     1.0  0.55899  0.44430  0.47124  1.0000
  P   P98       1.0  0.53168  0.45377  0.35934  1.0000
  H   H2281     1.0  0.81306  0.49132  0.23375  1.0000
  H   H2282     1.0  0.53947  0.49859  0.25182  1.0000
  H   H2283     1.0  0.55753  0.58491  0.42045  1.0000
  H   H2284     1.0  0.81556  0.61535  0.28724  1.0000
  H   H2285     1.0  0.71730  0.34167  0.45103  1.0000
  C   C2864     1.0  0.54128  0.46407  0.47078  1.0000
  C   C2865     1.0  0.60991  0.48472  0.47981  1.0000
  H   H2286     1.0  0.56854  0.35776  0.35929  1.0000
  C   C2866     1.0  0.64237  0.62896  0.25520  1.0000
  C   C2867     1.0  0.69627  0.45025  0.46965  1.0000
  C   C2868     1.0  0.64299  0.62857  0.32224  1.0000
  C   C2869     1.0  0.86368  0.52868  0.24584  1.0000
  C   C2870     1.0  0.88610  0.52715  0.24880  1.0000
  H   H2287     1.0  0.51604  0.34053  0.41976  1.0000
  C   C2871     1.0  0.66771  0.57621  0.23989  1.0000
  H   H2288     1.0  0.83725  0.63693  0.25202  1.0000
  C   C2872     1.0  0.80236  0.53390  0.25339  1.0000
  C   C2873     1.0  0.78785  0.52393  0.26449  1.0000
  C   C2874     1.0  0.78248  0.50233  0.26450  1.0000
  C   C2875     1.0  0.79152  0.49074  0.25335  1.0000
  H   H2289     1.0  0.51511  0.57257  0.47416  1.0000
  H   H2290     1.0  0.57001  0.38526  0.33750  1.0000
  C   C2876     1.0  0.83096  0.64842  0.24332  1.0000
  C   C2877     1.0  0.51912  0.55831  0.35449  1.0000
  H   H2291     1.0  0.61288  0.37409  0.39132  1.0000
  C   C2878     1.0  0.73156  0.50901  0.24078  1.0000
  H   H2292     1.0  0.60198  0.34165  0.40895  1.0000
  H   H2293     1.0  0.49799  0.33021  0.40233  1.0000
  C   C2879     1.0  0.55330  0.42219  0.47456  1.0000
  Fe  Fe201     1.0  0.73327  0.63953  0.27196  1.0000
  H   H2294     1.0  0.78730  0.47402  0.25335  1.0000
  C   C2880     1.0  0.67737  0.63023  0.36525  1.0000
  H   H2295     1.0  0.84918  0.52908  0.25413  1.0000
  H   H2296     1.0  0.88865  0.52635  0.25922  1.0000
  C   C2881     1.0  0.71979  0.43981  0.46771  1.0000
  H   H2297     1.0  0.71696  0.59302  0.32616  1.0000
  C   C2882     1.0  0.51596  0.57066  0.39919  1.0000
  H   H2298     1.0  0.80647  0.55058  0.25367  1.0000
  H   H2299     1.0  0.78096  0.53295  0.27315  1.0000
  H   H2300     1.0  0.77130  0.49462  0.27317  1.0000
  C   C2883     1.0  0.50838  0.63115  0.48186  1.0000
  H   H2301     1.0  0.75087  0.37964  0.47613  1.0000
  C   C2884     1.0  0.55812  0.48893  0.42488  1.0000
  C   C2885     1.0  0.50137  0.46230  0.39828  1.0000
  C   C2886     1.0  0.52172  0.58585  0.41861  1.0000
  C   C2887     1.0  0.52680  0.42397  0.43454  1.0000
  C   C2888     1.0  0.74150  0.54710  0.23665  1.0000
  H   H2302     1.0  0.79147  0.38072  0.46435  1.0000
  P   P99       1.0  0.71904  0.38570  0.43352  1.0000
  C   C2889     1.0  0.71957  0.40720  0.41833  1.0000
  C   C2890     1.0  0.72486  0.35662  0.42981  1.0000
  H   H2303     1.0  0.67356  0.64891  0.36406  1.0000
  C   C2891     1.0  0.54256  0.40759  0.37158  1.0000
  H   H2304     1.0  0.61212  0.46714  0.34176  1.0000
  C   C2892     1.0  0.70527  0.40739  0.40873  1.0000
  C   C2893     1.0  0.70526  0.42404  0.39696  1.0000
  C   C2894     1.0  0.71941  0.44067  0.39472  1.0000
  C   C2895     1.0  0.73323  0.44101  0.40441  1.0000
  C   C2896     1.0  0.73308  0.42455  0.41627  1.0000
  C   C2897     1.0  0.68995  0.39204  0.44293  1.0000
  C   C2898     1.0  0.68440  0.40930  0.45122  1.0000
  C   C2899     1.0  0.66185  0.41463  0.45837  1.0000
  C   C2900     1.0  0.64447  0.40318  0.45698  1.0000
  C   C2901     1.0  0.64962  0.38655  0.44836  1.0000
  C   C2902     1.0  0.67228  0.38089  0.44137  1.0000
  H   H2305     1.0  0.73425  0.36555  0.40789  1.0000
  H   H2306     1.0  0.50975  0.33375  0.47784  1.0000
  C   C2903     1.0  0.49909  0.34815  0.40207  1.0000
  H   H2307     1.0  0.69425  0.39451  0.41032  1.0000
  H   H2308     1.0  0.69431  0.42405  0.38952  1.0000
  H   H2309     1.0  0.71945  0.45341  0.38552  1.0000
  H   H2310     1.0  0.74391  0.45418  0.40276  1.0000
  H   H2311     1.0  0.74335  0.42560  0.42380  1.0000
  H   H2312     1.0  0.69759  0.41850  0.45222  1.0000
  H   H2313     1.0  0.65785  0.42749  0.46506  1.0000
  H   H2314     1.0  0.62706  0.40705  0.46266  1.0000
  H   H2315     1.0  0.63601  0.37795  0.44718  1.0000
  H   H2316     1.0  0.67589  0.36792  0.43472  1.0000
  C   C2904     1.0  0.54312  0.42328  0.35931  1.0000
  Fe  Fe202     1.0  0.71198  0.59654  0.28483  1.0000
  S   S399      1.0  0.70306  0.62623  0.26815  1.0000
  C   C2905     1.0  0.51224  0.43911  0.47630  1.0000
  H   H2317     1.0  0.61969  0.52688  0.45277  1.0000
  Fe  Fe203     1.0  0.72951  0.60582  0.25415  1.0000
  C   C2906     1.0  0.51503  0.55431  0.47776  1.0000
  H   H2318     1.0  0.74568  0.65038  0.33160  1.0000
  C   C2907     1.0  0.53762  0.36295  0.44929  1.0000
  H   H2319     1.0  0.58161  0.52099  0.44908  1.0000
  C   C2908     1.0  0.56147  0.37601  0.35927  1.0000
  H   H2320     1.0  0.77821  0.64313  0.29060  1.0000
  H   H2321     1.0  0.66112  0.37450  0.48251  1.0000
  C   C2909     1.0  0.52932  0.51402  0.47494  1.0000
  H   H2322     1.0  0.67534  0.64913  0.29263  1.0000
  C   C2910     1.0  0.52690  0.52855  0.37380  1.0000
  C   C2911     1.0  0.77762  0.38218  0.45844  1.0000
  C   C2912     1.0  0.72841  0.62231  0.33057  1.0000
  C   C2913     1.0  0.52106  0.36588  0.44057  1.0000
  S   S400      1.0  0.63964  0.33069  0.44444  1.0000
  C   C2914     1.0  0.51287  0.41336  0.42880  1.0000
  C   C2915     1.0  0.55359  0.38253  0.41564  1.0000
  C   C2916     1.0  0.49626  0.34567  0.45889  1.0000
  C   C2917     1.0  0.51279  0.34292  0.46752  1.0000
  C   C2918     1.0  0.55583  0.62402  0.47127  1.0000
  H   H2323     1.0  0.57409  0.62153  0.46702  1.0000
  S   S401      1.0  0.73992  0.61215  0.28990  1.0000
  H   H2324     1.0  0.68673  0.56328  0.36986  1.0000
  C   C2919     1.0  0.56021  0.48489  0.43870  1.0000
  C   C2920     1.0  0.50422  0.46219  0.35278  1.0000
  H   H2325     1.0  0.59967  0.50853  0.33262  1.0000
  H   H2326     1.0  0.57359  0.47101  0.44239  1.0000
  H   H2327     1.0  0.52516  0.57058  0.34591  1.0000
  C   C2921     1.0  0.68451  0.58197  0.36868  1.0000
  C   C2922     1.0  0.68095  0.56862  0.31585  1.0000
  H   H2328     1.0  0.55109  0.37207  0.38110  1.0000
  H   H2329     1.0  0.92231  0.52721  0.24061  1.0000
  P   P100      1.0  0.52410  0.38485  0.42441  1.0000
  H   H2330     1.0  0.50296  0.41225  0.40111  1.0000
  C   C2923     1.0  0.58671  0.49777  0.33704  1.0000
  C   C2924     1.0  0.59020  0.35817  0.40802  1.0000
  C   C2925     1.0  0.63935  0.63515  0.26813  1.0000
  H   H2331     1.0  0.72696  0.42745  0.47590  1.0000
  C   C2926     1.0  0.65007  0.44540  0.42595  1.0000
  C   C2927     1.0  0.62744  0.45830  0.42651  1.0000
  C   C2928     1.0  0.62309  0.48119  0.42877  1.0000
  C   C2929     1.0  0.64121  0.49116  0.43071  1.0000
  C   C2930     1.0  0.66388  0.47822  0.43039  1.0000
  C   C2931     1.0  0.66824  0.45534  0.42787  1.0000
  P   P101      1.0  0.68765  0.49065  0.43275  1.0000
  C   C2932     1.0  0.67704  0.51952  0.43685  1.0000
  C   C2933     1.0  0.70075  0.47121  0.44643  1.0000
  C   C2934     1.0  0.72431  0.46038  0.44449  1.0000
  C   C2935     1.0  0.73377  0.44477  0.45512  1.0000
  C   C2936     1.0  0.65816  0.62823  0.33133  1.0000
  H   H2332     1.0  0.54672  0.34861  0.46922  1.0000
  C   C2937     1.0  0.68669  0.46559  0.45899  1.0000
  C   C2938     1.0  0.67165  0.53790  0.42632  1.0000
  C   C2939     1.0  0.66481  0.56057  0.42899  1.0000
  C   C2940     1.0  0.66231  0.56509  0.44226  1.0000
  C   C2941     1.0  0.66711  0.54691  0.45284  1.0000
  C   C2942     1.0  0.67485  0.52425  0.45016  1.0000
  C   C2943     1.0  0.70712  0.49490  0.41678  1.0000
  C   C2944     1.0  0.70001  0.49374  0.40447  1.0000
  C   C2945     1.0  0.71340  0.50051  0.39196  1.0000
  C   C2946     1.0  0.73417  0.50818  0.39161  1.0000
  C   C2947     1.0  0.74138  0.50944  0.40379  1.0000
  C   C2948     1.0  0.72773  0.50316  0.41632  1.0000
  H   H2333     1.0  0.65351  0.42776  0.42392  1.0000
  H   H2334     1.0  0.61335  0.45073  0.42491  1.0000
  H   H2335     1.0  0.60580  0.49155  0.42866  1.0000
  H   H2336     1.0  0.63742  0.50903  0.43220  1.0000
  H   H2337     1.0  0.68571  0.44526  0.42734  1.0000
  H   H2338     1.0  0.73535  0.46358  0.43479  1.0000
  H   H2339     1.0  0.75190  0.43627  0.45358  1.0000
  C   C2949     1.0  0.51503  0.59964  0.24474  1.0000
  C   C2950     1.0  0.67164  0.34100  0.47587  1.0000
  H   H2340     1.0  0.66824  0.47295  0.46053  1.0000
  H   H2341     1.0  0.67282  0.53482  0.41598  1.0000
  H   H2342     1.0  0.66132  0.57470  0.42078  1.0000
  H   H2343     1.0  0.65665  0.58270  0.44434  1.0000
  H   H2344     1.0  0.66510  0.55049  0.46310  1.0000
  H   H2345     1.0  0.67923  0.51082  0.45853  1.0000
  H   H2346     1.0  0.68380  0.48827  0.40444  1.0000
  H   H2347     1.0  0.70739  0.50021  0.38250  1.0000
  H   H2348     1.0  0.74439  0.51359  0.38188  1.0000
  H   H2349     1.0  0.75719  0.51595  0.40350  1.0000
  H   H2350     1.0  0.73285  0.50546  0.42564  1.0000
  H   H2351     1.0  0.55397  0.42695  0.33746  1.0000
  C   C2951     1.0  0.66889  0.61764  0.37768  1.0000
  C   C2952     1.0  0.55163  0.38406  0.37155  1.0000
  C   C2953     1.0  0.51739  0.44460  0.43972  1.0000
  C   C2954     1.0  0.73685  0.52726  0.24566  1.0000
  C   C2955     1.0  0.62122  0.50114  0.47082  1.0000
  H   H2352     1.0  0.85217  0.62971  0.27685  1.0000
  C   C2956     1.0  0.52671  0.45954  0.37658  1.0000
  H   H2353     1.0  0.53906  0.51771  0.38012  1.0000
  H   H2354     1.0  0.65924  0.62663  0.38594  1.0000
  C   C2957     1.0  0.50902  0.35412  0.41208  1.0000
  H   H2355     1.0  0.55767  0.52579  0.33452  1.0000
  H   H2356     1.0  0.68537  0.44599  0.47934  1.0000
  H   H2357     1.0  0.74401  0.32523  0.40376  1.0000
  C   C2958     1.0  0.98724  0.64429  0.25205  1.0000
  H   H2358     1.0  0.58283  0.44316  0.35299  1.0000
  C   C2959     1.0  0.75385  0.59075  0.32008  1.0000
  H   H2359     1.0  0.57650  0.53763  0.48255  1.0000
  C   C2960     1.0  0.90510  0.52770  0.23829  1.0000
  C   C2961     1.0  0.54621  0.49399  0.34432  1.0000
  H   H2360     1.0  0.49747  0.62929  0.41231  1.0000
  H   H2361     1.0  0.65312  0.62196  0.34203  1.0000
  H   H2362     1.0  0.57723  0.44574  0.46892  1.0000
  C   C2962     1.0  0.75480  0.38167  0.46508  1.0000
  H   H2363     1.0  0.70569  0.62151  0.48291  1.0000
  C   C2963     1.0  0.49654  0.60362  0.25534  1.0000
  H   H2364     1.0  0.54123  0.54338  0.46137  1.0000
  C   C2964     1.0  0.73863  0.32889  0.41409  1.0000
  C   C2965     1.0  0.52974  0.53770  0.47051  1.0000
  C   C2966     1.0  0.53955  0.62142  0.46356  1.0000
  C   C2967     1.0  0.50301  0.52672  0.37665  1.0000
  C   C2968     1.0  0.51259  0.58819  0.23446  1.0000
  C   C2969     1.0  0.81178  0.52225  0.24222  1.0000
  C   C2970     1.0  0.51785  0.46124  0.47303  1.0000
  C   C2971     1.0  0.64908  0.63629  0.30833  1.0000
  C   C2972     1.0  0.79419  0.64940  0.28597  1.0000
  C   C2973     1.0  0.49557  0.55652  0.35730  1.0000
  Fe  Fe204     1.0  0.65805  0.32535  0.42347  1.0000
  H   H2365     1.0  0.63767  0.63571  0.30129  1.0000
  H   H2366     1.0  0.62679  0.62222  0.32594  1.0000
  C   C2974     1.0  0.50654  0.58151  0.41068  1.0000
  H   H2367     1.0  0.52552  0.40247  0.47971  1.0000
  C   C2975     1.0  0.55259  0.52786  0.23931  1.0000
  C   C2976     1.0  0.64508  0.64562  0.24356  1.0000
  H   H2368     1.0  0.53123  0.60552  0.24440  1.0000
  H   H2369     1.0  0.50382  0.47611  0.47224  1.0000
  H   H2370     1.0  0.65514  0.34146  0.47267  1.0000
  C   C2977     1.0  0.67039  0.64363  0.30346  1.0000
  C   C2978     1.0  0.52994  0.41960  0.47709  1.0000
  C   C2979     1.0  0.58804  0.48170  0.47803  1.0000
  H   H2371     1.0  0.70236  0.64839  0.30851  1.0000
  C   C2980     1.0  0.71062  0.32106  0.47913  1.0000
  C   C2981     1.0  0.49667  0.44750  0.34593  1.0000
  C   C2982     1.0  0.67501  0.35967  0.48150  1.0000
  H   H2372     1.0  0.50484  0.56549  0.39342  1.0000
  Fe  Fe205     1.0  0.60381  0.62811  0.48184  1.0000
  C   C2983     1.0  0.50514  0.45784  0.38491  1.0000
  S   S402      1.0  0.49585  0.61870  0.45992  1.0000
  C   C2984     1.0  0.50203  0.39432  0.40146  1.0000
  H   H2373     1.0  0.50730  0.43101  0.34412  1.0000
  H   H2374     1.0  0.69450  0.38269  0.54905  1.0000
  C   C2985     1.0  0.63319  0.32682  0.54773  1.0000
  H   H2375     1.0  0.49684  0.53412  0.52186  1.0000
  H   H2376     1.0  0.51579  0.36983  0.51251  1.0000
  H   H2377     1.0  0.69253  0.35684  0.72315  1.0000
  C   C2986     1.0  0.54487  0.54883  0.51855  1.0000
  H   H2378     1.0  0.87248  0.32398  0.72423  1.0000
  C   C2987     1.0  0.60803  0.58894  0.52139  1.0000
  H   H2379     1.0  0.77917  0.33763  0.69605  1.0000
  H   H2380     1.0  0.69492  0.62661  0.56234  1.0000
  C   C2988     1.0  0.72373  0.32474  0.68102  1.0000
  C   C2989     1.0  0.66492  0.50135  0.49905  1.0000
  C   C2990     1.0  0.73420  0.52405  0.52470  1.0000
  C   C2991     1.0  0.64362  0.55538  0.53172  1.0000
  H   H2381     1.0  0.69412  0.39840  0.64342  1.0000
  H   H2382     1.0  0.69415  0.51804  0.48948  1.0000
  C   C2992     1.0  0.65456  0.58719  0.55675  1.0000
  S   S403      1.0  0.62676  0.48185  0.51287  1.0000
  S   S404      1.0  0.59212  0.39249  0.50146  1.0000
  C   C2993     1.0  0.56749  0.54078  0.49257  1.0000
  H   H2383     1.0  0.67325  0.39820  0.71971  1.0000
  C   C2994     1.0  0.64089  0.50463  0.50380  1.0000
  H   H2384     1.0  0.83119  0.38054  0.68630  1.0000
  C   C2995     1.0  0.99283  0.34092  0.69450  1.0000
  C   C2996     1.0  0.52467  0.63315  0.48971  1.0000
  C   C2997     1.0  0.71558  0.55753  0.53551  1.0000
  H   H2385     1.0  0.64327  0.57604  0.55543  1.0000
  C   C2998     1.0  0.80300  0.32235  0.64674  1.0000
  H   H2386     1.0  0.70726  0.33664  0.68220  1.0000
  C   C2999     1.0  0.68673  0.39151  0.71190  1.0000
  C   C3000     1.0  0.69224  0.60628  0.50319  1.0000
  C   C3001     1.0  0.75956  0.32614  0.72621  1.0000
  C   C3002     1.0  0.51510  0.50725  0.48720  1.0000
  H   H2387     1.0  0.61787  0.47464  0.48836  1.0000
  Fe  Fe206     1.0  0.61951  0.40193  0.51086  1.0000
  H   H2388     1.0  0.60898  0.52966  0.50556  1.0000
  H   H2389     1.0  0.77531  0.37087  0.65263  1.0000
  C   C3003     1.0  0.51091  0.50796  0.55304  1.0000
  H   H2390     1.0  0.71563  0.56843  0.54286  1.0000
  H   H2391     1.0  0.80605  0.40990  0.67199  1.0000
  H   H2392     1.0  0.57133  0.46816  0.51317  1.0000
  C   C3004     1.0  0.54846  0.62904  0.48454  1.0000
  C   C3005     1.0  0.69841  0.54760  0.51804  1.0000
  H   H2393     1.0  0.56468  0.43567  0.50369  1.0000
  C   C3006     1.0  0.62999  0.39314  0.70847  1.0000
  H   H2394     1.0  0.81458  0.35171  0.65106  1.0000
  C   C3007     1.0  0.66463  0.36329  0.57978  1.0000
  C   C3008     1.0  0.60523  0.56588  0.52499  1.0000
  H   H2395     1.0  0.64707  0.36191  0.58473  1.0000
  C   C3009     1.0  0.51199  0.47548  0.52141  1.0000
  H   H2396     1.0  0.78245  0.32318  0.67452  1.0000
  H   H2397     1.0  0.63984  0.58772  0.57790  1.0000
  C   C3010     1.0  0.51360  0.51425  0.53879  1.0000
  H   H2398     1.0  0.75339  0.36227  0.71791  1.0000
  C   C3011     1.0  0.67069  0.63331  0.51814  1.0000
  C   C3012     1.0  0.53025  0.64948  0.54953  1.0000
  S   S405      1.0  0.72969  0.34985  0.59057  1.0000
  C   C3013     1.0  0.64691  0.57840  0.52769  1.0000
  C   C3014     1.0  0.78471  0.35352  0.69077  1.0000
  C   C3015     1.0  0.63806  0.54611  0.49569  1.0000
  Fe  Fe207     1.0  0.64659  0.39782  0.53450  1.0000
  C   C3016     1.0  0.56855  0.38325  0.51295  1.0000
  C   C3017     1.0  0.54978  0.37923  0.50777  1.0000
  C   C3018     1.0  0.53018  0.37288  0.51662  1.0000
  C   C3019     1.0  0.52954  0.36984  0.53072  1.0000
  C   C3020     1.0  0.54863  0.37314  0.53597  1.0000
  C   C3021     1.0  0.56804  0.38015  0.52707  1.0000
  H   H2399     1.0  0.55040  0.38104  0.49688  1.0000
  H   H2400     1.0  0.53642  0.55224  0.52861  1.0000
  H   H2401     1.0  0.54821  0.37078  0.54688  1.0000
  H   H2402     1.0  0.58257  0.38313  0.53112  1.0000
  C   C3022     1.0  0.55150  0.56718  0.50874  1.0000
  C   C3023     1.0  0.70594  0.35815  0.58120  1.0000
  C   C3024     1.0  0.70985  0.36796  0.56734  1.0000
  C   C3025     1.0  0.69126  0.37521  0.55970  1.0000
  C   C3026     1.0  0.66851  0.37306  0.56595  1.0000
  H   H2403     1.0  0.97189  0.33922  0.66571  1.0000
  C   C3027     1.0  0.81401  0.37789  0.68552  1.0000
  H   H2404     1.0  0.72734  0.36996  0.56250  1.0000
  H   H2405     1.0  0.77165  0.40227  0.70519  1.0000
  H   H2406     1.0  0.68411  0.42389  0.69815  1.0000
  S   S406      1.0  0.64883  0.37561  0.51856  1.0000
  H   H2407     1.0  0.62108  0.53120  0.53264  1.0000
  C   C3028     1.0  0.67552  0.52056  0.49291  1.0000
  C   C3029     1.0  0.73929  0.42648  0.70529  1.0000
  C   C3030     1.0  0.71429  0.34000  0.48419  1.0000
  C   C3031     1.0  0.62866  0.59526  0.52291  1.0000
  H   H2408     1.0  0.68490  0.55088  0.51172  1.0000
  H   H2409     1.0  0.71549  0.40909  0.68045  1.0000
  C   C3032     1.0  0.63493  0.37227  0.71724  1.0000
  H   H2410     1.0  0.98707  0.34127  0.70527  1.0000
  H   H2411     1.0  0.67538  0.48417  0.50047  1.0000
  H   H2412     1.0  0.76793  0.38750  0.62925  1.0000
  S   S407      1.0  0.64214  0.42448  0.49654  1.0000
  S   S408      1.0  0.61473  0.42222  0.52789  1.0000
  H   H2413     1.0  0.93927  0.32030  0.72160  1.0000
  Fe  Fe208     1.0  0.63997  0.44304  0.51415  1.0000
  C   C3033     1.0  0.49821  0.61857  0.52788  1.0000
  H   H2414     1.0  0.66021  0.63702  0.52772  1.0000
  C   C3034     1.0  0.54283  0.65189  0.52517  1.0000
  C   C3035     1.0  0.77104  0.36933  0.68195  1.0000
  H   H2415     1.0  0.71682  0.51750  0.50932  1.0000
  H   H2416     1.0  0.72295  0.34160  0.70531  1.0000
  S   S409      1.0  0.63568  0.62826  0.49062  1.0000
  C   C3036     1.0  0.75758  0.37779  0.65087  1.0000
  C   C3037     1.0  0.62297  0.41391  0.71375  1.0000
  H   H2417     1.0  0.61893  0.43005  0.70694  1.0000
  C   C3038     1.0  0.76151  0.34925  0.72543  1.0000
  H   H2418     1.0  0.64561  0.32041  0.70404  1.0000
  C   C3039     1.0  0.75356  0.40426  0.72578  1.0000
  C   C3040     1.0  0.68570  0.60904  0.54800  1.0000
  H   H2419     1.0  0.86393  0.40201  0.70283  1.0000
  Fe  Fe209     1.0  0.67127  0.39944  0.50537  1.0000
  S   S410      1.0  0.67168  0.41997  0.52189  1.0000
  C   C3041     1.0  0.71613  0.43051  0.72743  1.0000
  H   H2420     1.0  0.70120  0.38218  0.66682  1.0000
  H   H2421     1.0  0.54805  0.58461  0.51113  1.0000
  S   S411      1.0  0.64429  0.38230  0.55701  1.0000
  C   C3042     1.0  0.66215  0.54305  0.49137  1.0000
  H   H2422     1.0  0.57993  0.64422  0.51858  1.0000
  C   C3043     1.0  0.68323  0.35564  0.58734  1.0000
  C   C3044     1.0  0.84725  0.39877  0.70861  1.0000
  C   C3045     1.0  0.71933  0.43683  0.71325  1.0000
  C   C3046     1.0  0.80776  0.41294  0.71893  1.0000
  H   H2423     1.0  0.70628  0.44966  0.70843  1.0000
  C   C3047     1.0  0.69768  0.56218  0.52751  1.0000
  H   H2424     1.0  0.74169  0.43118  0.69428  1.0000
  C   C3048     1.0  0.65258  0.59375  0.56953  1.0000
  H   H2425     1.0  0.85797  0.36180  0.71128  1.0000
  C   C3049     1.0  0.80625  0.35771  0.69240  1.0000
  C   C3050     1.0  0.72151  0.37421  0.69155  1.0000
  C   C3051     1.0  0.91319  0.34998  0.72604  1.0000
  C   C3052     1.0  0.80422  0.39011  0.72369  1.0000
  H   H2426     1.0  0.58957  0.56088  0.52344  1.0000
  C   C3053     1.0  0.66805  0.32788  0.67017  1.0000
  C   C3054     1.0  0.67953  0.61035  0.51597  1.0000
  H   H2427     1.0  0.79401  0.42743  0.72116  1.0000
  C   C3055     1.0  0.62754  0.52700  0.50191  1.0000
  H   H2428     1.0  0.72734  0.40151  0.62457  1.0000
  C   C3056     1.0  0.68364  0.61561  0.56078  1.0000
  Fe  Fe210     1.0  0.70543  0.32722  0.64155  1.0000
  H   H2429     1.0  0.81744  0.34498  0.69858  1.0000
  H   H2430     1.0  0.51666  0.65091  0.55828  1.0000
  H   H2431     1.0  0.58340  0.51563  0.53195  1.0000
  C   C3057     1.0  0.92787  0.32894  0.72954  1.0000
  C   C3058     1.0  0.69292  0.40602  0.69975  1.0000
  H   H2432     1.0  0.57917  0.46963  0.48547  1.0000
  H   H2433     1.0  0.61288  0.45544  0.55803  1.0000
  H   H2434     1.0  0.97123  0.33200  0.62675  1.0000
  C   C3059     1.0  0.63272  0.37211  0.73126  1.0000
  C   C3060     1.0  0.73374  0.53852  0.53411  1.0000
  C   C3061     1.0  0.74483  0.33277  0.67917  1.0000
  H   H2435     1.0  0.73091  0.33955  0.48724  1.0000
  P   P102      1.0  0.74430  0.36314  0.67863  1.0000
  H   H2436     1.0  0.63151  0.39312  0.69761  1.0000
  H   H2437     1.0  0.76788  0.40296  0.66913  1.0000
  C   C3062     1.0  0.73890  0.37682  0.66169  1.0000
  C   C3063     1.0  0.69647  0.35926  0.48557  1.0000
  C   C3064     1.0  0.75346  0.38719  0.63759  1.0000
  S   S412      1.0  0.85286  0.33392  0.66584  1.0000
  C   C3065     1.0  0.71599  0.38433  0.65889  1.0000
  C   C3066     1.0  0.82917  0.41722  0.71138  1.0000
  H   H2438     1.0  0.51518  0.48920  0.49128  1.0000
  S   S413      1.0  0.70212  0.38303  0.49164  1.0000
  C   C3067     1.0  0.77840  0.39017  0.67567  1.0000
  C   C3068     1.0  0.75626  0.41011  0.71151  1.0000
  H   H2439     1.0  0.66357  0.34877  0.68594  1.0000
  C   C3069     1.0  0.62296  0.54916  0.53022  1.0000
  C   C3070     1.0  0.68789  0.64754  0.49519  1.0000
  H   H2440     1.0  0.91327  0.35758  0.71540  1.0000
  C   C3071     1.0  0.66707  0.60799  0.57154  1.0000
  H   H2441     1.0  0.54697  0.45816  0.54577  1.0000
  S   S414      1.0  0.94705  0.34130  0.69332  1.0000
  H   H2442     1.0  0.52480  0.42744  0.50612  1.0000
  H   H2443     1.0  0.67988  0.34826  0.59797  1.0000
  H   H2444     1.0  0.57884  0.43743  0.55849  1.0000
  C   C3072     1.0  0.82246  0.37169  0.72082  1.0000
  H   H2445     1.0  0.61500  0.49443  0.54486  1.0000
  H   H2446     1.0  0.65715  0.54207  0.53574  1.0000
  C   C3073     1.0  0.52065  0.33609  0.72853  1.0000
  H   H2447     1.0  0.69871  0.58888  0.50101  1.0000
  C   C3074     1.0  0.69766  0.36830  0.71385  1.0000
  C   C3075     1.0  0.73060  0.39512  0.63494  1.0000
  H   H2448     1.0  0.82037  0.35393  0.72443  1.0000
  C   C3076     1.0  0.71056  0.39753  0.68970  1.0000
  C   C3077     1.0  0.71188  0.39355  0.64558  1.0000
  H   H2449     1.0  0.83184  0.43485  0.70778  1.0000
  H   H2450     1.0  0.52226  0.35088  0.72060  1.0000
  H   H2451     1.0  0.61496  0.43004  0.73166  1.0000
  C   C3078     1.0  0.56286  0.56313  0.49578  1.0000
  H   H2452     1.0  0.56440  0.50545  0.49951  1.0000
  C   C3079     1.0  0.66082  0.33287  0.68348  1.0000
  C   C3080     1.0  0.71493  0.35967  0.70370  1.0000
  C   C3081     1.0  0.79992  0.39431  0.67735  1.0000
  S   S415      1.0  0.68278  0.34669  0.65773  1.0000
  C   C3082     1.0  0.59964  0.48709  0.54542  1.0000
  C   C3083     1.0  0.59855  0.46499  0.55280  1.0000
  C   C3084     1.0  0.57937  0.45481  0.55303  1.0000
  C   C3085     1.0  0.56143  0.46660  0.54574  1.0000
  C   C3086     1.0  0.56258  0.48869  0.53809  1.0000
  C   C3087     1.0  0.58172  0.49898  0.53808  1.0000
  P   P103      1.0  0.53988  0.50283  0.52804  1.0000
  C   C3088     1.0  0.53457  0.48027  0.52007  1.0000
  H   H2453     1.0  0.66551  0.61307  0.58145  1.0000
  C   C3089     1.0  0.97677  0.33980  0.68619  1.0000
  H   H2454     1.0  0.65551  0.33076  0.56115  1.0000
  P   P104      1.0  0.67382  0.58645  0.52934  1.0000
  S   S416      1.0  0.73811  0.33842  0.62938  1.0000
  C   C3090     1.0  0.84388  0.37606  0.71334  1.0000
  C   C3091     1.0  0.67105  0.59492  0.54586  1.0000
  H   H2455     1.0  0.52476  0.49668  0.55796  1.0000
  C   C3092     1.0  0.52751  0.44227  0.50990  1.0000
  C   C3093     1.0  0.54997  0.44691  0.50852  1.0000
  C   C3094     1.0  0.55359  0.46558  0.51376  1.0000
  C   C3095     1.0  0.54915  0.52631  0.51536  1.0000
  C   C3096     1.0  0.56062  0.52247  0.50229  1.0000
  H   H2456     1.0  0.64033  0.35614  0.71318  1.0000
  H   H2457     1.0  0.74748  0.53496  0.54033  1.0000
  C   C3097     1.0  0.50042  0.32632  0.73094  1.0000
  S   S417      1.0  0.56887  0.62933  0.49488  1.0000
  H   H2458     1.0  0.74823  0.50930  0.52362  1.0000
  S   S418      1.0  0.67599  0.56711  0.48447  1.0000
  C   C3098     1.0  0.50015  0.54742  0.48962  1.0000
  C   C3099     1.0  0.98423  0.33974  0.67221  1.0000
  C   C3100     1.0  0.62076  0.41381  0.72780  1.0000
  H   H2459     1.0  0.63231  0.32563  0.58314  1.0000
  C   C3101     1.0  0.71654  0.52863  0.51666  1.0000
  C   C3102     1.0  0.69633  0.62481  0.49284  1.0000
  H   H2460     1.0  0.75007  0.32140  0.71939  1.0000
  H   H2461     1.0  0.69878  0.61493  0.53979  1.0000
  C   C3103     1.0  0.50040  0.52389  0.49439  1.0000
  H   H2462     1.0  0.49695  0.48592  0.52654  1.0000
  H   H2463     1.0  0.50711  0.34150  0.59348  1.0000
  C   C3104     1.0  0.57149  0.64104  0.54049  1.0000
  H   H2464     1.0  0.63049  0.61320  0.52008  1.0000
  C   C3105     1.0  0.81750  0.33307  0.65208  1.0000
  H   H2465     1.0  0.62759  0.56330  0.49467  1.0000
  H   H2466     1.0  0.55774  0.63934  0.56189  1.0000
  H   H2467     1.0  0.61385  0.33975  0.60447  1.0000
  Fe  Fe211     1.0  0.72632  0.32825  0.61176  1.0000
  C   C3106     1.0  0.56611  0.64559  0.52727  1.0000
  H   H2468     1.0  0.78880  0.33268  0.64172  1.0000
  H   H2469     1.0  0.50034  0.58424  0.52350  1.0000
  C   C3107     1.0  0.50859  0.45645  0.51642  1.0000
  H   H2470     1.0  0.49798  0.36013  0.57053  1.0000
  H   H2471     1.0  0.59442  0.60180  0.51708  1.0000
  H   H2472     1.0  0.63037  0.34507  0.54348  1.0000
  H   H2473     1.0  0.58956  0.63608  0.54208  1.0000
  C   C3108     1.0  0.67510  0.65179  0.50783  1.0000
  S   S419      1.0  0.88608  0.32619  0.69587  1.0000
  C   C3109     1.0  0.55356  0.64289  0.55163  1.0000
  H   H2474     1.0  0.51879  0.63780  0.49978  1.0000
  C   C3110     1.0  0.62640  0.32368  0.60474  1.0000
  H   H2475     1.0  0.56819  0.57732  0.48823  1.0000
  H   H2476     1.0  0.51697  0.61691  0.52662  1.0000
  S   S420      1.0  0.50482  0.36205  0.54177  1.0000
  H   H2477     1.0  0.80299  0.40925  0.74673  1.0000
  H   H2478     1.0  0.87878  0.51169  0.96247  1.0000
  Fe  Fe212     1.0  0.91794  0.57117  0.94115  1.0000
  S   S421      1.0  0.90097  0.58655  0.92265  1.0000
  S   S422      1.0  0.89888  0.57275  0.96250  1.0000
  Fe  Fe213     1.0  0.96339  0.55117  0.92472  1.0000
  S   S423      1.0  0.95038  0.56487  0.90467  1.0000
  H   H2479     1.0  0.97024  0.48133  0.97446  1.0000
  Fe  Fe214     1.0  0.93550  0.59741  0.91390  1.0000
  Fe  Fe215     1.0  0.91711  0.55266  0.91515  1.0000
  S   S424      1.0  0.89457  0.53030  0.90982  1.0000
  S   S425      1.0  0.95134  0.58445  0.93301  1.0000
  S   S426      1.0  0.93142  0.53669  0.93450  1.0000
  Fe  Fe216     1.0  0.90442  0.38530  0.85724  1.0000
  S   S427      1.0  0.91921  0.36070  0.87444  1.0000
  S   S428      1.0  0.89675  0.36848  0.84041  1.0000
  Fe  Fe217     1.0  0.91175  0.42757  0.86842  1.0000
  S   S429      1.0  0.92647  0.40554  0.88650  1.0000
  S   S430      1.0  0.91210  0.46633  0.86382  1.0000
  Fe  Fe218     1.0  0.94666  0.38237  0.87171  1.0000
  C   C3111     1.0  0.67046  0.37965  0.75271  1.0000
  Fe  Fe219     1.0  0.89789  0.38573  0.88777  1.0000
  S   S431      1.0  0.87921  0.37140  0.90815  1.0000
  S   S432      1.0  0.93396  0.40537  0.85332  1.0000
  S   S433      1.0  0.88106  0.40956  0.87080  1.0000
  H   H2480     1.0  0.86002  0.44591  0.97676  1.0000
  S   S434      1.0  0.77984  0.34461  0.80043  1.0000
  H   H2481     1.0  0.67148  0.38875  0.78954  1.0000
  H   H2482     1.0  0.83799  0.39404  0.87855  1.0000
  H   H2483     1.0  0.63420  0.43660  0.75464  1.0000
  C   C3112     1.0  0.58257  0.33194  0.77429  1.0000
  H   H2484     1.0  0.91369  0.63770  0.92911  1.0000
  S   S435      1.0  0.80553  0.33156  0.83552  1.0000
  H   H2485     1.0  0.95136  0.37778  0.97771  1.0000
  H   H2486     1.0  0.63399  0.39703  0.78069  1.0000
  C   C3113     1.0  0.87149  0.35736  0.83980  1.0000
  C   C3114     1.0  0.85085  0.36147  0.84902  1.0000
  C   C3115     1.0  0.83093  0.35319  0.84771  1.0000
  C   C3116     1.0  0.83124  0.34115  0.83699  1.0000
  C   C3117     1.0  0.85199  0.33674  0.82790  1.0000
  C   C3118     1.0  0.87203  0.34455  0.82942  1.0000
  H   H2487     1.0  0.85006  0.37154  0.85693  1.0000
  H   H2488     1.0  0.81502  0.35666  0.85483  1.0000
  H   H2489     1.0  0.85263  0.32737  0.81967  1.0000
  H   H2490     1.0  0.88798  0.34099  0.82235  1.0000
  C   C3119     1.0  0.90084  0.51229  0.89706  1.0000
  C   C3120     1.0  0.91275  0.51887  0.88403  1.0000
  C   C3121     1.0  0.91591  0.50477  0.87390  1.0000
  C   C3122     1.0  0.90747  0.48384  0.87674  1.0000
  C   C3123     1.0  0.89533  0.47743  0.88972  1.0000
  C   C3124     1.0  0.89183  0.49173  0.89974  1.0000
  H   H2491     1.0  0.91867  0.53525  0.88163  1.0000
  H   H2492     1.0  0.92474  0.51019  0.86377  1.0000
  H   H2493     1.0  0.88843  0.46156  0.89199  1.0000
  H   H2494     1.0  0.88206  0.48680  0.90963  1.0000
  C   C3125     1.0  0.64946  0.38748  0.76090  1.0000
  C   C3126     1.0  0.60471  0.41891  0.75953  1.0000
  C   C3127     1.0  0.62550  0.39283  0.73667  1.0000
  C   C3128     1.0  0.89222  0.34165  0.93080  1.0000
  C   C3129     1.0  0.89932  0.35169  0.91735  1.0000
  C   C3130     1.0  0.96923  0.50826  0.89880  1.0000
  H   H2495     1.0  0.97569  0.41454  0.86346  1.0000
  C   C3131     1.0  0.98146  0.63951  0.92926  1.0000
  H   H2496     1.0  0.87426  0.34607  0.93552  1.0000
  H   H2497     1.0  0.81018  0.33124  0.91322  1.0000
  C   C3132     1.0  0.84082  0.32589  0.75591  1.0000
  H   H2498     1.0  0.80225  0.40277  0.89512  1.0000
  C   C3133     1.0  0.96310  0.47396  0.96751  1.0000
  H   H2499     1.0  0.95818  0.59753  0.87376  1.0000
  S   S436      1.0  0.98406  0.36574  0.87385  1.0000
  C   C3134     1.0  0.60276  0.45896  0.76189  1.0000
  H   H2500     1.0  0.97211  0.52543  0.97444  1.0000
  C   C3135     1.0  0.65002  0.39130  0.77411  1.0000
  H   H2501     1.0  0.98670  0.56112  0.87632  1.0000
  C   C3136     1.0  0.91852  0.62551  0.97160  1.0000
  P   P105      1.0  0.77668  0.38486  0.73373  1.0000
  H   H2502     1.0  0.58237  0.37677  0.74804  1.0000
  C   C3137     1.0  0.89780  0.33829  0.78205  1.0000
  C   C3138     1.0  0.97232  0.55845  0.84565  1.0000
  C   C3139     1.0  0.93681  0.61238  0.96398  1.0000
  C   C3140     1.0  0.87284  0.37170  0.79802  1.0000
  C   C3141     1.0  0.89723  0.36816  0.79540  1.0000
  C   C3142     1.0  0.90972  0.35159  0.78738  1.0000
  H   H2503     1.0  0.93781  0.61465  0.95302  1.0000
  H   H2504     1.0  0.67049  0.37573  0.74274  1.0000
  C   C3143     1.0  0.98973  0.62309  0.93987  1.0000
  H   H2505     1.0  0.81179  0.32735  0.88161  1.0000
  P   P106      1.0  0.62177  0.39192  0.75492  1.0000
  H   H2506     1.0  0.95679  0.32674  0.91402  1.0000
  C   C3144     1.0  0.60648  0.36845  0.76268  1.0000
  H   H2507     1.0  0.96733  0.49413  0.86417  1.0000
  C   C3145     1.0  0.95408  0.53213  0.97812  1.0000
  S   S437      1.0  0.67451  0.32228  0.74753  1.0000
  H   H2508     1.0  0.86322  0.38424  0.80444  1.0000
  H   H2509     1.0  0.90639  0.37807  0.79979  1.0000
  H   H2510     1.0  0.92856  0.34923  0.78540  1.0000
  H   H2511     1.0  0.70057  0.43838  0.73361  1.0000
  C   C3146     1.0  0.83220  0.38029  0.88619  1.0000
  H   H2512     1.0  0.93868  0.60940  0.85320  1.0000
  S   S438      1.0  0.96153  0.32263  0.97551  1.0000
  H   H2513     1.0  0.88604  0.35984  0.75759  1.0000
  C   C3147     1.0  0.91653  0.55505  0.97392  1.0000
  H   H2514     1.0  0.89943  0.37964  0.96936  1.0000
  C   C3148     1.0  0.95136  0.59346  0.85424  1.0000
  H   H2515     1.0  0.97568  0.54756  0.83783  1.0000
  H   H2516     1.0  0.94672  0.55061  0.95852  1.0000
  H   H2517     1.0  0.79389  0.34215  0.75086  1.0000
  H   H2518     1.0  0.91702  0.50883  0.96949  1.0000
  H   H2519     1.0  0.95944  0.52424  0.87938  1.0000
  C   C3149     1.0  0.67119  0.38675  0.77914  1.0000
  C   C3150     1.0  0.95621  0.45247  0.97166  1.0000
  S   S439      1.0  0.94044  0.63281  0.90227  1.0000
  C   C3151     1.0  0.77489  0.38965  0.75106  1.0000
  C   C3152     1.0  0.90851  0.32641  0.93827  1.0000
  C   C3153     1.0  0.88268  0.50084  0.97194  1.0000
  H   H2520     1.0  0.86391  0.33180  0.78079  1.0000
  C   C3154     1.0  0.78815  0.40588  0.76783  1.0000
  H   H2521     1.0  0.97397  0.37983  0.95464  1.0000
  C   C3155     1.0  0.97234  0.47913  0.84605  1.0000
  C   C3156     1.0  0.97292  0.44941  0.89488  1.0000
  H   H2522     1.0  0.98716  0.54137  0.95259  1.0000
  H   H2523     1.0  0.63638  0.35574  0.73793  1.0000
  S   S440      1.0  0.82598  0.34586  0.76666  1.0000
  C   C3157     1.0  0.58774  0.36531  0.75701  1.0000
  H   H2524     1.0  0.54922  0.44386  0.77160  1.0000
  H   H2525     1.0  0.99107  0.61370  0.88200  1.0000
  C   C3158     1.0  0.98335  0.55158  0.85727  1.0000
  H   H2526     1.0  0.94120  0.42668  0.96643  1.0000
  H   H2527     1.0  0.88692  0.37734  0.73350  1.0000
  C   C3159     1.0  0.96051  0.32115  0.76611  1.0000
  H   H2528     1.0  0.55438  0.33446  0.73423  1.0000
  H   H2529     1.0  0.98118  0.62366  0.95027  1.0000
  C   C3160     1.0  0.84508  0.35775  0.88677  1.0000
  C   C3161     1.0  0.85239  0.33366  0.74303  1.0000
  C   C3162     1.0  0.57882  0.46109  0.76667  1.0000
  C   C3163     1.0  0.61329  0.35295  0.77415  1.0000
  H   H2530     1.0  0.60694  0.32254  0.78859  1.0000
  C   C3164     1.0  0.97778  0.49293  0.85425  1.0000
  C   C3165     1.0  0.78426  0.33791  0.74392  1.0000
  H   H2531     1.0  0.92841  0.35401  0.90111  1.0000
  H   H2532     1.0  0.77086  0.39895  0.78854  1.0000
  C   C3166     1.0  0.96854  0.38231  0.97584  1.0000
  C   C3167     1.0  0.77173  0.39667  0.77806  1.0000
  C   C3168     1.0  0.80418  0.36748  0.90531  1.0000
  C   C3169     1.0  0.93977  0.54631  0.96914  1.0000
  C   C3170     1.0  0.99254  0.35221  0.92384  1.0000
  C   C3171     1.0  0.78976  0.40241  0.75437  1.0000
  C   C3172     1.0  0.86609  0.48875  0.98025  1.0000
  C   C3173     1.0  0.97847  0.56609  0.86725  1.0000
  H   H2533     1.0  0.73052  0.41002  0.74469  1.0000
  H   H2534     1.0  0.96615  0.65259  0.93136  1.0000
  C   C3174     1.0  0.91279  0.32993  0.75357  1.0000
  C   C3175     1.0  0.99317  0.63153  0.87910  1.0000
  C   C3176     1.0  0.99287  0.63905  0.91586  1.0000
  H   H2535     1.0  0.90538  0.63768  0.96649  1.0000
  C   C3177     1.0  0.83738  0.33985  0.89654  1.0000
  C   C3178     1.0  0.99059  0.64299  0.97707  1.0000
  H   H2536     1.0  0.74479  0.37606  0.78292  1.0000
  C   C3179     1.0  0.97377  0.51549  0.88474  1.0000
  C   C3180     1.0  0.86091  0.35855  0.79273  1.0000
  C   C3181     1.0  0.58063  0.42120  0.76433  1.0000
  H   H2537     1.0  0.70767  0.36869  0.75147  1.0000
  H   H2538     1.0  0.84200  0.36109  0.79485  1.0000
  H   H2539     1.0  0.95797  0.46985  0.84972  1.0000
  H   H2540     1.0  0.70817  0.37425  0.77511  1.0000
  H   H2541     1.0  0.62794  0.35452  0.77859  1.0000
  H   H2542     1.0  0.94770  0.58438  0.83525  1.0000
  S   S441      1.0  0.72192  0.32209  0.79912  1.0000
  C   C3182     1.0  0.93189  0.32127  0.93228  1.0000
  C   C3183     1.0  0.87335  0.34187  0.78482  1.0000
  H   H2543     1.0  0.74744  0.36973  0.75924  1.0000
  C   C3184     1.0  0.92261  0.34607  0.91134  1.0000
  C   C3185     1.0  0.57574  0.34726  0.76288  1.0000
  H   H2544     1.0  0.98288  0.45075  0.88470  1.0000
  C   C3186     1.0  0.75699  0.38382  0.77487  1.0000
  H   H2545     1.0  0.96482  0.64006  0.86745  1.0000
  H   H2546     1.0  0.84949  0.49002  0.97694  1.0000
  C   C3187     1.0  0.94909  0.44924  0.89677  1.0000
  C   C3188     1.0  0.93607  0.44799  0.90988  1.0000
  C   C3189     1.0  0.94684  0.44724  0.92122  1.0000
  C   C3190     1.0  0.97101  0.44652  0.91926  1.0000
  P   P107      1.0  0.93041  0.44401  0.93825  1.0000
  C   C3191     1.0  0.94362  0.45536  0.94972  1.0000
  C   C3192     1.0  0.90078  0.45947  0.93762  1.0000
  C   C3193     1.0  0.89456  0.48299  0.93893  1.0000
  C   C3194     1.0  0.87164  0.49474  0.93829  1.0000
  C   C3195     1.0  0.85473  0.48315  0.93637  1.0000
  C   C3196     1.0  0.86078  0.45981  0.93493  1.0000
  C   C3197     1.0  0.88371  0.44805  0.93544  1.0000
  H   H2547     1.0  0.86096  0.35443  0.87959  1.0000
  C   C3198     1.0  0.99302  0.40979  0.86620  1.0000
  C   C3199     1.0  0.98572  0.47680  0.83329  1.0000
  C   C3200     1.0  0.96048  0.48610  0.95447  1.0000
  C   C3201     1.0  0.95113  0.47668  0.94554  1.0000
  C   C3202     1.0  0.92881  0.41391  0.94406  1.0000
  C   C3203     1.0  0.94095  0.39691  0.93620  1.0000
  C   C3204     1.0  0.93832  0.37389  0.94047  1.0000
  C   C3205     1.0  0.92374  0.36764  0.95255  1.0000
  C   C3206     1.0  0.91120  0.38451  0.96022  1.0000
  C   C3207     1.0  0.91371  0.40757  0.95604  1.0000
  C   C3208     1.0  0.90428  0.49933  0.97592  1.0000
  C   C3209     1.0  0.75862  0.38021  0.76145  1.0000
  H   H2548     1.0  0.94079  0.44992  0.88801  1.0000
  H   H2549     1.0  0.91769  0.44740  0.91113  1.0000
  H   H2550     1.0  0.97990  0.44498  0.92785  1.0000
  H   H2551     1.0  0.90733  0.49262  0.94005  1.0000
  H   H2552     1.0  0.86728  0.51315  0.93870  1.0000
  H   H2553     1.0  0.83718  0.49250  0.93551  1.0000
  H   H2554     1.0  0.84787  0.45096  0.93301  1.0000
  H   H2555     1.0  0.88812  0.43016  0.93384  1.0000
  C   C3210     1.0  0.95322  0.59580  0.97053  1.0000
  C   C3211     1.0  0.94644  0.44324  0.96285  1.0000
  C   C3212     1.0  0.85746  0.41014  0.97997  1.0000
  H   H2556     1.0  0.96589  0.50277  0.95123  1.0000
  H   H2557     1.0  0.94951  0.48617  0.93540  1.0000
  H   H2558     1.0  0.95218  0.40125  0.92669  1.0000
  H   H2559     1.0  0.94731  0.36088  0.93433  1.0000
  H   H2560     1.0  0.92192  0.34976  0.95590  1.0000
  C   C3213     1.0  0.89842  0.36112  0.73623  1.0000
  H   H2561     1.0  0.90371  0.42048  0.96209  1.0000
  H   H2562     1.0  0.86167  0.40887  0.96920  1.0000
  Fe  Fe220     1.0  0.80732  0.32693  0.78544  1.0000
  C   C3214     1.0  0.89804  0.35108  0.74994  1.0000
  C   C3215     1.0  0.93875  0.33059  0.91870  1.0000
  C   C3216     1.0  0.53892  0.32675  0.73621  1.0000
  C   C3217     1.0  0.97814  0.64651  0.87082  1.0000
  C   C3218     1.0  0.81672  0.34484  0.90575  1.0000
  H   H2563     1.0  0.98332  0.36080  0.90358  1.0000
  H   H2564     1.0  0.95603  0.33512  0.75795  1.0000
  C   C3219     1.0  0.73319  0.41432  0.73369  1.0000
  H   H2565     1.0  0.95146  0.51111  0.90416  1.0000
  C   C3220     1.0  0.96241  0.58684  0.86579  1.0000
  C   C3221     1.0  0.61566  0.43797  0.75833  1.0000
  H   H2566     1.0  0.98679  0.33572  0.92596  1.0000
  C   C3222     1.0  0.69165  0.37557  0.75767  1.0000
  H   H2567     1.0  0.99176  0.37598  0.76845  1.0000
  C   C3223     1.0  0.95641  0.57934  0.84414  1.0000
  C   C3224     1.0  0.81191  0.38520  0.89551  1.0000
  C   C3225     1.0  0.98393  0.44771  0.90612  1.0000
  H   H2568     1.0  0.61131  0.47358  0.76100  1.0000
  C   C3226     1.0  0.60138  0.33473  0.77990  1.0000
  H   H2569     1.0  0.96700  0.58510  0.96461  1.0000
  H   H2570     1.0  0.78843  0.37128  0.91252  1.0000
  H   H2571     1.0  0.56882  0.47733  0.76946  1.0000
  H   H2572     1.0  0.99031  0.35661  0.79253  1.0000
  H   H2573     1.0  0.56131  0.34489  0.75845  1.0000
  C   C3227     1.0  0.69197  0.37877  0.77095  1.0000
  C   C3228     1.0  0.56778  0.44223  0.76787  1.0000
  H   H2574     1.0  0.80005  0.41522  0.77041  1.0000
  C   C3229     1.0  0.99058  0.36629  0.91123  1.0000
  H   H2575     1.0  0.57165  0.40688  0.76543  1.0000
  H   H2576     1.0  0.85726  0.32371  0.92176  1.0000
  C   C3230     1.0  0.98157  0.38328  0.96274  1.0000
  C   C3231     1.0  0.98766  0.49774  0.90594  1.0000
  C   C3232     1.0  0.77386  0.35527  0.73435  1.0000
  H   H2577     1.0  0.85302  0.35184  0.74005  1.0000
  H   H2578     1.0  0.95813  0.44307  0.98180  1.0000
  H   H2579     1.0  0.98615  0.65196  0.90782  1.0000
  H   H2580     1.0  0.98168  0.46572  0.82710  1.0000
  H   H2581     1.0  0.98430  0.49265  0.91689  1.0000
  H   H2582     1.0  0.97554  0.65311  0.98239  1.0000
  Fe  Fe221     1.0  0.79882  0.32046  0.81643  1.0000
  H   H2583     1.0  0.74150  0.31999  0.77028  1.0000
  H   H2584     1.0  0.67533  0.32008  0.79633  1.0000
  C   C3233     1.0  0.70975  0.32006  0.78472  1.0000
  H   H2585     1.0  0.63497  0.74301  0.15867  1.0000
  Fe  Fe222     1.0  0.93141  0.79127  0.19704  1.0000
  S   S442      1.0  0.92871  0.82508  0.20420  1.0000
  S   S443      1.0  0.93333  0.78572  0.17534  1.0000
  C   C3234     1.0  0.50527  0.72746  0.14533  1.0000
  C   C3235     1.0  0.61569  0.69300  0.17804  1.0000
  C   C3236     1.0  0.69562  0.69675  0.06139  1.0000
  S   S444      1.0  0.90367  0.77955  0.21361  1.0000
  C   C3237     1.0  0.53014  0.74944  0.20398  1.0000
  C   C3238     1.0  0.82719  0.69303  0.11326  1.0000
  H   H2586     1.0  0.80737  0.68265  0.10041  1.0000
  H   H2587     1.0  0.71229  0.89494  0.22356  1.0000
  C   C3239     1.0  0.81582  0.67754  0.10939  1.0000
  H   H2588     1.0  0.57368  0.68276  0.16665  1.0000
  Fe  Fe223     1.0  0.61930  0.79360  0.21468  1.0000
  S   S445      1.0  0.62647  0.81210  0.19315  1.0000
  C   C3240     1.0  0.96178  0.84510  0.11790  1.0000
  Fe  Fe224     1.0  0.62328  0.74732  0.20553  1.0000
  S   S446      1.0  0.63175  0.76174  0.18347  1.0000
  S   S447      1.0  0.62326  0.70978  0.21357  1.0000
  Fe  Fe225     1.0  0.65497  0.78111  0.19000  1.0000
  S   S448      1.0  0.69399  0.78005  0.18381  1.0000
  Fe  Fe226     1.0  0.60214  0.79090  0.18860  1.0000
  S   S449      1.0  0.57512  0.80042  0.17417  1.0000
  S   S450      1.0  0.64868  0.76408  0.21177  1.0000
  S   S451      1.0  0.59273  0.77511  0.21043  1.0000
  Fe  Fe227     1.0  0.83153  0.78693  0.13787  1.0000
  S   S452      1.0  0.86062  0.76924  0.12383  1.0000
  S   S453      1.0  0.83474  0.80184  0.15614  1.0000
  Fe  Fe228     1.0  0.79401  0.77810  0.12398  1.0000
  S   S454      1.0  0.82009  0.76028  0.10826  1.0000
  S   S455      1.0  0.75514  0.77948  0.12498  1.0000
  Fe  Fe229     1.0  0.83844  0.74261  0.12581  1.0000
  S   S456      1.0  0.85367  0.70477  0.12962  1.0000
  Fe  Fe230     1.0  0.84067  0.78842  0.10700  1.0000
  S   S457      1.0  0.86553  0.79706  0.08745  1.0000
  S   S458      1.0  0.81131  0.75819  0.14162  1.0000
  S   S459      1.0  0.81261  0.80832  0.12102  1.0000
  Fe  Fe231     1.0  0.91227  0.89663  0.03534  1.0000
  S   S460      1.0  0.93512  0.86592  0.02687  1.0000
  S   S461      1.0  0.88270  0.89454  0.05319  1.0000
  Fe  Fe232     1.0  0.93954  0.93137  0.01626  1.0000
  S   S462      1.0  0.96416  0.90298  0.00681  1.0000
  C   C3241     1.0  0.83773  0.66445  0.13253  1.0000
  Fe  Fe233     1.0  0.93262  0.88845  0.00645  1.0000
  C   C3242     1.0  0.50536  0.80506  0.17471  1.0000
  Fe  Fe234     1.0  0.96450  0.88360  0.02786  1.0000
  C   C3243     1.0  0.94560  0.85211  0.06928  1.0000
  S   S463      1.0  0.90762  0.91822  0.01469  1.0000
  S   S464      1.0  0.94189  0.91285  0.03765  1.0000
  C   C3244     1.0  0.51229  0.74426  0.18537  1.0000
  C   C3245     1.0  0.83838  0.68636  0.12476  1.0000
  C   C3246     1.0  0.89781  0.83225  0.12113  1.0000
  H   H2589     1.0  0.75448  0.68719  0.21632  1.0000
  C   C3247     1.0  0.84547  0.70579  0.19310  1.0000
  C   C3248     1.0  0.51348  0.66356  0.17683  1.0000
  H   H2590     1.0  0.88361  0.65741  0.04064  1.0000
  H   H2591     1.0  0.90858  0.84367  0.00152  1.0000
  H   H2592     1.0  0.64962  0.76212  0.13556  1.0000
  H   H2593     1.0  0.91817  0.95580  0.98653  1.0000
  C   C3249     1.0  0.88302  0.96733  0.04254  1.0000
  H   H2594     1.0  0.69009  0.74868  0.12457  1.0000
  H   H2595     1.0  0.62103  0.67497  0.14075  1.0000
  C   C3250     1.0  0.86982  0.82449  0.07827  1.0000
  C   C3251     1.0  0.88916  0.82558  0.06788  1.0000
  C   C3252     1.0  0.89323  0.84689  0.06013  1.0000
  C   C3253     1.0  0.87805  0.86740  0.06274  1.0000
  C   C3254     1.0  0.85878  0.86637  0.07321  1.0000
  C   C3255     1.0  0.85459  0.84498  0.08090  1.0000
  H   H2596     1.0  0.90102  0.80981  0.06578  1.0000
  H   H2597     1.0  0.90814  0.84740  0.05217  1.0000
  H   H2598     1.0  0.84687  0.88214  0.07524  1.0000
  H   H2599     1.0  0.83936  0.84429  0.08865  1.0000
  H   H2600     1.0  0.77281  0.73454  0.14522  1.0000
  H   H2601     1.0  0.98857  0.84626  0.14468  1.0000
  H   H2602     1.0  0.73392  0.74471  0.10487  1.0000
  H   H2603     1.0  0.67787  0.69913  0.21993  1.0000
  C   C3256     1.0  0.95147  0.82053  0.08802  1.0000
  C   C3257     1.0  0.71018  0.77893  0.16733  1.0000
  C   C3258     1.0  0.73433  0.77795  0.16573  1.0000
  C   C3259     1.0  0.74799  0.77861  0.15279  1.0000
  C   C3260     1.0  0.73784  0.77946  0.14129  1.0000
  C   C3261     1.0  0.71369  0.77992  0.14287  1.0000
  C   C3262     1.0  0.69983  0.77970  0.15587  1.0000
  H   H2604     1.0  0.74251  0.77735  0.17450  1.0000
  H   H2605     1.0  0.76636  0.77877  0.15176  1.0000
  H   H2606     1.0  0.70566  0.78080  0.13399  1.0000
  H   H2607     1.0  0.68120  0.78044  0.15700  1.0000
  C   C3263     1.0  0.62272  0.69426  0.20072  1.0000
  C   C3264     1.0  0.62840  0.67013  0.20313  1.0000
  C   C3265     1.0  0.86807  0.98020  0.09021  1.0000
  H   H2608     1.0  0.51735  0.77272  0.15676  1.0000
  C   C3266     1.0  0.61623  0.70568  0.18821  1.0000
  C   C3267     1.0  0.70351  0.68030  0.08841  1.0000
  C   C3268     1.0  0.92333  0.85540  0.09177  1.0000
  H   H2609     1.0  0.61090  0.72420  0.18651  1.0000
  H   H2610     1.0  0.82375  0.81206  0.21868  1.0000
  C   C3269     1.0  0.57498  0.71685  0.14219  1.0000
  C   C3270     1.0  0.78433  0.67482  0.20188  1.0000
  H   H2611     1.0  0.67493  0.70800  0.09358  1.0000
  H   H2612     1.0  0.83229  0.85227  0.13534  1.0000
  H   H2613     1.0  0.92620  0.66495  0.05037  1.0000
  H   H2614     1.0  0.65350  0.68766  0.14751  1.0000
  P   P108      1.0  0.92796  0.82099  0.11469  1.0000
  C   C3271     1.0  0.77355  0.82755  0.17591  1.0000
  H   H2615     1.0  0.66264  0.80590  0.21789  1.0000
  H   H2616     1.0  0.70132  0.80538  0.22389  1.0000
  C   C3272     1.0  0.86227  0.79639  0.16146  1.0000
  C   C3273     1.0  0.86430  0.80472  0.17312  1.0000
  C   C3274     1.0  0.88594  0.80114  0.17760  1.0000
  C   C3275     1.0  0.90586  0.78952  0.17024  1.0000
  C   C3276     1.0  0.90397  0.78129  0.15849  1.0000
  C   C3277     1.0  0.88219  0.78459  0.15415  1.0000
  H   H2617     1.0  0.84905  0.81400  0.17870  1.0000
  H   H2618     1.0  0.88724  0.80771  0.18662  1.0000
  H   H2619     1.0  0.91937  0.77243  0.15273  1.0000
  H   H2620     1.0  0.88093  0.77836  0.14505  1.0000
  H   H2621     1.0  0.88902  0.66743  0.13459  1.0000
  C   C3278     1.0  0.95207  0.80981  0.01796  1.0000
  H   H2622     1.0  0.73216  0.73084  0.15393  1.0000
  H   H2623     1.0  0.66110  0.71235  0.17136  1.0000
  C   C3279     1.0  0.71742  0.66974  0.07761  1.0000
  C   C3280     1.0  0.68181  0.70749  0.07204  1.0000
  H   H2624     1.0  0.89466  0.95612  0.04911  1.0000
  H   H2625     1.0  0.87835  0.71581  0.18362  1.0000
  C   C3281     1.0  0.70043  0.71272  0.18659  1.0000
  C   C3282     1.0  0.69242  0.71522  0.20021  1.0000
  H   H2626     1.0  0.70514  0.72756  0.17940  1.0000
  H   H2627     1.0  0.69116  0.73177  0.20339  1.0000
  H   H2628     1.0  0.98988  0.91649  0.02826  1.0000
  C   C3283     1.0  0.78665  0.69846  0.15120  1.0000
  C   C3284     1.0  0.70150  0.69159  0.18223  1.0000
  S   S465      1.0  0.96108  0.77326  0.20826  1.0000
  H   H2629     1.0  0.71598  0.71701  0.13680  1.0000
  H   H2630     1.0  0.93422  0.80870  0.01758  1.0000
  H   H2631     1.0  0.79535  0.66204  0.15870  1.0000
  C   C3285     1.0  0.93449  0.83309  0.09685  1.0000
  H   H2632     1.0  0.96250  0.81156  0.99637  1.0000
  C   C3286     1.0  0.71341  0.67790  0.06418  1.0000
  H   H2633     1.0  0.87633  0.97171  0.99338  1.0000
  C   C3287     1.0  0.98145  0.81306  0.03073  1.0000
  S   S466      1.0  0.93147  0.88089  0.98555  1.0000
  H   H2634     1.0  0.85796  0.74764  0.20573  1.0000
  S   S467      1.0  0.89939  0.66848  0.20392  1.0000
  C   C3288     1.0  0.94067  0.69432  0.17350  1.0000
  H   H2635     1.0  0.87973  0.68103  0.08678  1.0000
  C   C3289     1.0  0.85778  0.71345  0.16871  1.0000
  C   C3290     1.0  0.83685  0.70868  0.16661  1.0000
  C   C3291     1.0  0.82031  0.70212  0.17770  1.0000
  H   H2636     1.0  0.98744  0.86395  0.12043  1.0000
  C   C3292     1.0  0.51461  0.68684  0.17212  1.0000
  H   H2637     1.0  0.82766  0.70992  0.10719  1.0000
  H   H2638     1.0  0.87035  0.71872  0.16003  1.0000
  H   H2639     1.0  0.83337  0.71044  0.15633  1.0000
  H   H2640     1.0  0.80391  0.69918  0.17582  1.0000
  C   C3293     1.0  0.75815  0.67461  0.16233  1.0000
  H   H2641     1.0  0.78911  0.76669  0.22270  1.0000
  H   H2642     1.0  0.80945  0.72690  0.22064  1.0000
  Fe  Fe235     1.0  0.95662  0.80604  0.21686  1.0000
  C   C3294     1.0  0.92873  0.86474  0.07801  1.0000
  H   H2643     1.0  0.97707  0.85607  0.98997  1.0000
  C   C3295     1.0  0.95699  0.83005  0.07429  1.0000
  C   C3296     1.0  0.84830  0.86600  0.18360  1.0000
  H   H2644     1.0  0.83902  0.84070  0.20065  1.0000
  C   C3297     1.0  0.68522  0.69674  0.20955  1.0000
  H   H2645     1.0  0.94605  0.80987  0.03964  1.0000
  H   H2646     1.0  0.84379  0.84428  0.11161  1.0000
  H   H2647     1.0  0.79097  0.82666  0.17009  1.0000
  H   H2648     1.0  0.86247  0.84774  0.14999  1.0000
  C   C3298     1.0  0.53418  0.73412  0.17903  1.0000
  C   C3299     1.0  0.56446  0.72979  0.15265  1.0000
  C   C3300     1.0  0.68468  0.65557  0.16419  1.0000
  H   H2649     1.0  0.56776  0.70242  0.14085  1.0000
  C   C3301     1.0  0.75524  0.82588  0.16947  1.0000
  C   C3302     1.0  0.55681  0.67754  0.16914  1.0000
  C   C3303     1.0  0.62096  0.66886  0.18059  1.0000
  C   C3304     1.0  0.87043  0.95732  0.03565  1.0000
  C   C3305     1.0  0.79373  0.65785  0.19351  1.0000
  H   H2650     1.0  0.98636  0.81482  0.04021  1.0000
  C   C3306     1.0  0.90581  0.66441  0.12819  1.0000
  H   H2651     1.0  0.84972  0.66636  0.21006  1.0000
  P   P109      1.0  0.70985  0.68993  0.16430  1.0000
  C   C3307     1.0  0.73999  0.69364  0.16021  1.0000
  C   C3308     1.0  0.69082  0.71283  0.15514  1.0000
  C   C3309     1.0  0.69850  0.72279  0.14176  1.0000
  C   C3310     1.0  0.68370  0.74048  0.13471  1.0000
  C   C3311     1.0  0.66090  0.74799  0.14086  1.0000
  C   C3312     1.0  0.65276  0.73744  0.15396  1.0000
  C   C3313     1.0  0.66768  0.72005  0.16113  1.0000
  C   C3314     1.0  0.74562  0.71551  0.15479  1.0000
  C   C3315     1.0  0.76881  0.71778  0.15004  1.0000
  C   C3316     1.0  0.95875  0.81042  0.03039  1.0000
  C   C3317     1.0  0.84470  0.76313  0.20473  1.0000
  C   C3318     1.0  0.67750  0.68083  0.12919  1.0000
  H   H2652     1.0  0.61050  0.70185  0.16840  1.0000
  C   C3319     1.0  0.99311  0.86017  0.98381  1.0000
  H   H2653     1.0  0.89734  0.96895  0.07545  1.0000
  C   C3320     1.0  0.96819  0.81140  0.00594  1.0000
  C   C3321     1.0  0.81184  0.80435  0.20133  1.0000
  C   C3322     1.0  0.82521  0.79961  0.21195  1.0000
  C   C3323     1.0  0.76251  0.76597  0.21102  1.0000
  C   C3324     1.0  0.91832  0.75719  0.11043  1.0000
  C   C3325     1.0  0.97659  0.85129  0.12527  1.0000
  H   H2654     1.0  0.90358  0.83501  0.14133  1.0000
  C   C3326     1.0  0.93434  0.74186  0.11788  1.0000
  C   C3327     1.0  0.51493  0.66370  0.13389  1.0000
  C   C3328     1.0  0.85703  0.84256  0.11795  1.0000
  H   H2655     1.0  0.88493  0.83099  0.10263  1.0000
  H   H2656     1.0  0.63339  0.66124  0.21279  1.0000
  C   C3329     1.0  0.91157  0.67703  0.22697  1.0000
  C   C3330     1.0  0.93195  0.71600  0.16649  1.0000
  C   C3331     1.0  0.52969  0.80327  0.17057  1.0000
  C   C3332     1.0  0.88047  0.83491  0.11292  1.0000
  H   H2657     1.0  0.95980  0.78037  0.12757  1.0000
  C   C3333     1.0  0.94915  0.75044  0.12406  1.0000
  C   C3334     1.0  0.91877  0.69730  0.15091  1.0000
  C   C3335     1.0  0.90971  0.68493  0.21321  1.0000
  H   H2658     1.0  0.69260  0.70309  0.05097  1.0000
  H   H2659     1.0  0.90139  0.97855  0.00815  1.0000
  C   C3336     1.0  0.76941  0.83016  0.18973  1.0000
  C   C3337     1.0  0.90323  0.67566  0.06813  1.0000
  C   C3338     1.0  0.63749  0.67478  0.13391  1.0000
  S   S468      1.0  0.86683  0.83265  0.22763  1.0000
  H   H2660     1.0  0.93524  0.72337  0.11884  1.0000
  C   C3339     1.0  0.94774  0.77434  0.12295  1.0000
  H   H2661     1.0  0.69185  0.68550  0.13251  1.0000
  C   C3340     1.0  0.85056  0.84733  0.13126  1.0000
  C   C3341     1.0  0.50921  0.76339  0.15145  1.0000
  C   C3342     1.0  0.69526  0.67272  0.19181  1.0000
  C   C3343     1.0  0.95939  0.98042  0.06273  1.0000
  C   C3344     1.0  0.78246  0.75650  0.21708  1.0000
  C   C3345     1.0  0.93098  0.78992  0.11594  1.0000
  H   H2662     1.0  0.91033  0.86557  0.09836  1.0000
  H   H2663     1.0  0.78798  0.86791  0.17350  1.0000
  C   C3346     1.0  0.72281  0.71236  0.10536  1.0000
  H   H2664     1.0  0.72509  0.72693  0.22511  1.0000
  C   C3347     1.0  0.79396  0.73388  0.21591  1.0000
  H   H2665     1.0  0.85334  0.89137  0.16561  1.0000
  C   C3348     1.0  0.80486  0.86690  0.17637  1.0000
  H   H2666     1.0  0.81460  0.89250  0.15931  1.0000
  C   C3349     1.0  0.84163  0.88054  0.17190  1.0000
  C   C3350     1.0  0.81985  0.88112  0.16834  1.0000
  S   S469      1.0  0.98868  0.82218  0.21584  1.0000
  H   H2667     1.0  0.75860  0.82365  0.15883  1.0000
  H   H2668     1.0  0.60248  0.71297  0.12505  1.0000
  C   C3351     1.0  0.74665  0.83070  0.19702  1.0000
  C   C3352     1.0  0.93827  0.67412  0.16933  1.0000
  H   H2669     1.0  0.66810  0.72220  0.06986  1.0000
  C   C3353     1.0  0.91662  0.78107  0.10947  1.0000
  H   H2670     1.0  0.90681  0.75069  0.10554  1.0000
  C   C3354     1.0  0.81177  0.85161  0.18789  1.0000
  C   C3355     1.0  0.66185  0.66628  0.11276  1.0000
  C   C3356     1.0  0.59459  0.72281  0.13321  1.0000
  H   H2671     1.0  0.80452  0.70023  0.14712  1.0000
  H   H2672     1.0  0.61887  0.74637  0.12760  1.0000
  P   P110      1.0  0.79317  0.83226  0.19809  1.0000
  H   H2673     1.0  0.86560  0.70504  0.22635  1.0000
  H   H2674     1.0  0.54585  0.80541  0.20070  1.0000
  C   C3357     1.0  0.89109  0.83727  0.13451  1.0000
  H   H2675     1.0  0.50286  0.80970  0.20790  1.0000
  H   H2676     1.0  0.90396  0.79253  0.10369  1.0000
  C   C3358     1.0  0.73269  0.82660  0.17678  1.0000
  C   C3359     1.0  0.72844  0.82878  0.19057  1.0000
  C   C3360     1.0  0.60377  0.74172  0.13460  1.0000
  H   H2677     1.0  0.96146  0.85321  0.10739  1.0000
  H   H2678     1.0  0.74277  0.83239  0.20771  1.0000
  H   H2679     1.0  0.75339  0.78337  0.21214  1.0000
  H   H2680     1.0  0.91390  0.71264  0.19640  1.0000
  H   H2681     1.0  0.96342  0.81755  0.15583  1.0000
  H   H2682     1.0  0.92950  0.67216  0.09465  1.0000
  H   H2683     1.0  0.49669  0.65816  0.17979  1.0000
  C   C3361     1.0  0.74441  0.67861  0.11788  1.0000
  C   C3362     1.0  0.75446  0.71630  0.11629  1.0000
  H   H2684     1.0  0.71099  0.82876  0.19626  1.0000
  H   H2685     1.0  0.71854  0.82495  0.17184  1.0000
  C   C3363     1.0  0.59313  0.75494  0.14485  1.0000
  C   C3364     1.0  0.82475  0.69999  0.19106  1.0000
  H   H2686     1.0  0.89290  0.66024  0.17746  1.0000
  C   C3365     1.0  0.57339  0.74919  0.15372  1.0000
  H   H2687     1.0  0.59981  0.76995  0.14585  1.0000
  C   C3366     1.0  0.83120  0.76751  0.19428  1.0000
  C   C3367     1.0  0.78592  0.72076  0.20832  1.0000
  C   C3368     1.0  0.83337  0.85178  0.19164  1.0000
  H   H2688     1.0  0.66402  0.65978  0.10323  1.0000
  C   C3369     1.0  0.54455  0.80297  0.17993  1.0000
  C   C3370     1.0  0.91819  0.83808  0.99215  1.0000
  P   P111      1.0  0.53736  0.72416  0.16297  1.0000
  P   P112      1.0  0.80269  0.69287  0.20534  1.0000
  C   C3371     1.0  0.86215  0.71195  0.18196  1.0000
  C   C3372     1.0  0.76633  0.73065  0.20184  1.0000
  C   C3373     1.0  0.75442  0.75303  0.20342  1.0000
  H   H2689     1.0  0.73907  0.76050  0.19858  1.0000
  H   H2690     1.0  0.86515  0.86550  0.18644  1.0000
  H   H2691     1.0  0.56497  0.76021  0.16127  1.0000
  H   H2692     1.0  0.83392  0.75557  0.18710  1.0000
  C   C3374     1.0  0.81474  0.78793  0.19263  1.0000
  H   H2693     1.0  0.76037  0.72132  0.19540  1.0000
  C   C3375     1.0  0.89097  0.66838  0.08091  1.0000
  C   C3376     1.0  0.78141  0.67696  0.15763  1.0000
  H   H2694     1.0  0.57058  0.72219  0.18107  1.0000
  C   C3377     1.0  0.92771  0.67545  0.15782  1.0000
  C   C3378     1.0  0.92090  0.71746  0.15524  1.0000
  H   H2695     1.0  0.92823  0.68604  0.00570  1.0000
  C   C3379     1.0  0.70946  0.72272  0.23173  1.0000
  C   C3380     1.0  0.84151  0.77913  0.21362  1.0000
  H   H2696     1.0  0.96168  0.73856  0.12979  1.0000
  H   H2697     1.0  0.74800  0.66022  0.12153  1.0000
  H   H2698     1.0  0.80513  0.79106  0.18420  1.0000
  C   C3381     1.0  0.94896  0.65820  0.11130  1.0000
  H   H2699     1.0  0.56718  0.73670  0.20268  1.0000
  C   C3382     1.0  0.94751  0.82881  0.12412  1.0000
  C   C3383     1.0  0.68689  0.67542  0.20542  1.0000
  C   C3384     1.0  0.92502  0.71889  0.21419  1.0000
  H   H2700     1.0  0.94735  0.85637  0.22347  1.0000
  H   H2701     1.0  0.78505  0.87823  0.20627  1.0000
  H   H2702     1.0  0.93751  0.80651  0.14299  1.0000
  C   C3385     1.0  0.97153  0.96804  0.05234  1.0000
  C   C3386     1.0  0.78167  0.84259  0.21409  1.0000
  Fe  Fe236     1.0  0.90294  0.81179  0.22184  1.0000
  C   C3387     1.0  0.53471  0.80520  0.19344  1.0000
  H   H2703     1.0  0.53708  0.80223  0.16003  1.0000
  H   H2704     1.0  0.96977  0.95716  0.03351  1.0000
  C   C3388     1.0  0.86760  0.84482  0.13950  1.0000
  H   H2705     1.0  0.91358  0.73423  0.15001  1.0000
  C   C3389     1.0  0.55372  0.73062  0.18562  1.0000
  H   H2706     1.0  0.93030  0.73498  0.20916  1.0000
  H   H2707     1.0  0.69022  0.75761  0.22856  1.0000
  C   C3390     1.0  0.77939  0.86607  0.21503  1.0000
  C   C3391     1.0  0.91594  0.70612  0.20691  1.0000
  C   C3392     1.0  0.81448  0.67703  0.22039  1.0000
  H   H2708     1.0  0.84882  0.70576  0.20325  1.0000
  C   C3393     1.0  0.49553  0.80722  0.18821  1.0000
  H   H2709     1.0  0.52894  0.75660  0.21316  1.0000
  C   C3394     1.0  0.55179  0.73857  0.19795  1.0000
  C   C3395     1.0  0.53628  0.69390  0.16794  1.0000
  C   C3396     1.0  0.88167  0.96262  0.98470  1.0000
  H   H2710     1.0  0.87204  0.96510  0.09781  1.0000
  H   H2711     1.0  0.49860  0.69940  0.17185  1.0000
  C   C3397     1.0  0.51517  0.73925  0.15284  1.0000
  P   P113      1.0  0.70870  0.67039  0.10583  1.0000
  S   S470      1.0  0.95181  0.96526  0.00771  1.0000
  H   H2712     1.0  0.85218  0.77621  0.22157  1.0000
  H   H2713     1.0  0.97005  0.82034  0.06747  1.0000
  C   C3398     1.0  0.70586  0.66353  0.15959  1.0000
  C   C3399     1.0  0.68610  0.80613  0.23173  1.0000
  H   H2714     1.0  0.94971  0.85939  0.05861  1.0000
  H   H2715     1.0  0.89879  0.69129  0.02640  1.0000
  C   C3400     1.0  0.75811  0.69255  0.12109  1.0000
  H   H2716     1.0  0.99098  0.77260  0.99404  1.0000
  C   C3401     1.0  0.53647  0.68984  0.22068  1.0000
  C   C3402     1.0  0.51030  0.80768  0.19749  1.0000
  C   C3403     1.0  0.68575  0.69936  0.08548  1.0000
  H   H2717     1.0  0.52770  0.69179  0.21195  1.0000
  H   H2718     1.0  0.70917  0.72049  0.09936  1.0000
  C   C3404     1.0  0.57276  0.68178  0.22982  1.0000
  H   H2719     1.0  0.57065  0.68181  0.20881  1.0000
  C   C3405     1.0  0.94838  0.81896  0.13785  1.0000
  H   H2720     1.0  0.72418  0.66961  0.05592  1.0000
  C   C3406     1.0  0.62751  0.65742  0.19307  1.0000
  C   C3407     1.0  0.77375  0.82733  0.22555  1.0000
  H   H2721     1.0  0.91955  0.88165  0.07401  1.0000
  C   C3408     1.0  0.65590  0.68192  0.13772  1.0000
  C   C3409     1.0  0.76181  0.67492  0.20937  1.0000
  C   C3410     1.0  0.96314  0.82520  0.14520  1.0000
  C   C3411     1.0  0.92609  0.65518  0.13403  1.0000
  H   H2722     1.0  0.93333  0.73166  0.16997  1.0000
  H   H2723     1.0  0.50998  0.70889  0.14592  1.0000
  H   H2724     1.0  0.87247  0.93866  0.03690  1.0000
  H   H2725     1.0  0.90604  0.80555  0.99606  1.0000
  H   H2726     1.0  0.77484  0.80927  0.22499  1.0000
  H   H2727     1.0  0.96045  0.80340  0.09171  1.0000
  H   H2728     1.0  0.98120  0.73345  0.22554  1.0000
  C   C3412     1.0  0.90701  0.67040  0.11407  1.0000
  H   H2729     1.0  0.77181  0.68485  0.12718  1.0000
  H   H2730     1.0  0.90965  0.69888  0.14237  1.0000
  C   C3413     1.0  0.99135  0.81297  0.00626  1.0000
  C   C3414     1.0  0.72664  0.68836  0.10995  1.0000
  C   C3415     1.0  0.83789  0.66563  0.21960  1.0000
  C   C3416     1.0  0.68060  0.67307  0.11664  1.0000
  C   C3417     1.0  0.97726  0.84136  0.13892  1.0000
  H   H2731     1.0  0.89111  0.67788  0.10982  1.0000
  C   C3418     1.0  0.73677  0.72621  0.10846  1.0000
  C   C3419     1.0  0.91671  0.81656  0.98902  1.0000
  H   H2732     1.0  0.90173  0.69399  0.06417  1.0000
  H   H2733     1.0  0.76522  0.72708  0.11869  1.0000
  H   H2734     1.0  0.59168  0.67740  0.22833  1.0000
  C   C3420     1.0  0.56087  0.68422  0.21882  1.0000
  C   C3421     1.0  0.90514  0.67418  0.02363  1.0000
  C   C3422     1.0  0.66420  0.80630  0.22832  1.0000
  H   H2735     1.0  0.73133  0.65518  0.07943  1.0000
  C   C3423     1.0  0.76973  0.87404  0.22737  1.0000
  C   C3424     1.0  0.96038  0.96659  0.04164  1.0000
  C   C3425     1.0  0.92174  0.67121  0.01198  1.0000
  C   C3426     1.0  0.92858  0.66729  0.10560  1.0000
  C   C3427     1.0  0.93709  0.97732  0.04134  1.0000
  H   H2736     1.0  0.81138  0.65680  0.18816  1.0000
  H   H2737     1.0  0.92881  0.97623  0.03290  1.0000
  H   H2738     1.0  0.49684  0.74672  0.18062  1.0000
  C   C3428     1.0  0.64041  0.66705  0.12141  1.0000
  C   C3429     1.0  0.51032  0.75185  0.19786  1.0000
  H   H2739     1.0  0.98143  0.69208  0.23319  1.0000
  H   H2740     1.0  0.94874  0.69311  0.18244  1.0000
  H   H2741     1.0  0.84533  0.96336  0.02195  1.0000
  H   H2742     1.0  0.69634  0.65609  0.18886  1.0000
  C   C3430     1.0  0.85497  0.97126  0.02729  1.0000
  Fe  Fe237     1.0  0.93302  0.76431  0.22547  1.0000
  H   H2743     1.0  0.62618  0.66122  0.11858  1.0000
  C   C3431     1.0  0.93628  0.85319  0.23323  1.0000
  H   H2744     1.0  0.73878  0.65827  0.14590  1.0000
  H   H2745     1.0  0.96572  0.65595  0.10475  1.0000
  C   C3432     1.0  0.79938  0.67375  0.23282  1.0000
  H   H2746     1.0  0.67084  0.66472  0.17090  1.0000
  C   C3433     1.0  0.99279  0.72388  0.23258  1.0000
  H   H2747     1.0  0.90455  0.87028  0.22545  1.0000
  C   C3434     1.0  0.92659  0.71113  0.22801  1.0000
  H   H2748     1.0  0.94423  0.65755  0.17527  1.0000
  H   H2749     1.0  0.73178  0.65820  0.21452  1.0000
  H   H2750     1.0  0.75435  0.65782  0.16721  1.0000
  H   H2751     1.0  0.76814  0.89211  0.22810  1.0000
  C   C3435     1.0  0.89659  0.65510  0.03165  1.0000
  C   C3436     1.0  0.88250  0.98255  0.07755  1.0000
  H   H2752     1.0  0.96808  0.98165  0.07099  1.0000
  H   H2753     1.0  0.88315  0.73886  0.22675  1.0000
  H   H2754     1.0  0.84597  0.65949  0.14156  1.0000
  H   H2755     1.0  0.52870  0.67322  0.12903  1.0000
  C   C3437     1.0  0.91700  0.65929  0.06037  1.0000
  H   H2756     1.0  0.98959  0.95960  0.05251  1.0000
  C   C3438     1.0  0.55564  0.65427  0.17396  1.0000
  C   C3439     1.0  0.81519  0.65556  0.11719  1.0000
  H   H2757     1.0  0.68128  0.66115  0.21275  1.0000
  C   C3440     1.0  0.74885  0.65852  0.20838  1.0000
  H   H2758     1.0  0.90561  0.66130  0.23209  1.0000
  C   C3441     1.0  0.61711  0.72475  0.25432  1.0000
  H   H2759     1.0  0.67457  0.75183  0.42932  1.0000
  P   P114      1.0  0.50915  0.96784  0.47383  1.0000
  H   H2760     1.0  0.61022  0.90124  0.33802  1.0000
  S   S471      1.0  0.59240  0.93245  0.39147  1.0000
  Fe  Fe238     1.0  0.64963  0.90364  0.37177  1.0000
  S   S472      1.0  0.61802  0.88676  0.37751  1.0000
  H   H2761     1.0  0.73663  0.66740  0.29726  1.0000
  Fe  Fe239     1.0  0.59822  0.92222  0.37085  1.0000
  H   H2762     1.0  0.91979  0.73118  0.26766  1.0000
  Fe  Fe240     1.0  0.61526  0.89862  0.39760  1.0000
  S   S473      1.0  0.60282  0.87703  0.41739  1.0000
  S   S474      1.0  0.64812  0.91341  0.39246  1.0000
  Fe  Fe241     1.0  0.76290  0.80687  0.28515  1.0000
  Fe  Fe242     1.0  0.72486  0.77893  0.29877  1.0000
  S   S475      1.0  0.69626  0.80456  0.28959  1.0000
  S   S476      1.0  0.72111  0.74416  0.31138  1.0000
  Fe  Fe243     1.0  0.71332  0.83103  0.29499  1.0000
  S   S477      1.0  0.68839  0.86195  0.30237  1.0000
  C   C3442     1.0  0.66326  0.97192  0.45857  1.0000
  S   S478      1.0  0.74002  0.80513  0.30575  1.0000
  H   H2763     1.0  0.57939  0.65651  0.43241  1.0000
  H   H2764     1.0  0.63311  0.76749  0.40520  1.0000
  C   C3443     1.0  0.53593  0.69114  0.24455  1.0000
  H   H2765     1.0  0.69194  0.95136  0.25062  1.0000
  C   C3444     1.0  0.76338  0.85687  0.46801  1.0000
  C   C3445     1.0  0.52299  0.86133  0.33703  1.0000
  H   H2766     1.0  0.64358  0.79084  0.38285  1.0000
  H   H2767     1.0  0.97512  0.85011  0.25992  1.0000
  C   C3446     1.0  0.49785  0.69024  0.46136  1.0000
  H   H2768     1.0  0.65002  0.93770  0.31303  1.0000
  C   C3447     1.0  0.60915  0.85570  0.34575  1.0000
  H   H2769     1.0  0.54604  0.82098  0.46577  1.0000
  C   C3448     1.0  0.78587  0.87868  0.26715  1.0000
  H   H2770     1.0  0.62261  0.75164  0.26433  1.0000
  H   H2771     1.0  0.60733  0.93670  0.47355  1.0000
  H   H2772     1.0  0.58478  0.95546  0.29770  1.0000
  C   C3449     1.0  0.83530  0.66565  0.27371  1.0000
  S   S479      1.0  0.66546  0.84715  0.46428  1.0000
  H   H2773     1.0  0.56534  0.68052  0.45045  1.0000
  S   S480      1.0  0.56872  0.93380  0.35858  1.0000
  C   C3450     1.0  0.98763  0.79587  0.27794  1.0000
  C   C3451     1.0  0.50608  0.91532  0.36164  1.0000
  C   C3452     1.0  0.55677  0.67761  0.41867  1.0000
  H   H2774     1.0  0.90042  0.79795  0.28025  1.0000
  H   H2775     1.0  0.65177  0.90740  0.44761  1.0000
  H   H2776     1.0  0.69565  0.87523  0.27391  1.0000
  H   H2777     1.0  0.57754  0.85066  0.30262  1.0000
  H   H2778     1.0  0.65154  0.89930  0.34213  1.0000
  C   C3453     1.0  0.66418  0.70407  0.28162  1.0000
  C   C3454     1.0  0.74406  0.95122  0.26022  1.0000
  H   H2779     1.0  0.57831  0.83186  0.32972  1.0000
  C   C3455     1.0  0.66856  0.80801  0.25522  1.0000
  H   H2780     1.0  0.79186  0.83135  0.25799  1.0000
  C   C3456     1.0  0.96593  0.65716  0.25740  1.0000
  S   S481      1.0  0.63010  0.93830  0.36333  1.0000
  C   C3457     1.0  0.70342  0.92759  0.29359  1.0000
  H   H2781     1.0  0.50640  0.80169  0.46276  1.0000
  C   C3458     1.0  0.53910  0.69700  0.41681  1.0000
  H   H2782     1.0  0.52030  0.94668  0.35606  1.0000
  H   H2783     1.0  0.76422  0.85686  0.29956  1.0000
  C   C3459     1.0  0.52382  0.89908  0.39833  1.0000
  H   H2784     1.0  0.97956  0.78150  0.28345  1.0000
  H   H2785     1.0  0.99451  0.73914  0.27468  1.0000
  H   H2786     1.0  0.72227  0.69388  0.35876  1.0000
  C   C3460     1.0  0.54076  0.70557  0.43913  1.0000
  C   C3461     1.0  0.67303  0.76168  0.43747  1.0000
  H   H2787     1.0  0.52663  0.69421  0.25453  1.0000
  C   C3462     1.0  0.76482  0.86763  0.28961  1.0000
  P   P115      1.0  0.62680  0.77748  0.43351  1.0000
  H   H2788     1.0  0.56965  0.68359  0.25115  1.0000
  C   C3463     1.0  0.76409  0.83539  0.23783  1.0000
  C   C3464     1.0  0.72249  0.72486  0.30009  1.0000
  C   C3465     1.0  0.71752  0.73371  0.28695  1.0000
  C   C3466     1.0  0.71978  0.71887  0.27752  1.0000
  C   C3467     1.0  0.72691  0.69501  0.28111  1.0000
  C   C3468     1.0  0.73107  0.68583  0.29444  1.0000
  C   C3469     1.0  0.72901  0.70085  0.30393  1.0000
  H   H2789     1.0  0.71184  0.75209  0.28401  1.0000
  H   H2790     1.0  0.71579  0.72601  0.26738  1.0000
  H   H2791     1.0  0.56300  0.66673  0.41083  1.0000
  H   H2792     1.0  0.73300  0.69397  0.31409  1.0000
  H   H2793     1.0  0.70890  0.74946  0.44038  1.0000
  C   C3470     1.0  0.60448  0.93634  0.32808  1.0000
  C   C3471     1.0  0.68430  0.87729  0.34552  1.0000
  C   C3472     1.0  0.66641  0.88753  0.33787  1.0000
  C   C3473     1.0  0.66792  0.88266  0.32465  1.0000
  C   C3474     1.0  0.68712  0.86736  0.31906  1.0000
  C   C3475     1.0  0.70488  0.85689  0.32676  1.0000
  C   C3476     1.0  0.70352  0.86197  0.33994  1.0000
  C   C3477     1.0  0.55534  0.90105  0.46081  1.0000
  H   H2794     1.0  0.65397  0.89049  0.31884  1.0000
  H   H2795     1.0  0.71976  0.84511  0.32254  1.0000
  H   H2796     1.0  0.71740  0.85402  0.34583  1.0000
  C   C3478     1.0  0.62101  0.86922  0.43001  1.0000
  C   C3479     1.0  0.61094  0.86240  0.44342  1.0000
  C   C3480     1.0  0.62444  0.85654  0.45392  1.0000
  C   C3481     1.0  0.64849  0.85610  0.45103  1.0000
  C   C3482     1.0  0.65878  0.86276  0.43756  1.0000
  C   C3483     1.0  0.64499  0.86962  0.42706  1.0000
  H   H2797     1.0  0.59256  0.86177  0.44571  1.0000
  H   H2798     1.0  0.61608  0.85241  0.46426  1.0000
  H   H2799     1.0  0.67737  0.86262  0.43525  1.0000
  H   H2800     1.0  0.65298  0.87482  0.41670  1.0000
  C   C3484     1.0  0.56031  0.68527  0.24267  1.0000
  H   H2801     1.0  0.55903  0.84039  0.44237  1.0000
  C   C3485     1.0  0.87053  0.73321  0.23524  1.0000
  H   H2802     1.0  0.80167  0.87648  0.25975  1.0000
  C   C3486     1.0  0.57896  0.75741  0.24585  1.0000
  C   C3487     1.0  0.52222  0.92203  0.39997  1.0000
  C   C3488     1.0  0.74757  0.97322  0.25353  1.0000
  C   C3489     1.0  0.68983  0.74002  0.23369  1.0000
  H   H2803     1.0  0.57242  0.73418  0.45431  1.0000
  C   C3490     1.0  0.64466  0.66855  0.24484  1.0000
  H   H2804     1.0  0.92036  0.68460  0.24514  1.0000
  C   C3491     1.0  0.62300  0.85438  0.27674  1.0000
  H   H2805     1.0  0.60557  0.70890  0.28288  1.0000
  C   C3492     1.0  0.53506  0.95309  0.42098  1.0000
  C   C3493     1.0  0.63373  0.79415  0.41686  1.0000
  C   C3494     1.0  0.66302  0.93354  0.30436  1.0000
  H   H2806     1.0  0.72429  0.68668  0.23732  1.0000
  C   C3495     1.0  0.51694  0.76686  0.45836  1.0000
  C   C3496     1.0  0.61170  0.74672  0.25832  1.0000
  H   H2807     1.0  0.97392  0.71026  0.29058  1.0000
  C   C3497     1.0  0.56840  0.86919  0.32642  1.0000
  H   H2808     1.0  0.59265  0.86596  0.34953  1.0000
  H   H2809     1.0  0.65662  0.82024  0.35743  1.0000
  C   C3498     1.0  0.72432  0.94287  0.25892  1.0000
  C   C3499     1.0  0.52052  0.80108  0.44153  1.0000
  H   H2810     1.0  0.50611  0.65761  0.25520  1.0000
  C   C3500     1.0  0.52848  0.94287  0.46783  1.0000
  C   C3501     1.0  0.62825  0.87186  0.29536  1.0000
  C   C3502     1.0  0.91992  0.69018  0.23438  1.0000
  C   C3503     1.0  0.53357  0.88042  0.36795  1.0000
  H   H2811     1.0  0.68078  0.70394  0.29882  1.0000
  C   C3504     1.0  0.64352  0.70735  0.30446  1.0000
  S   S482      1.0  0.93410  0.72882  0.23773  1.0000
  H   H2812     1.0  0.60892  0.94280  0.33638  1.0000
  C   C3505     1.0  0.52511  0.96857  0.41045  1.0000
  C   C3506     1.0  0.54209  0.69772  0.47761  1.0000
  H   H2813     1.0  0.53150  0.70112  0.40751  1.0000
  H   H2814     1.0  0.95981  0.73836  0.25877  1.0000
  C   C3507     1.0  0.81991  0.80949  0.26741  1.0000
  H   H2815     1.0  0.65130  0.83054  0.38151  1.0000
  C   C3508     1.0  0.64300  0.70579  0.27696  1.0000
  C   C3509     1.0  0.70832  0.89101  0.23456  1.0000
  C   C3510     1.0  0.76658  0.76131  0.24993  1.0000
  P   P116      1.0  0.71902  0.91495  0.26788  1.0000
  C   C3511     1.0  0.54715  0.71347  0.46575  1.0000
  C   C3512     1.0  0.65649  0.92763  0.29310  1.0000
  C   C3513     1.0  0.76203  0.85868  0.23876  1.0000
  H   H2816     1.0  0.93153  0.79336  0.29938  1.0000
  C   C3514     1.0  0.59267  0.76292  0.25412  1.0000
  H   H2817     1.0  0.52943  0.90185  0.44840  1.0000
  H   H2818     1.0  0.57293  0.98455  0.37840  1.0000
  C   C3515     1.0  0.62209  0.70791  0.28624  1.0000
  C   C3516     1.0  0.62354  0.84270  0.35503  1.0000
  H   H2819     1.0  0.55513  0.94147  0.48017  1.0000
  P   P117      1.0  0.49773  0.96492  0.40643  1.0000
  H   H2820     1.0  0.56286  0.94393  0.43282  1.0000
  S   S483      1.0  0.93042  0.79560  0.23515  1.0000
  C   C3517     1.0  0.74478  0.88297  0.28607  1.0000
  S   S484      1.0  0.73139  0.67787  0.26828  1.0000
  C   C3518     1.0  0.68569  0.91238  0.44979  1.0000
  C   C3519     1.0  0.53341  0.76302  0.43490  1.0000
  C   C3520     1.0  0.63877  0.65809  0.26945  1.0000
  C   C3521     1.0  0.97436  0.81543  0.27108  1.0000
  C   C3522     1.0  0.70140  0.70982  0.34304  1.0000
  H   H2821     1.0  0.69174  0.91508  0.43890  1.0000
  C   C3523     1.0  0.58411  0.73556  0.24191  1.0000
  H   H2822     1.0  0.51180  0.75933  0.46886  1.0000
  H   H2823     1.0  0.59954  0.72210  0.47122  1.0000
  H   H2824     1.0  0.60803  0.68891  0.43121  1.0000
  H   H2825     1.0  0.89013  0.76104  0.27837  1.0000
  H   H2826     1.0  0.56791  0.78259  0.47468  1.0000
  H   H2827     1.0  0.63882  0.88049  0.29964  1.0000
  H   H2828     1.0  0.75819  0.82352  0.24668  1.0000
  S   S485      1.0  0.65714  0.68762  0.46962  1.0000
  H   H2829     1.0  0.70272  0.72733  0.34376  1.0000
  H   H2830     1.0  0.63834  0.92745  0.29299  1.0000
  C   C3524     1.0  0.70896  0.70012  0.23846  1.0000
  C   C3525     1.0  0.66440  0.70498  0.29532  1.0000
  C   C3526     1.0  0.50025  0.93600  0.40292  1.0000
  H   H2831     1.0  0.64375  0.70818  0.31504  1.0000
  H   H2832     1.0  0.74721  0.93519  0.47029  1.0000
  H   H2833     1.0  0.60688  0.70263  0.24280  1.0000
  C   C3527     1.0  0.52174  0.93168  0.45864  1.0000
  H   H2834     1.0  0.87134  0.76034  0.24621  1.0000
  H   H2835     1.0  0.54144  0.75263  0.42705  1.0000
  C   C3528     1.0  0.62038  0.95825  0.44514  1.0000
  C   C3529     1.0  0.63811  0.95724  0.43371  1.0000
  C   C3530     1.0  0.63928  0.94198  0.42466  1.0000
  C   C3531     1.0  0.62316  0.92725  0.42708  1.0000
  C   C3532     1.0  0.60589  0.92769  0.43853  1.0000
  C   C3533     1.0  0.60379  0.94390  0.44717  1.0000
  C   C3534     1.0  0.52714  0.88392  0.33308  1.0000
  H   H2836     1.0  0.51650  0.72513  0.42576  1.0000
  H   H2837     1.0  0.58918  0.78016  0.25678  1.0000
  C   C3535     1.0  0.53087  0.71073  0.42708  1.0000
  C   C3536     1.0  0.60091  0.79155  0.44335  1.0000
  H   H2838     1.0  0.50478  0.87260  0.39746  1.0000
  C   C3537     1.0  0.60918  0.97243  0.47375  1.0000
  C   C3538     1.0  0.61627  0.85597  0.33167  1.0000
  C   C3539     1.0  0.60724  0.86625  0.30293  1.0000
  S   S486      1.0  0.71622  0.80712  0.24880  1.0000
  C   C3540     1.0  0.69886  0.88006  0.26295  1.0000
  H   H2839     1.0  0.62378  0.91575  0.41996  1.0000
  H   H2840     1.0  0.59364  0.91596  0.44032  1.0000
  H   H2841     1.0  0.58890  0.94574  0.45512  1.0000
  C   C3541     1.0  0.81035  0.82449  0.25668  1.0000
  C   C3542     1.0  0.68647  0.93346  0.30462  1.0000
  C   C3543     1.0  0.63581  0.78489  0.40483  1.0000
  H   H2842     1.0  0.56507  0.88434  0.45871  1.0000
  H   H2843     1.0  0.59334  0.76307  0.42067  1.0000
  C   C3544     1.0  0.56119  0.81269  0.45945  1.0000
  H   H2844     1.0  0.80062  0.85301  0.28280  1.0000
  C   C3545     1.0  0.55131  0.89343  0.36618  1.0000
  C   C3546     1.0  0.64638  0.82030  0.39131  1.0000
  H   H2845     1.0  0.68575  0.85118  0.25934  1.0000
  C   C3547     1.0  0.63760  0.84224  0.32707  1.0000
  C   C3548     1.0  0.78343  0.85935  0.47252  1.0000
  C   C3549     1.0  0.75720  0.72438  0.24914  1.0000
  C   C3550     1.0  0.69794  0.87186  0.24055  1.0000
  H   H2846     1.0  0.96458  0.67500  0.25857  1.0000
  C   C3551     1.0  0.58821  0.81305  0.43820  1.0000
  C   C3552     1.0  0.71426  0.90454  0.24277  1.0000
  C   C3553     1.0  0.52399  0.92821  0.35946  1.0000
  C   C3554     1.0  0.65198  0.82932  0.33637  1.0000
  C   C3555     1.0  0.68581  0.97669  0.45631  1.0000
  C   C3556     1.0  0.68897  0.70615  0.33348  1.0000
  C   C3557     1.0  0.64434  0.80746  0.23832  1.0000
  H   H2847     1.0  0.71835  0.91482  0.45506  1.0000
  H   H2848     1.0  0.56486  0.77038  0.24215  1.0000
  C   C3558     1.0  0.78629  0.74227  0.30366  1.0000
  C   C3559     1.0  0.80628  0.74382  0.30858  1.0000
  C   C3560     1.0  0.82836  0.73489  0.30199  1.0000
  C   C3561     1.0  0.83045  0.72491  0.29029  1.0000
  C   C3562     1.0  0.81046  0.72449  0.28488  1.0000
  C   C3563     1.0  0.78834  0.73239  0.29195  1.0000
  P   P118      1.0  0.81298  0.71207  0.26969  1.0000
  C   C3564     1.0  0.83735  0.71899  0.25711  1.0000
  C   C3565     1.0  0.81407  0.68137  0.27519  1.0000
  H   H2849     1.0  0.54081  0.88839  0.39604  1.0000
  C   C3566     1.0  0.54944  0.93340  0.47301  1.0000
  H   H2850     1.0  0.69983  0.96368  0.45993  1.0000
  H   H2851     1.0  0.50070  0.78066  0.23507  1.0000
  C   C3567     1.0  0.64509  0.82973  0.35032  1.0000
  C   C3568     1.0  0.84411  0.70708  0.24593  1.0000
  H   H2852     1.0  0.74877  0.97622  0.46987  1.0000
  H   H2853     1.0  0.79562  0.65587  0.25359  1.0000
  C   C3569     1.0  0.86381  0.74534  0.24625  1.0000
  C   C3570     1.0  0.84690  0.73858  0.25705  1.0000
  C   C3571     1.0  0.78894  0.72596  0.26072  1.0000
  C   C3572     1.0  0.78489  0.75012  0.25707  1.0000
  C   C3573     1.0  0.59148  0.91975  0.30719  1.0000
  C   C3574     1.0  0.71258  0.69097  0.35138  1.0000
  C   C3575     1.0  0.51398  0.79092  0.45496  1.0000
  C   C3576     1.0  0.77537  0.71313  0.25635  1.0000
  H   H2854     1.0  0.76917  0.74898  0.30885  1.0000
  H   H2855     1.0  0.80457  0.75195  0.31749  1.0000
  H   H2856     1.0  0.84381  0.73589  0.30590  1.0000
  H   H2857     1.0  0.84763  0.71787  0.28535  1.0000
  H   H2858     1.0  0.77262  0.73115  0.28836  1.0000
  H   H2859     1.0  0.85141  0.67162  0.26911  1.0000
  C   C3577     1.0  0.75232  0.74849  0.24627  1.0000
  C   C3578     1.0  0.54656  0.91731  0.36181  1.0000
  H   H2860     1.0  0.68052  0.70201  0.27472  1.0000
  H   H2861     1.0  0.65450  0.74844  0.24334  1.0000
  H   H2862     1.0  0.83603  0.69278  0.24544  1.0000
  H   H2863     1.0  0.75434  0.86471  0.24831  1.0000
  H   H2864     1.0  0.67868  0.68134  0.32438  1.0000
  H   H2865     1.0  0.51328  0.67682  0.46043  1.0000
  H   H2866     1.0  0.84079  0.74921  0.26501  1.0000
  H   H2867     1.0  0.79548  0.76042  0.26007  1.0000
  C   C3579     1.0  0.65504  0.90494  0.46866  1.0000
  H   H2868     1.0  0.58593  0.91364  0.29913  1.0000
  C   C3580     1.0  0.68837  0.80694  0.24517  1.0000
  H   H2869     1.0  0.77834  0.69452  0.25864  1.0000
  C   C3581     1.0  0.74521  0.89649  0.27305  1.0000
  C   C3582     1.0  0.62091  0.74930  0.43289  1.0000
  C   C3583     1.0  0.60330  0.74760  0.42579  1.0000
  C   C3584     1.0  0.59862  0.72590  0.42517  1.0000
  C   C3585     1.0  0.61123  0.70582  0.43182  1.0000
  C   C3586     1.0  0.62803  0.70747  0.43936  1.0000
  C   C3587     1.0  0.63267  0.72908  0.44007  1.0000
  H   H2870     1.0  0.60302  0.76416  0.46076  1.0000
  H   H2871     1.0  0.57840  0.90458  0.47394  1.0000
  H   H2872     1.0  0.58531  0.72456  0.41951  1.0000
  H   H2873     1.0  0.68077  0.72084  0.32684  1.0000
  H   H2874     1.0  0.63752  0.69190  0.44471  1.0000
  H   H2875     1.0  0.64534  0.72973  0.44633  1.0000
  C   C3588     1.0  0.55575  0.95582  0.42457  1.0000
  C   C3589     1.0  0.91220  0.86107  0.23434  1.0000
  H   H2876     1.0  0.64815  0.84668  0.40260  1.0000
  H   H2877     1.0  0.65267  0.86971  0.27682  1.0000
  C   C3590     1.0  0.70940  0.89924  0.25707  1.0000
  S   S487      1.0  0.61669  0.80801  0.23409  1.0000
  H   H2878     1.0  0.87720  0.80093  0.25237  1.0000
  H   H2879     1.0  0.76428  0.84365  0.46186  1.0000
  H   H2880     1.0  0.53733  0.86189  0.37113  1.0000
  C   C3591     1.0  0.56411  0.84651  0.33054  1.0000
  H   H2881     1.0  0.66027  0.73532  0.46726  1.0000
  C   C3592     1.0  0.90756  0.84351  0.25811  1.0000
  C   C3593     1.0  0.93181  0.83562  0.25713  1.0000
  C   C3594     1.0  0.59397  0.85492  0.29716  1.0000
  P   P119      1.0  0.94351  0.81673  0.27141  1.0000
  C   C3595     1.0  0.58332  0.71559  0.47305  1.0000
  C   C3596     1.0  0.92945  0.82732  0.28701  1.0000
  C   C3597     1.0  0.92595  0.81182  0.29921  1.0000
  C   C3598     1.0  0.91517  0.82012  0.31132  1.0000
  C   C3599     1.0  0.90810  0.84391  0.31136  1.0000
  C   C3600     1.0  0.91196  0.85945  0.29929  1.0000
  C   C3601     1.0  0.92271  0.85121  0.28717  1.0000
  C   C3602     1.0  0.78208  0.87600  0.48076  1.0000
  C   C3603     1.0  0.53061  0.78714  0.43155  1.0000
  H   H2882     1.0  0.72888  0.88357  0.29339  1.0000
  C   C3604     1.0  0.78532  0.86543  0.28015  1.0000
  C   C3605     1.0  0.59074  0.94348  0.30635  1.0000
  C   C3606     1.0  0.93663  0.78888  0.27116  1.0000
  C   C3607     1.0  0.95321  0.77196  0.26499  1.0000
  C   C3608     1.0  0.94725  0.75105  0.26400  1.0000
  C   C3609     1.0  0.92459  0.74702  0.26896  1.0000
  C   C3610     1.0  0.90788  0.76389  0.27493  1.0000
  C   C3611     1.0  0.91382  0.78478  0.27599  1.0000
  H   H2883     1.0  0.53608  0.79512  0.42121  1.0000
  C   C3612     1.0  0.66873  0.71193  0.24880  1.0000
  C   C3613     1.0  0.54146  0.84262  0.33580  1.0000
  H   H2884     1.0  0.89602  0.83931  0.26752  1.0000
  H   H2885     1.0  0.51324  0.73826  0.23943  1.0000
  P   P120      1.0  0.61684  0.98061  0.45548  1.0000
  H   H2886     1.0  0.91230  0.80810  0.32070  1.0000
  H   H2887     1.0  0.89971  0.85032  0.32074  1.0000
  H   H2888     1.0  0.90663  0.87790  0.29934  1.0000
  H   H2889     1.0  0.92578  0.86349  0.27793  1.0000
  H   H2890     1.0  0.72654  0.86844  0.46836  1.0000
  Fe  Fe244     1.0  0.72210  0.80678  0.27033  1.0000
  C   C3614     1.0  0.76589  0.89413  0.26359  1.0000
  H   H2891     1.0  0.87907  0.86148  0.24744  1.0000
  C   C3615     1.0  0.56794  0.72231  0.46351  1.0000
  H   H2892     1.0  0.63763  0.90136  0.47237  1.0000
  C   C3616     1.0  0.64657  0.70757  0.48116  1.0000
  C   C3617     1.0  0.55815  0.68574  0.44102  1.0000
  C   C3618     1.0  0.56611  0.67190  0.43082  1.0000
  H   H2893     1.0  0.50569  0.93866  0.45457  1.0000
  C   C3619     1.0  0.60515  0.91264  0.32899  1.0000
  H   H2894     1.0  0.53820  0.82514  0.33906  1.0000
  C   C3620     1.0  0.79370  0.67313  0.28177  1.0000
  S   S488      1.0  0.80242  0.80224  0.28326  1.0000
  H   H2895     1.0  0.53814  0.92875  0.39886  1.0000
  P   P121      1.0  0.59785  0.87379  0.31985  1.0000
  S   S489      1.0  0.68330  0.88361  0.36196  1.0000
  H   H2896     1.0  0.76286  0.97957  0.25453  1.0000
  H   H2897     1.0  0.60619  0.71045  0.30704  1.0000
  C   C3621     1.0  0.69321  0.86642  0.25473  1.0000
  H   H2898     1.0  0.72149  0.92788  0.29390  1.0000
  H   H2899     1.0  0.77736  0.68509  0.28348  1.0000
  H   H2900     1.0  0.76644  0.90384  0.25337  1.0000
  H   H2901     1.0  0.65244  0.94181  0.41562  1.0000
  C   C3622     1.0  0.65161  0.77542  0.44189  1.0000
  H   H2902     1.0  0.96448  0.83282  0.24306  1.0000
  C   C3623     1.0  0.84902  0.82279  0.24283  1.0000
  C   C3624     1.0  0.82487  0.83131  0.24448  1.0000
  C   C3625     1.0  0.84408  0.80096  0.26578  1.0000
  C   C3626     1.0  0.85858  0.80740  0.25349  1.0000
  C   C3627     1.0  0.60187  0.84904  0.28410  1.0000
  H   H2903     1.0  0.85159  0.78947  0.27410  1.0000
  H   H2904     1.0  0.57405  0.73155  0.23507  1.0000
  H   H2905     1.0  0.69153  0.93763  0.31348  1.0000
  H   H2906     1.0  0.62920  0.84963  0.26667  1.0000
  S   S490      1.0  0.74935  0.77898  0.27909  1.0000
  H   H2907     1.0  0.66431  0.97393  0.39722  1.0000
  C   C3628     1.0  0.63872  0.81632  0.41594  1.0000
  C   C3629     1.0  0.53508  0.91082  0.45517  1.0000
  H   H2908     1.0  0.63677  0.66234  0.27956  1.0000
  H   H2909     1.0  0.65044  0.96896  0.43132  1.0000
  C   C3630     1.0  0.70771  0.95718  0.25132  1.0000
  C   C3631     1.0  0.57350  0.79111  0.46450  1.0000
  C   C3632     1.0  0.59334  0.78063  0.45654  1.0000
  C   C3633     1.0  0.60299  0.71922  0.24621  1.0000
  C   C3634     1.0  0.63616  0.86579  0.28239  1.0000
  S   S491      1.0  0.73747  0.83507  0.27492  1.0000
  C   C3635     1.0  0.67342  0.92159  0.28208  1.0000
  C   C3636     1.0  0.69255  0.76043  0.44364  1.0000
  H   H2910     1.0  0.59165  0.84025  0.27966  1.0000
  C   C3637     1.0  0.64475  0.82941  0.40322  1.0000
  C   C3638     1.0  0.64140  0.67501  0.25781  1.0000
  C   C3639     1.0  0.64656  0.80836  0.25178  1.0000
  H   H2911     1.0  0.64368  0.84182  0.31634  1.0000
  C   C3640     1.0  0.69097  0.77334  0.45402  1.0000
  H   H2912     1.0  0.70604  0.77242  0.45883  1.0000
  C   C3641     1.0  0.56273  0.91248  0.46954  1.0000
  H   H2913     1.0  0.58353  0.97553  0.42006  1.0000
  H   H2914     1.0  0.63787  0.82351  0.42510  1.0000
  H   H2915     1.0  0.63127  0.80912  0.25956  1.0000
  C   C3642     1.0  0.66996  0.78768  0.45813  1.0000
  H   H2916     1.0  0.64736  0.76364  0.48339  1.0000
  H   H2917     1.0  0.67015  0.80860  0.26561  1.0000
  P   P122      1.0  0.64238  0.70439  0.25936  1.0000
  H   H2918     1.0  0.61813  0.84306  0.36585  1.0000
  C   C3643     1.0  0.69311  0.90757  0.47309  1.0000
  C   C3644     1.0  0.65038  0.78890  0.45203  1.0000
  H   H2919     1.0  0.59349  0.82195  0.42808  1.0000
  H   H2920     1.0  0.66882  0.79794  0.46604  1.0000
  C   C3645     1.0  0.68804  0.68364  0.33204  1.0000
  C   C3646     1.0  0.59866  0.90414  0.31853  1.0000
  Fe  Fe245     1.0  0.62545  0.94667  0.38454  1.0000
  H   H2921     1.0  0.74632  0.71430  0.24633  1.0000
  C   C3647     1.0  0.62237  0.70870  0.29994  1.0000
  C   C3648     1.0  0.66950  0.73470  0.24217  1.0000
  C   C3649     1.0  0.89785  0.85617  0.24677  1.0000
  H   H2922     1.0  0.51744  0.97507  0.44369  1.0000
  H   H2923     1.0  0.63448  0.80056  0.45519  1.0000
  P   P123      1.0  0.52819  0.72170  0.45295  1.0000
  C   C3650     1.0  0.52590  0.75273  0.44827  1.0000
  C   C3651     1.0  0.69710  0.92106  0.28238  1.0000
  C   C3652     1.0  0.73376  0.94537  0.47665  1.0000
  H   H2924     1.0  0.51284  0.89837  0.33443  1.0000
  C   C3653     1.0  0.66302  0.90839  0.45466  1.0000
  C   C3654     1.0  0.64199  0.79801  0.39210  1.0000
  C   C3655     1.0  0.86060  0.71419  0.23502  1.0000
  C   C3656     1.0  0.59719  0.95177  0.31682  1.0000
  H   H2925     1.0  0.52703  0.93869  0.42637  1.0000
  H   H2926     1.0  0.56868  0.88501  0.36804  1.0000
  H   H2927     1.0  0.75659  0.94096  0.26653  1.0000
  C   C3657     1.0  0.56848  0.82360  0.44628  1.0000
  C   C3658     1.0  0.60579  0.94993  0.47969  1.0000
  H   H2928     1.0  0.66795  0.91728  0.27343  1.0000
  H   H2929     1.0  0.66884  0.81955  0.33267  1.0000
  H   H2930     1.0  0.55248  0.90561  0.32527  1.0000
  C   C3659     1.0  0.94602  0.84010  0.24449  1.0000
  C   C3660     1.0  0.54975  0.88791  0.32787  1.0000
  H   H2931     1.0  0.51775  0.81978  0.43888  1.0000
  H   H2932     1.0  0.76300  0.78000  0.24757  1.0000
  C   C3661     1.0  0.68876  0.69476  0.24701  1.0000
  H   H2933     1.0  0.68890  0.67719  0.25228  1.0000
  C   C3662     1.0  0.51091  0.89138  0.36578  1.0000
  H   H2934     1.0  0.64711  0.68119  0.23572  1.0000
  H   H2935     1.0  0.79993  0.84813  0.46980  1.0000
  C   C3663     1.0  0.65094  0.73024  0.47729  1.0000
  C   C3664     1.0  0.74201  0.87116  0.47162  1.0000
  C   C3665     1.0  0.80753  0.65914  0.24417  1.0000
  C   C3666     1.0  0.74066  0.88834  0.47958  1.0000
  H   H2936     1.0  0.59618  0.97017  0.31637  1.0000
  C   C3667     1.0  0.53677  0.98649  0.40332  1.0000
  H   H2937     1.0  0.66008  0.95520  0.46403  1.0000
  C   C3668     1.0  0.71126  0.97916  0.24465  1.0000
  C   C3669     1.0  0.49676  0.74539  0.23581  1.0000
  H   H2938     1.0  0.73756  0.75728  0.24121  1.0000
  H   H2939     1.0  0.69394  0.86089  0.23425  1.0000
  C   C3670     1.0  0.70069  0.91210  0.45897  1.0000
  H   H2940     1.0  0.97045  0.77520  0.26046  1.0000
  C   C3671     1.0  0.50356  0.89015  0.39919  1.0000
  H   H2941     1.0  0.72315  0.91869  0.23793  1.0000
  C   C3672     1.0  0.66990  0.90487  0.47786  1.0000
  H   H2942     1.0  0.54383  0.97688  0.36607  1.0000
  C   C3673     1.0  0.99283  0.70037  0.23707  1.0000
  H   H2943     1.0  0.81737  0.84331  0.23633  1.0000
  H   H2944     1.0  0.52647  0.69030  0.47957  1.0000
  H   H2945     1.0  0.50353  0.82725  0.38950  1.0000
  C   C3674     1.0  0.73459  0.96870  0.47628  1.0000
  S   S492      1.0  0.61848  0.98401  0.38782  1.0000
  Fe  Fe246     1.0  0.64367  0.65414  0.47190  1.0000
  H   H2946     1.0  0.99343  0.78906  0.24066  1.0000
  C   C3675     1.0  0.99242  0.70938  0.29038  1.0000
  C   C3676     1.0  0.69957  0.66456  0.34019  1.0000
  S   S493      1.0  0.61013  0.65619  0.46425  1.0000
  C   C3677     1.0  0.71161  0.66841  0.35001  1.0000
  C   C3678     1.0  0.56713  0.97373  0.41752  1.0000
  C   C3679     1.0  0.49978  0.71371  0.45886  1.0000
  H   H2947     1.0  0.92952  0.65688  0.26527  1.0000
  H   H2948     1.0  0.50547  0.85841  0.34132  1.0000
  C   C3680     1.0  0.98509  0.83434  0.26470  1.0000
  H   H2949     1.0  0.72059  0.65393  0.35642  1.0000
  H   H2950     1.0  0.78112  0.68180  0.23366  1.0000
  C   C3681     1.0  0.52378  0.69305  0.23362  1.0000
  C   C3682     1.0  0.50609  0.92757  0.56338  1.0000
  C   C3683     1.0  0.63237  0.88846  0.52954  1.0000
  C   C3684     1.0  0.68826  0.86729  0.52742  1.0000
  H   H2951     1.0  0.52075  0.70156  0.52264  1.0000
  H   H2952     1.0  0.50608  0.85976  0.49493  1.0000
  C   C3685     1.0  0.51473  0.97056  0.51324  1.0000
  H   H2953     1.0  0.59764  0.95525  0.51328  1.0000
  C   C3686     1.0  0.60060  0.96012  0.50228  1.0000
  H   H2954     1.0  0.68165  0.85850  0.53735  1.0000
  C   C3687     1.0  0.71698  0.98236  0.48409  1.0000
  C   C3688     1.0  0.69860  0.97273  0.49225  1.0000
  S   S494      1.0  0.65342  0.81714  0.50360  1.0000
  C   C3689     1.0  0.49603  0.89111  0.56178  1.0000
  C   C3690     1.0  0.50893  0.84159  0.53211  1.0000
  H   H2955     1.0  0.63137  0.68364  0.49729  1.0000
  C   C3691     1.0  0.50677  0.72029  0.50483  1.0000
  H   H2956     1.0  0.84286  0.97655  0.68315  1.0000
  Fe  Fe247     1.0  0.62526  0.84372  0.51315  1.0000
  C   C3692     1.0  0.63236  0.73970  0.49959  1.0000
  H   H2957     1.0  0.80747  0.97259  0.65028  1.0000
  H   H2958     1.0  0.64186  0.92565  0.54887  1.0000
  C   C3693     1.0  0.51003  0.90695  0.51403  1.0000
  C   C3694     1.0  0.64517  0.93220  0.52698  1.0000
  C   C3695     1.0  0.55874  0.83887  0.57480  1.0000
  C   C3696     1.0  0.57343  0.82427  0.56626  1.0000
  C   C3697     1.0  0.57776  0.83191  0.55223  1.0000
  C   C3698     1.0  0.56733  0.85408  0.54669  1.0000
  C   C3699     1.0  0.55244  0.86886  0.55517  1.0000
  C   C3700     1.0  0.54841  0.86112  0.56931  1.0000
  P   P124      1.0  0.54007  0.89821  0.54843  1.0000
  H   H2959     1.0  0.69433  0.86328  0.49383  1.0000
  C   C3701     1.0  0.55910  0.91762  0.54902  1.0000
  C   C3702     1.0  0.57473  0.91208  0.55847  1.0000
  C   C3703     1.0  0.58834  0.92795  0.55936  1.0000
  C   C3704     1.0  0.58667  0.94921  0.55069  1.0000
  C   C3705     1.0  0.57122  0.95483  0.54125  1.0000
  C   C3706     1.0  0.55740  0.93913  0.54042  1.0000
  C   C3707     1.0  0.51412  0.84167  0.49552  1.0000
  H   H2960     1.0  0.66342  0.90208  0.48865  1.0000
  C   C3708     1.0  0.53837  0.83512  0.49412  1.0000
  C   C3709     1.0  0.51058  0.80153  0.49776  1.0000
  C   C3710     1.0  0.53288  0.98286  0.51152  1.0000
  C   C3711     1.0  0.53577  0.90105  0.53094  1.0000
  C   C3712     1.0  0.55512  0.89927  0.52054  1.0000
  C   C3713     1.0  0.55189  0.90055  0.50707  1.0000
  C   C3714     1.0  0.52938  0.90397  0.50386  1.0000
  C   C3715     1.0  0.51222  0.90613  0.55877  1.0000
  C   C3716     1.0  0.53683  0.98557  0.48705  1.0000
  H   H2961     1.0  0.55569  0.83311  0.58571  1.0000
  H   H2962     1.0  0.58182  0.80719  0.57049  1.0000
  H   H2963     1.0  0.58972  0.82087  0.54565  1.0000
  H   H2964     1.0  0.57145  0.85957  0.53584  1.0000
  Fe  Fe248     1.0  0.64219  0.83629  0.48375  1.0000
  H   H2965     1.0  0.57642  0.89564  0.56521  1.0000
  H   H2966     1.0  0.60037  0.92377  0.56667  1.0000
  H   H2967     1.0  0.59718  0.96147  0.55139  1.0000
  H   H2968     1.0  0.56970  0.97158  0.53481  1.0000
  H   H2969     1.0  0.54508  0.94393  0.53328  1.0000
  H   H2970     1.0  0.54272  0.77674  0.49770  1.0000
  C   C3717     1.0  0.64017  0.91922  0.53988  1.0000
  Fe  Fe249     1.0  0.64146  0.98470  0.53929  1.0000
  C   C3718     1.0  0.69660  0.88779  0.52629  1.0000
  H   H2971     1.0  0.68502  0.98304  0.49850  1.0000
  H   H2972     1.0  0.57272  0.89645  0.52287  1.0000
  H   H2973     1.0  0.56689  0.89793  0.49921  1.0000
  C   C3719     1.0  0.54865  0.81166  0.49556  1.0000
  H   H2974     1.0  0.51852  0.98017  0.56964  1.0000
  S   S495      1.0  0.62871  0.98076  0.56191  1.0000
  C   C3720     1.0  0.50849  0.70221  0.51583  1.0000
  C   C3721     1.0  0.52290  0.80087  0.53130  1.0000
  C   C3722     1.0  0.64332  0.92335  0.51541  1.0000
  C   C3723     1.0  0.71534  0.93559  0.48493  1.0000
  H   H2975     1.0  0.56739  0.80651  0.49480  1.0000
  H   H2976     1.0  0.49793  0.77860  0.53898  1.0000
  H   H2977     1.0  0.71078  0.91532  0.51289  1.0000
  C   C3724     1.0  0.51844  0.97343  0.48867  1.0000
  H   H2978     1.0  0.69663  0.89483  0.53539  1.0000
  H   H2979     1.0  0.50578  0.96527  0.52340  1.0000
  H   H2980     1.0  0.58997  0.69472  0.49224  1.0000
  C   C3725     1.0  0.55748  0.69119  0.48714  1.0000
  C   C3726     1.0  0.60112  0.94396  0.49388  1.0000
  H   H2981     1.0  0.53759  0.87242  0.57613  1.0000
  H   H2982     1.0  0.51765  0.73332  0.50317  1.0000
  H   H2983     1.0  0.50027  0.87473  0.55802  1.0000
  P   P125      1.0  0.71299  0.90606  0.48484  1.0000
  C   C3727     1.0  0.70420  0.89962  0.51343  1.0000
  H   H2984     1.0  0.55366  0.67889  0.49618  1.0000
  C   C3728     1.0  0.82434  0.97782  0.66638  1.0000
  C   C3729     1.0  0.81771  0.96441  0.65831  1.0000
  C   C3730     1.0  0.82412  0.94029  0.66060  1.0000
  C   C3731     1.0  0.83720  0.92938  0.67095  1.0000
  C   C3732     1.0  0.84385  0.94259  0.67903  1.0000
  C   C3733     1.0  0.83745  0.96672  0.67678  1.0000
  C   C3734     1.0  0.53472  0.79481  0.49727  1.0000
  S   S496      1.0  0.62469  0.75894  0.51165  1.0000
  C   C3735     1.0  0.64366  0.74632  0.48641  1.0000
  H   H2985     1.0  0.63541  0.89502  0.50775  1.0000
  S   S497      1.0  0.62641  0.86017  0.53143  1.0000
  C   C3736     1.0  0.50746  0.96589  0.50187  1.0000
  H   H2986     1.0  0.59858  0.92657  0.49845  1.0000
  H   H2987     1.0  0.63061  0.88722  0.55114  1.0000
  C   C3737     1.0  0.52476  0.65423  0.53623  1.0000
  H   H2988     1.0  0.68073  0.84282  0.51663  1.0000
  Fe  Fe250     1.0  0.59142  0.84072  0.49483  1.0000
  H   H2989     1.0  0.49986  0.97900  0.60236  1.0000
  C   C3738     1.0  0.51319  0.90575  0.52749  1.0000
  C   C3739     1.0  0.63669  0.90173  0.51669  1.0000
  H   H2990     1.0  0.52693  0.90375  0.49356  1.0000
  S   S498      1.0  0.61663  0.86432  0.49324  1.0000
  H   H2991     1.0  0.81894  0.93007  0.65434  1.0000
  H   H2992     1.0  0.84220  0.91069  0.67270  1.0000
  H   H2993     1.0  0.85404  0.93413  0.68703  1.0000
  C   C3740     1.0  0.68760  0.85852  0.51569  1.0000
  H   H2994     1.0  0.66834  0.66948  0.50952  1.0000
  C   C3741     1.0  0.52700  0.82351  0.52878  1.0000
  S   S499      1.0  0.55568  0.85636  0.49024  1.0000
  H   H2995     1.0  0.53690  0.78694  0.52844  1.0000
  H   H2996     1.0  0.54406  0.82715  0.52395  1.0000
  C   C3742     1.0  0.50022  0.82478  0.49766  1.0000
  C   C3743     1.0  0.70296  0.89128  0.50157  1.0000
  H   H2997     1.0  0.51799  0.93970  0.56104  1.0000
  H   H2998     1.0  0.68302  0.94262  0.49874  1.0000
  H   H2999     1.0  0.64693  0.93325  0.50539  1.0000
  C   C3744     1.0  0.76073  0.89032  0.48438  1.0000
  C   C3745     1.0  0.63388  0.89741  0.54114  1.0000
  C   C3746     1.0  0.62780  0.71706  0.50344  1.0000
  S   S500      1.0  0.59757  0.82222  0.51553  1.0000
  C   C3747     1.0  0.69506  0.87034  0.50281  1.0000
  H   H3000     1.0  0.79753  0.87759  0.48449  1.0000
  H   H3001     1.0  0.61907  0.71185  0.51362  1.0000
  C   C3748     1.0  0.63471  0.70110  0.49421  1.0000
  S   S501      1.0  0.65605  0.95826  0.52490  1.0000
  Fe  Fe251     1.0  0.62477  0.79722  0.50435  1.0000
  H   H3002     1.0  0.51210  0.85914  0.52990  1.0000
  H   H3003     1.0  0.49788  0.90827  0.53510  1.0000
  C   C3749     1.0  0.50068  0.79630  0.53712  1.0000
  C   C3750     1.0  0.60479  0.98226  0.49650  1.0000
  H   H3004     1.0  0.53885  0.65490  0.51490  1.0000
  C   C3751     1.0  0.69760  0.94959  0.49250  1.0000
  H   H3005     1.0  0.75980  0.90273  0.49106  1.0000
  C   C3752     1.0  0.57802  0.70009  0.48489  1.0000
  H   H3006     1.0  0.69090  0.66189  0.48711  1.0000
  S   S502      1.0  0.61602  0.81413  0.48378  1.0000
  H   H3007     1.0  0.77644  0.98382  0.67341  1.0000
  Fe  Fe252     1.0  0.92669  0.80187  0.92073  1.0000
  S   S503      1.0  0.95466  0.80084  0.93307  1.0000
  S   S504      1.0  0.91146  0.83468  0.90745  1.0000
  Fe  Fe253     1.0  0.92347  0.75047  0.93089  1.0000
  S   S505      1.0  0.95107  0.74635  0.94385  1.0000
  S   S506      1.0  0.90638  0.71893  0.93391  1.0000
  Fe  Fe254     1.0  0.93318  0.78052  0.94989  1.0000
  S   S507      1.0  0.92495  0.78349  0.97236  1.0000
  Fe  Fe255     1.0  0.96961  0.76674  0.92589  1.0000
  H   H3008     1.0  0.91131  0.67871  0.96252  1.0000
  S   S508      1.0  0.90395  0.78368  0.93808  1.0000
  S   S509      1.0  0.94333  0.76884  0.91226  1.0000
  H   H3009     1.0  0.98829  0.89336  0.94692  1.0000
  S   S510      1.0  0.95535  0.92587  0.89598  1.0000
  C   C3753     1.0  0.92270  0.86058  0.90509  1.0000
  C   C3754     1.0  0.91319  0.88013  0.89637  1.0000
  C   C3755     1.0  0.92249  0.90061  0.89378  1.0000
  C   C3756     1.0  0.94149  0.90160  0.89985  1.0000
  C   C3757     1.0  0.95058  0.88231  0.90883  1.0000
  C   C3758     1.0  0.94125  0.86191  0.91145  1.0000
  H   H3010     1.0  0.89878  0.87933  0.89145  1.0000
  H   H3011     1.0  0.91532  0.91544  0.88688  1.0000
  H   H3012     1.0  0.96523  0.88301  0.91360  1.0000
  H   H3013     1.0  0.94872  0.84716  0.91823  1.0000
  C   C3759     1.0  0.91781  0.69476  0.92545  1.0000
  C   C3760     1.0  0.91146  0.67333  0.93136  1.0000
  H   H3014     1.0  0.88856  0.83191  0.96028  1.0000
  C   C3761     1.0  0.98251  0.80704  0.88113  1.0000
  C   C3762     1.0  0.93905  0.67756  0.90572  1.0000
  C   C3763     1.0  0.93178  0.69678  0.91264  1.0000
  H   H3015     1.0  0.90023  0.67174  0.94112  1.0000
  C   C3764     1.0  0.76862  0.76300  0.93406  1.0000
  H   H3016     1.0  0.94941  0.67935  0.89567  1.0000
  H   H3017     1.0  0.93621  0.71338  0.90786  1.0000
  H   H3018     1.0  0.95134  0.81881  0.95809  1.0000
  C   C3765     1.0  0.94369  0.84535  0.97073  1.0000
  H   H3019     1.0  0.85961  0.74576  0.97534  1.0000
  H   H3020     1.0  0.96568  0.69677  0.93586  1.0000
  C   C3766     1.0  0.86660  0.80568  0.89399  1.0000
  H   H3021     1.0  0.96729  0.71949  0.97436  1.0000
  H   H3022     1.0  0.97668  0.70379  0.91097  1.0000
  C   C3767     1.0  0.87173  0.71480  0.90671  1.0000
  H   H3023     1.0  0.81000  0.73200  0.90585  1.0000
  C   C3768     1.0  0.99340  0.88262  0.97672  1.0000
  H   H3024     1.0  0.85796  0.70834  0.96868  1.0000
  H   H3025     1.0  0.84443  0.66048  0.92273  1.0000
  C   C3769     1.0  0.87138  0.67406  0.90798  1.0000
  Fe  Fe256     1.0  0.94108  0.96082  0.88448  1.0000
  H   H3026     1.0  0.84985  0.70725  0.94595  1.0000
  C   C3770     1.0  0.87264  0.77142  0.91100  1.0000
  C   C3771     1.0  0.86495  0.96458  0.91203  1.0000
  C   C3772     1.0  0.96622  0.94042  0.92533  1.0000
  C   C3773     1.0  0.98278  0.92333  0.93142  1.0000
  C   C3774     1.0  0.97556  0.90691  0.94234  1.0000
  C   C3775     1.0  0.95179  0.90765  0.94721  1.0000
  C   C3776     1.0  0.93501  0.92440  0.94096  1.0000
  C   C3777     1.0  0.94239  0.94097  0.93006  1.0000
  P   P126      1.0  0.90436  0.92485  0.94728  1.0000
  C   C3778     1.0  0.88805  0.94005  0.93375  1.0000
  C   C3779     1.0  0.89948  0.89532  0.95165  1.0000
  C   C3780     1.0  0.91022  0.87926  0.94289  1.0000
  C   C3781     1.0  0.90586  0.85666  0.94583  1.0000
  C   C3782     1.0  0.89132  0.84965  0.95780  1.0000
  H   H3027     1.0  0.95355  0.66608  0.95538  1.0000
  C   C3783     1.0  0.88519  0.88802  0.96380  1.0000
  C   C3784     1.0  0.97961  0.66993  0.86736  1.0000
  C   C3785     1.0  0.84976  0.72379  0.94872  1.0000
  C   C3786     1.0  0.85454  0.72432  0.96167  1.0000
  C   C3787     1.0  0.87457  0.94112  0.91232  1.0000
  C   C3788     1.0  0.88616  0.92891  0.92308  1.0000
  C   C3789     1.0  0.89555  0.93923  0.96212  1.0000
  H   H3028     1.0  0.74069  0.75798  0.92472  1.0000
  S   S511      1.0  0.95493  0.97416  0.86272  1.0000
  H   H3029     1.0  0.92989  0.95402  0.92495  1.0000
  C   C3790     1.0  0.94763  0.68007  0.96131  1.0000
  C   C3791     1.0  0.96368  0.69184  0.96429  1.0000
  H   H3030     1.0  0.97174  0.95278  0.91661  1.0000
  C   C3792     1.0  0.79861  0.74046  0.91386  1.0000
  H   H3031     1.0  0.92526  0.73137  0.98160  1.0000
  H   H3032     1.0  0.94638  0.89511  0.95581  1.0000
  C   C3793     1.0  0.98349  0.84613  0.88375  1.0000
  H   H3033     1.0  0.92200  0.88426  0.93378  1.0000
  H   H3034     1.0  0.91403  0.84446  0.93892  1.0000
  H   H3035     1.0  0.81841  0.78082  0.90200  1.0000
  C   C3794     1.0  0.94211  0.82399  0.96759  1.0000
  C   C3795     1.0  0.98694  0.76880  0.97403  1.0000
  C   C3796     1.0  0.93248  0.65618  0.91158  1.0000
  H   H3036     1.0  0.88039  0.97301  0.94103  1.0000
  C   C3797     1.0  0.94651  0.93000  0.84652  1.0000
  H   H3037     1.0  0.87354  0.93245  0.90404  1.0000
  H   H3038     1.0  0.89395  0.91098  0.92279  1.0000
  H   H3039     1.0  0.83315  0.81404  0.88716  1.0000
  C   C3798     1.0  0.91217  0.94192  0.96961  1.0000
  H   H3040     1.0  0.85866  0.94529  0.96090  1.0000
  C   C3799     1.0  0.87855  0.96373  0.93325  1.0000
  C   C3800     1.0  0.91566  0.70524  0.97292  1.0000
  C   C3801     1.0  0.83590  0.78313  0.90224  1.0000
  C   C3802     1.0  0.84578  0.74434  0.93941  1.0000
  C   C3803     1.0  0.88111  0.69364  0.90216  1.0000
  C   C3804     1.0  0.97595  0.82509  0.88878  1.0000
  C   C3805     1.0  0.93153  0.71661  0.97626  1.0000
  H   H3041     1.0  0.97345  0.94725  0.83427  1.0000
  S   S512      1.0  0.90380  0.97699  0.88281  1.0000
  H   H3042     1.0  0.85245  0.78215  0.95910  1.0000
  C   C3806     1.0  0.95546  0.70987  0.97205  1.0000
  C   C3807     1.0  0.94149  0.91136  0.85652  1.0000
  P   P127      1.0  0.83923  0.74411  0.92267  1.0000
  C   C3808     1.0  0.88084  0.79029  0.90252  1.0000
  H   H3043     1.0  0.85640  0.97416  0.90354  1.0000
  H   H3044     1.0  0.87296  0.82054  0.88765  1.0000
  C   C3809     1.0  0.85188  0.67573  0.91818  1.0000
  C   C3810     1.0  0.79280  0.75949  0.93366  1.0000
  C   C3811     1.0  0.85546  0.74534  0.96542  1.0000
  C   C3812     1.0  0.85006  0.76775  0.91099  1.0000
  C   C3813     1.0  0.95961  0.89507  0.86175  1.0000
  P   P128      1.0  0.99455  0.68350  0.95843  1.0000
  H   H3045     1.0  0.87749  0.89959  0.97109  1.0000
  H   H3046     1.0  0.92349  0.90981  0.86045  1.0000
  C   C3814     1.0  0.77442  0.74399  0.91430  1.0000
  C   C3815     1.0  0.98299  0.89728  0.85699  1.0000
  C   C3816     1.0  0.84646  0.76544  0.94335  1.0000
  H   H3047     1.0  0.88003  0.72949  0.90226  1.0000
  H   H3048     1.0  0.97755  0.89551  0.97739  1.0000
  H   H3049     1.0  0.96491  0.82278  0.89860  1.0000
  H   H3050     1.0  0.97828  0.85999  0.88974  1.0000
  C   C3817     1.0  0.99091  0.77714  0.96008  1.0000
  H   H3051     1.0  0.82694  0.69800  0.93043  1.0000
  C   C3818     1.0  0.91899  0.65403  0.92455  1.0000
  C   C3819     1.0  0.84216  0.69697  0.92259  1.0000
  C   C3820     1.0  0.92833  0.80968  0.97660  1.0000
  C   C3821     1.0  0.98399  0.69461  0.93159  1.0000
  C   C3822     1.0  0.84418  0.80204  0.89378  1.0000
  C   C3823     1.0  0.80797  0.74792  0.92365  1.0000
  H   H3052     1.0  0.88382  0.75983  0.91769  1.0000
  C   C3824     1.0  0.88121  0.86525  0.96685  1.0000
  H   H3053     1.0  0.95514  0.88117  0.86974  1.0000
  H   H3054     1.0  0.76731  0.73810  0.90675  1.0000
  H   H3055     1.0  0.95427  0.85627  0.96359  1.0000
  C   C3825     1.0  0.85219  0.71665  0.91701  1.0000
  C   C3826     1.0  0.99011  0.69863  0.91738  1.0000
  C   C3827     1.0  0.86495  0.95950  0.97752  1.0000
  H   H3056     1.0  0.93240  0.94294  0.84272  1.0000
  H   H3057     1.0  0.93042  0.93467  0.96698  1.0000
  H   H3058     1.0  0.79954  0.76587  0.94115  1.0000
  C   C3828     1.0  0.85139  0.76588  0.95627  1.0000
  C   C3829     1.0  0.92370  0.68693  0.96550  1.0000
  C   C3830     1.0  0.96956  0.96366  0.96535  1.0000
  C   C3831     1.0  0.87182  0.94774  0.96632  1.0000
  C   C3832     1.0  0.96970  0.93241  0.84176  1.0000
  H   H3059     1.0  0.96766  0.68153  0.86113  1.0000
  H   H3060     1.0  0.95216  0.96714  0.96276  1.0000
  H   H3061     1.0  0.89813  0.79326  0.90271  1.0000
  C   C3833     1.0  0.75943  0.75521  0.92441  1.0000
  H   H3062     1.0  0.97675  0.79071  0.88515  1.0000
  H   H3063     1.0  0.75700  0.77188  0.94183  1.0000
  C   C3834     1.0  0.86705  0.97590  0.92245  1.0000
  H   H3064     1.0  0.84342  0.78158  0.93641  1.0000
  H   H3065     1.0  0.89638  0.69221  0.89435  1.0000
  H   H3066     1.0  0.87924  0.65752  0.90473  1.0000
  H   H3067     1.0  0.89712  0.71106  0.97575  1.0000
  C   C3835     1.0  0.98633  0.97676  0.95823  1.0000
  H   H3068     1.0  0.87071  0.85953  0.97640  1.0000
  H   H3069     1.0  0.96159  0.93690  0.98204  1.0000
  C   C3836     1.0  0.97489  0.94634  0.97628  1.0000
  H   H3070     1.0  0.98559  0.76880  0.95289  1.0000
  C   C3837     1.0  0.98787  0.91627  0.84705  1.0000
  H   H3071     1.0  0.97812  0.75424  0.97767  1.0000
  C   C3838     1.0  0.93145  0.85267  0.98289  1.0000
  C   C3839     1.0  0.99398  0.77948  0.98328  1.0000
  C   C3840     1.0  0.90525  0.95374  0.98079  1.0000
  H   H3072     1.0  0.84665  0.96616  0.98066  1.0000
