data_image0
_chemical_formula_structural       SFeSFeS2FeSC2S2CH2SCSFeCH2C2FeHC3H3CHCH4SHC4H4C3HC3H4C6H9C3HPC2HCH2C3H2C2H3C2HCSC6HCSC3HFeCHCH3C2H3CH3CSH3FeC2FeCH6C3SC4H6SC2H3C6PHC3H2C3FeC2HCH2C3H2C2HC2HC2HC3SC2HCH2CH2CPC3HSCSC2FeS2FeS2FeSFeS3HC4SC2HFeHC4FeS2FeSHFeSFeS3C6HCH2C3H5CHC3HC2HCH2CSC2HC6H4C6H4C2H3C6H4CSCHC4H2CH2CH2CHCHFeH3C2H3CHC6HC2H3FeHPH2CH4PC6FeHC4H7CH3C2HC3PC9SC8HFeC2H8C3H5C2PHC2H2CHC3H2SHC3H3C4H3C6H2CHC2HCHCH4CH2CH2C5HC3H2CHCHFeHCHSHFeH3C4H3PHC6H2SHCH2CHC3SH8C6HC2H2S2CSCHC2HC2HSCH2C4H3FeHCH2CHC5H2C2HCHPCFeCHC2HCH2C5H2CSH2C2HCHCHCHCHCH2C2SCHC5HCHC2SC10HCH2SC4HS2HC3FeHS2C2HSC2H2SC3HCHSCFeSC2HC2HC2HC5HC8HCH4S2CH3C7H4FeH5S2HCHC2HFeHCH2C2HPH2C2HCH2C5FeC7PHCH2C8HCHC2H3SPFeCH2CHCHC3H2C2FeC2H3CHC5P2H3CH4SCSCH3C2HC2HC2HC4HCHFeH2S2CHC2HCH3C2H2CH2FeCHC5H5CH2CHCSCHC2H3CSHC2HSC3HCSHCSCHC3H4CHCH6CSC2H5CHCFeHCHC4HC3H3CH2C3HC2HC3H2SC2HSC4HCSHCH2FeC2SFeSH2SHFeHFe2CHFeC2SCHCS2PFeS2CHSFeSHS2C6H4C6H5C3HCHC2SCHC3H3SH2CFeCH2CHCH3CHC2H2C3HC3HC2HCFeCH3CH2CFeC2H3C3H2SC2H3CHC2FeCHCH7CHCH2C4H2CHC3H3C4SHSH2C3HC3HC2HCPHC2H2C2HCHC2H3C2HCHCHC3SC2HC2H4C2FeC7PS2HC5H2C2HCH3C3HC2H2C2SCH2CH2SC3H2C3PH2C4SC3H4CHC2H2C4HPCHC2HC2HCHC2HCH4PC2HCHCSCH2CHC3SCSHFeHCSC2HCHC4H3PCHC2HCPCHCHCH4CHCHCH3SHC2HCHC3H3SC4HC6H2SCH2CSH3C4H3C2H2CH2SCFeCH2C2H7C4HC2HCH2C3HC4HPHC3PC16H10CH2C13SH2C3H2C2SFeH4CH3SHSCH2CSH2CH2C2H2C2HC3HCH3C3HCH2CFeHC5HCHPHSCHC2H5CHC4HC2HCSH2CHC3S2HC2HCHCHC2H2C2H4CHC3HCH3C2H2CH2PC2HFeCSHC2SFeHC3SC2H3S2CFeHS2HCH3CFeSFeHPC4SCHCHC3HFeH2FeHC3FeCHFeCH3C4HFeHC3H3CH3C2H3C2HCSC3H2CH3C7H2CFeH4CHCH3CHC3H4C2H2CHCH2CH3C2H2C2HC2H4CHC6PHC2HCHC2HC3H2C3HCHCH4C2H2CPC2H2C2HCH3CHC5SH4SC6FeS2FeS2FeSFeS3HSHCFeSH2SHFeS2FeS2FeSFeS3HC2FeCHCHC2H3C4HC4H2C6H4C6H2CH2C2PCH3CH2SC2H2CHC2HC6H3CH3C3H2PHCHCH3C4HCPHCPC8PC13H5CH11C6PC8H3C7H10CHCH8CHC2H2CHCHC2HC3H3C3H4C5H2CH2CH5C3HCHCH2C2HC2H2C2SCHCH4FeHC2HC2HC4H2C2H2CHC2H4CH2C5HCHC4H2C3HCHC4SC3HCHC5H3C2SH4FeHC2HFeS2H4FeSCSFeS2FeS2FeSFeS3PCFeS2HFeHS2FeS2FeS2FeCFeS3CSH4CHFeSC2FeS2FeS2C2FeSCSFeS2FeSHFeSFeS3CHFeS2FeS2FeSFeS3H2C2SCHC2HCHC2HCSHC2SC3PHCH2CHCHC6H4C6H4C2HCH3C7H4C2H3CHCH2CH2CHC2HC3H3CFeHSHC6H4C6H4C6H5C2HCH6CH2C6H4C6H4C6H3C7H4CHCH4CH2C4HC3H3C2H2SCPCHCSC2HCHSC2H3PCH2C2H2C6PC9H2C7H8SH4CH6C6PC18H19C6PHC7HCH2FeHC3SCH4CH5CHC11HCH4C2H4CH2C2PHCS2C4HC4H4C6PC10H4CH10C5HCH4CHFeCHCHCHC2HC4HC4HC2HC2HCHC2H2CHSCPC4HC4HC7PC14H2CH6C6H3SHC2H2FeC2H6FeC4H3C2PHC2H7C5H2C2PC6H4C2H2C2HCH3C4H2C5HCHC2HC2HCHC2H2CH2PCH5C5HC8HC2HCHC2HC2HC2H2C2HC2H2CH6C2HSCFeHSCHC4HCHC2HC7H2CHCHCH2CPSCFeC2HCHCH2CH3C3H3C4SCH2C2HC7H2C2HCH2CH2CHC4HCH2CPC2HCH2C7H5C2HCHCHCHC5H2C2HC3H2CH2CH2C4HC2H4CHCHC2H2CH5SHCH2CHCHCSPHC2HCH4CHCHCHC2HC3FeHCH2CH2SHCHC2SCHCFeS2HC4H3C2FeCHCHC2HCHC3H5CHCHSC2FeC3H3C2H4CHCFeSCFeS2FeSFeHS2CHSH3CHC2HCS2CFeS2FeS2FeSFeCS3C2H3CHC2H3CHC2H3CH3C2H2C6H5C3HCHSH2C8H4C7H6C2HC2HC2FeH3C6PC3HC10H2FeCH6CH2CH6C11HCSC4HSHCHC3HC2H3CH9CHCFeHC2PSH3C3HCH4C6PC2SC9H6CH5C3H2CFeC2HCHC3HC3PCH2C2H3C5HCH2CH3SHCHCFeCH3CH3SH4CPC4HC5H6C2H2C4HC3SCH2C3SC2SHSC3HFeS2FeS3H2SHFeS2FeSHFeSFeS3HCSFeS2FeS2FeHFeS4CH2CH3C2H2CSHC2FeS2FeS2FeSFeS4H2C2H4C7H3SC6H4C4H4C8H3C6H4CHPC2SHFePHCHC4HC7H4C2H2C6H6C3SC2H3FeH4C6H3C4HC5FeSCHPHCHC5HCH2C3HC2HC3H5CHCH2CHCFeCPCHCHC2HC3HCH3CHC3FeCH4C4H2CH5CH2CHC3HCH2CH2FeCH4CP2H2C2HC2H2C2HC2HCHC3H2CFeHC6PC18H2CH17C6PC4H2C3HC5HC2H8CH3C2H6CH2C4H5C3HCHCHC3PC4SC8HC2H5C2H5CH2CFeCHC5HC4PCH5CHC7PCHC4HCHCH8C3H3SH6C2HCH2C3SFeC5FeHC4H2C5H2CH2C3H6SCHSCHCHCHCH2C3HCHSC2H5CFeHC3HC4HC2H2CH4SC4H3SCH3CHCHC4H2CHCHC3HC3H2SCHCH2C2H2C2SHCFeHC2HCH3C7HC3HPHC3HS2PCHC2H2C3HC2H2C5HC3H2C6HCHSC3PH2CHC2HCH2CHCH4C5HSHC2HC4H2CH2CH2C3HC2HFeCH2C2HFeC2H2CH3C2SH3C2H2CFeCSPCSCPFeCSFeS2FeC2HS4FeSFeS2FeS2FeHFeS3CHC3PS2H4CHC3H3CH2CH2CSH2CHPC2H3CH2C2SC6H4C4FeCH4C3HC4H2C6H4FeCSC3H3C9H2C6H4C2H2C3H2CH2C3HCH4FeHCHC6HC5HFeH3CH10C7PCH2CHC7HCHC6HCH2CH2CH3SHCH4CHCH3CSH2CHC2SC3FeC4SH2C2HC2H2CHPH7CHCHC8HPC7HC3H3CH2SH10C3H3CHC4HCHCFeC3FeCH4SH3C4HC3HC6SFeSCHC2HC2H2C5HCHC2HC7SHCH5SHCH3CH7C2HCH4CH3C7PC9HC2HC2HCHSC2HC2HC3HC4HCH2C2SHCSH3CHC5H2C6HCH2CHPH3SPH2C2HCH4CHFeCHCHC2H2C3PCH2CFeS2FeS2FeSFeS3C2HCHC2H3CH4CSHPC2HC3HC6PHFeS2FeCHSHSCFeS2FeS2FeSFeS3C7HC2HCHFeC2H3C6H4C4HC6H4C2HCHCHC5H4CHCHCHC7H4CH2CHC2SH3C5H4C3PHCHC3H2C2H2C3HC2HC3HSC2H3C4HC2HCH2CHCH2CH4C2SC7HCHCHCHC4H2CSH2C2H4C2H2CFeC2H2CPC2HC5HCH3CH2C2HC3H2CH3PHCHC6PC18H20C8H6C3HC2PH2C3HC2HCH3FeCH2CH3C2H2C4H2C3H3CHC3HCHC3HC2HC3H2C3SH2C2H2C8HCH2C5HC3PC2H3SH2CHC2HC3HCHC3H5C2HCHCHCH2C3HCHC2H3C4H3CH3CH5CPHCHPH3CHCHCH4C3HCH2CHC4HCH2C2H3C9SFeSHCH3C4PCHC2HC2H4C4H3CHFeH5C2SHCH2CHCHCH2SH5CH2C3H2SC3HC3HSHC3H3C3HC2H5CSHC2HC4HC3HC4SHC2HC2FeH2CSH2C2H2SCHC2HCH3C8SC3H4CHCHCSC2FeHPH2C2SCHCH2SC4FeC5PHCHCPC3HCH3C7FeHFeSHFeS2FeS2FeSFeSFeCS2FeS2FeS2FeSFeS3FeS2FeS2FeSFeS3H2C2H4C2SFeS2FeS2FeSFeS3FeSCFeSHFeCFeS3FeH2C2HC6H4C2HC7H2CHC4H2C6H4C2H3CHC9H4C6H4C6H4CH2C3HCH2CHCHCH2CH2CH3PC2PCHC8PC18H20SC5H3C4H5CHC4H4SC6PC8HCHC7H12CH7C6PC14H18CHC4HCHC2H2SC3H3C7PC8PC9HCH9SH11CFeH2CHCS2HC7H4CHCH2CPCH2C5HCHC7HC3H2CH3C2H2CH5C2SC3PCHC2H3C4HCSHCH2CHCSC2H2CHC3HCH2C5H2CHC4FeC2H2C5SC2HCH4CHCHSCH2CHC2H2CH3CHCH2SCSHC6HC2H2CHC4HC3FeCHCH2C4HCHCHC2HCHCHPC3HC2H2FeH3C7PC2HCH3C2HC3H5CH2CH2C6HC4HCHC3H2C2H2CHCHCHCSH3C4PC2HCHCHCHC2HCH3CH6C3H3CH4CHC7HCHC7HP2H3CHCHCH3CHC3H3C3HC3HC2H2CHC2H2CH2PH2C3HCHCHC4H2C4H2CHFeCH2CSH2C3HC7H3C2HSCH3CH5CH2C2HPH6C2H2C4PHSC5H2CHC3HC5PC8HC4HCH9SH4C2HC3PC3HCH2CHC11H4PCH3C5H3C2H2C2FeCH2C2SH2C2H3C2FeHC3HSHCH7CHC2S2HCH2CH2CHCHCH2CHC3HC2HC3H2C2HC2HCH4SC5HCHCHC3HSCHFeCH2FeHC2SC2H2C2HCHSFeC4SC2HC7SC2H2SC2FeCH3CH2SHC2SCHCHCPC2HCHCH3C4FeC2HCH4CHPCHC3SCH2CHCHCSHCH2C2HSC2H2CFeS2FeS2FeSFeS3FeSHFeSCH2FeSCSC3H2C6H2CHC6H4C8H3C2HCH2CH3CH2SCH2SCHCPC2H2CH2C3H2C5H5SC3HCHCHSCFeHS2HCHCH2CHFeHSC5HC2HC3H2CHC4SCH5SCHCSH2CH6CHSCHCH2C2HC4HC2HCH3C2H2C2HCSC2SHCFeCHC2FeH5C8PC14H2C2H16C2HC2HCHCH2C4H3SCH2C7H2C3FeH2FeC5H3FeH2C2H3C2HSCHC4HCHPCHC2H2C3HC3HCH3C5HPCHC2HFeH3CH2C3HCSFeS2HFeSCSFeS2CHFeSFeSHS2HSCFeSCSHFeS2FeS2FeHFeS3HSFeSFeS2FeSFeS3FeS2FeS2FeSFeS3HC2FeS2FeSCSCS2FeSC7H4C7H4C6H4C4H3CH2C6H3PC6H6C2HC2HC6H4C3HCHC6H4C2FeCHCHC8H4C6H6C2H2CH3C2HC2H3C5SC2H2C2H4C8H6C11H8PC2H2PC8H2FeCHSC6SH3CH3CHSCHCH2CH4CHCHC3H5C2HCH3CSC4HPHCH2CH2CH3C3H7C13H2FeC2HCHC3HC5H4CHC2H3C2HC2H2CHCHC3HCHCHC4HC2HC4H4CH4CHC6PC18H16CH3C6PC18H21SC3HC2H2CH2C4HC2HCHC2HCH2CHC2H5C2H2C4HCH5Fe2HCH4C3H2CHC2SC2HC3HC2H2CHFe2C3HCH3CH2CH2C2HC3H2CP2C2H2CHCHC3HCPH2CH3C3H2C2HCHC5H2C2PH2CPCH3CHC4SCSC6H4C2H4C4HCHCHPCHCHCHC2H4CH2CSC2H2C8H2CHC2HC3HSC5H3CHCHCH3CH3C2PHCH2S2HSC7SC2HCH2CSCSC2H2CHFeS2FeSCHSCFeSCFeS2FeSFeHS3C3H2CHC3FeC2H3C2HC5H3FeC2FeH2C6H5C5PHCH2SCH4CHCH2SHC9PC4HC9HC2FeH9CH7CH2C4PH2C7HPHFeC2HCHFeH2CHSCH3CHCHC2HC2HCHSHCH2CHCHC10SC2HFeC3H2C2H4CHCH3CHCHSHC2HSC5H5CH3CH2CHCFeHC2SCHCHC3HC2HSCHCSHCPSHC3HC4SCHC4HC2HCH3C2SCHC5H2SCH2CH3CH2SH2CHFeH2CHC2H3CHC2H2CPC3HCHC2H2FeS2FeS2FeSFePS2CFeHSHFePHSC3H2CSHC6H4FeHC2HC4HCH2CH5CSC4H4C3HCHCH2C3HCPC2H2C5H3CH2C2H6C4SHCH2C2H2CSH2CH2C4HCSHFeH2C2SH2C2H3CSCHC2SHC3H2C5H3S2C3PHC7HC2HCHSH2C2H2C3HC4HC3H2C3HSC2FeHC2HCHC3H2CFeCH3C2H3FeC2H3CH2CH2C2HCHC3SC3FeC2HCHC3HC5SFePC2HC5HCSHCSHC3HCHC2HC2HC2Fe2C3SHC2HCH3C3H2CHCH3C5H4C2H2CFeC2H4SCH2C2HCPCFeHSC3FeS2FeSHFeSFeS3FeS2FeS2FeSFeS4FeS2FeS2FeSFeS3FeS2FeS2FeSFeS3C3HFeS2FeS2FeCFeS3C2H3SCPCSCHFeS2FeS2FeSFeS3H2CH2C3HCH4CHC2HCHCHCH3C6H4C6H4C7HCH2C6H4C6H4C6H4C11H4C4HCH2C8H4C6H4C6H4C6H5C2HCHC7PC18H11CH3C2H2CH2PH3C2H2C2PCH2C7HC2HFeHC6PC10H10C6PC16H18CH3C6PC10H13C2H3CSCFeHCHCHCH2C2H3CH3C3HC3HC2HC4H4CH2C5H2C2H3CHC3H3CHCHPC4HC2H4CHCHCH2C4HCH3C2HC8HC2HC8H4CH2C2H2CHC3HCH2CH3C2H4CH2PC3HC3HCH2CHCH3CHCHC2H3C2H5PH2C7HCHC3HCHSHC2H2C3HC3H3C3H4C8HSH2C2H2C2H2C3HCHCHCH4C3HCHC4HC2HC2H2CHSC3HCH2PH2CHC2HC2H2CHC2HCPCHCSC3H2C9HC2H2C4HC4H3CHC3HC3PH2C3H4CSHC2HC6H3CHCH2PCH2C3HC2HCH3CHCH5PCH6C2H2C2H2C2H2CH3C3HCHCH2CHCH2C3SHSCH2CH5C2H2SC4HC2HCHC3HCS2HC2HCH3C2HCHC6PHC5HCHC3PCH2CHCH4C2H2CHCHC3HPH2C4HC2FeC2H2CH2FeS2HFeS2C4H3C5HC7H5SHC3HCHC3H4CH2CH3FeH4SFeHC2S2CSHCHSC14HCHCHCPSFeCH3CHC2SH4FeH2C3SC2HC7H6CPFeC4HCH6C6H2CFeHCH2C4H2C2SPHC2SHC2HSC2SHCFeHCHCFeH3C3HCHCHCHCH2CHCFeCH2C2H2SCH2CHFeCHCHSH9C3HSHCH2C5HC3HC2H3C3SC2H2C2HC2H2C4HCH3SHC6HCHCH2SCH2C2HC3HCH2CHC2SC2HC3H2C2H2FeS5C4HC2HSC2FeHSFeS2FeCFeCS2FeS2FeS2FeSFeS3HC2SH2SFeS2FeS2FeHFeS3CPC5H4CHCH2C2SCH4C3H3C2H2CPHC2H2FeC6H2C8H4C6H5CH4SHSHC6H4C6H3CH5C2HCFeSPC9HC14H11C6PC3H2C3HC5HC3H6CH6CH3CH4C4PC21H14CHC3HCHCHC4H4CH2CHCH2CHC4FeHC2HSH3CHC2HCH8CHCHC2H5CH2C6PC7HC6HC3H10C2H2CH5C3HCHCHCH2SH3FeCH3C2H2SH4SCH2CH4C3HCH3CHC2PC2HFeSFeCHC2HC3HC2H2PCH3SCHFeHC2SCHC2H2C3SCHC3FeH2FeHC3HSC2HCHC2FeC2H3C3HC4SCHCHCSHC2HC4PCHC2SHSHPCHFeHSC4HCH2PC2SCHC2HCHFeC2H3CHFeC2H2C3FeCH4CSCHCH4C2SHC3HC2H2CH2CHCHFeHC5HCHC2HCHC3HC2HC2H2C2HCSC3H3C6HPCH3SH3CH2C2HC2H2C2HC5HCH2SHCPCHC3H2C4H4CHCHCHCH2C2SC5H3C2SHPSCH2CHC3PCSFeHC2H2CHC3SHC5H2C5SC2HC4HC2SHCSC4PC4H2C2HCHC3H3CHSCH2C2H2C2HCH2CHFeHSCFeSHSPC2H5C2HCH4CH2C6HCHC6HC2HC2H2SC6H4CSCH2C2HC2HC5H2C4SH2C2H3CPC9HC9HCHCH11C2H4C9HPC6H3SHC2H5CH2SH2CSCHCH2SC2FeCH2FeCHCH3CH2C3FeHC4HSPCSHCH3C2H2C4HFeHC3HCHSC6H3FeC3H2CH2CH2CH4C4HC2HCH3CHC3H4CHCH2CHCHCFeCHCH2CFeH2FeHC4FeS2CHC2HC2HC6HCH2C2PCHCH2CFeCH2SH5CSHC2HCHSCHSC5HC2H2C2SHC2HPH2C2H2SH3C3H4CH4FeCH3C4HC2PFeHC2SHC2SCH2C8HCH4C2S2H2SCHSHFeHCHCSH3CH4CSCHC2H2CFeHC6SC2H2FeC4HCHCHC4HCH4CHCHC2HC6HC3H2CHCPC3H2C2H3C2SC
_chemical_formula_sum              "S768 Fe384 C5760 H4608 P192"
_cell_length_a       95.6011
_cell_length_b       96.4027
_cell_length_c       96.3296
_cell_angle_alpha    74.2417
_cell_angle_beta     74.1318
_cell_angle_gamma    73.4778

_space_group_name_H-M_alt    "P 1"
_space_group_IT_number       1

loop_
  _space_group_symop_operation_xyz
  'x, y, z'

loop_
  _atom_site_type_symbol
  _atom_site_label
  _atom_site_symmetry_multiplicity
  _atom_site_fract_x
  _atom_site_fract_y
  _atom_site_fract_z
  _atom_site_occupancy
  S   S1        1.0  0.44337  0.21910  0.00295  1.0000
  Fe  Fe1       1.0  0.46515  0.03500  0.19355  1.0000
  S   S2        1.0  0.45465  0.05895  0.19299  1.0000
  Fe  Fe2       1.0  0.43631  0.02932  0.19142  1.0000
  S   S3        1.0  0.42386  0.05290  0.19095  1.0000
  S   S4        1.0  0.42268  0.01346  0.19243  1.0000
  Fe  Fe3       1.0  0.44473  0.05795  0.17495  1.0000
  S   S5        1.0  0.44460  0.07637  0.15462  1.0000
  C   C1        1.0  0.45761  0.00972  0.14458  1.0000
  C   C2        1.0  0.47776  0.10839  0.07470  1.0000
  S   S6        1.0  0.45653  0.03440  0.17425  1.0000
  S   S7        1.0  0.47868  0.12871  0.01702  1.0000
  C   C3        1.0  0.48603  0.26555  0.00060  1.0000
  H   H1        1.0  0.48461  0.08495  0.01924  1.0000
  H   H2        1.0  0.49522  0.20608  0.03058  1.0000
  S   S8        1.0  0.45714  0.05755  0.09355  1.0000
  C   C4        1.0  0.47185  0.25064  0.02100  1.0000
  S   S9        1.0  0.48085  0.03000  0.06837  1.0000
  Fe  Fe4       1.0  0.47565  0.03760  0.08970  1.0000
  C   C5        1.0  0.48558  0.11249  0.11044  1.0000
  H   H3        1.0  0.37909  0.10783  0.05372  1.0000
  H   H4        1.0  0.47323  0.06523  0.03737  1.0000
  C   C6        1.0  0.49304  0.09022  0.03527  1.0000
  C   C7        1.0  0.41687  0.13680  0.01847  1.0000
  Fe  Fe5       1.0  0.42586  0.23770  0.99409  1.0000
  H   H5        1.0  0.48245  0.12120  0.10126  1.0000
  C   C8        1.0  0.48534  0.08251  0.03072  1.0000
  C   C9        1.0  0.48961  0.11202  0.06308  1.0000
  C   C10       1.0  0.48470  0.25621  0.01460  1.0000
  H   H6        1.0  0.48000  0.03334  0.22760  1.0000
  H   H7        1.0  0.45425  0.08941  0.07458  1.0000
  H   H8        1.0  0.45286  0.29336  0.99933  1.0000
  C   C11       1.0  0.43900  0.08570  0.06390  1.0000
  H   H9        1.0  0.45464  0.07635  0.23380  1.0000
  C   C12       1.0  0.38226  0.09869  0.03472  1.0000
  H   H10       1.0  0.46895  0.09460  0.15732  1.0000
  H   H11       1.0  0.45399  0.10053  0.18097  1.0000
  H   H12       1.0  0.45389  0.18099  0.00228  1.0000
  H   H13       1.0  0.47093  0.24318  0.03171  1.0000
  S   S10       1.0  0.42248  0.25957  0.00031  1.0000
  H   H14       1.0  0.45120  0.01937  0.14898  1.0000
  C   C13       1.0  0.46255  0.07480  0.00408  1.0000
  C   C14       1.0  0.46577  0.11949  0.07951  1.0000
  C   C15       1.0  0.39220  0.09485  0.02198  1.0000
  C   C16       1.0  0.45387  0.17095  0.01061  1.0000
  H   H15       1.0  0.39387  0.00500  0.22326  1.0000
  H   H16       1.0  0.45857  0.05403  0.22397  1.0000
  H   H17       1.0  0.45093  0.01595  0.08037  1.0000
  H   H18       1.0  0.43493  0.15762  0.04480  1.0000
  C   C17       1.0  0.44231  0.14466  0.99889  1.0000
  C   C18       1.0  0.41140  0.10313  0.02760  1.0000
  C   C19       1.0  0.43748  0.10106  0.03948  1.0000
  H   H19       1.0  0.48844  0.22627  0.00783  1.0000
  C   C20       1.0  0.47884  0.07153  0.04090  1.0000
  C   C21       1.0  0.49350  0.04657  0.15816  1.0000
  C   C22       1.0  0.47322  0.08923  0.16722  1.0000
  H   H20       1.0  0.45267  0.12160  0.00297  1.0000
  H   H21       1.0  0.45208  0.00405  0.10607  1.0000
  H   H22       1.0  0.41138  0.01258  0.16325  1.0000
  H   H23       1.0  0.45264  0.07830  0.02599  1.0000
  C   C23       1.0  0.44918  0.07096  0.13757  1.0000
  C   C24       1.0  0.44352  0.08087  0.12573  1.0000
  C   C25       1.0  0.44614  0.07666  0.11225  1.0000
  C   C26       1.0  0.45483  0.06267  0.11035  1.0000
  C   C27       1.0  0.46111  0.05295  0.12194  1.0000
  C   C28       1.0  0.45816  0.05705  0.13560  1.0000
  H   H24       1.0  0.43663  0.09165  0.12717  1.0000
  H   H25       1.0  0.44127  0.08421  0.10334  1.0000
  H   H26       1.0  0.46792  0.04213  0.12054  1.0000
  H   H27       1.0  0.46293  0.04950  0.14452  1.0000
  H   H28       1.0  0.41550  0.01685  0.22197  1.0000
  H   H29       1.0  0.45234  0.14762  0.99164  1.0000
  H   H30       1.0  0.43446  0.11078  0.99088  1.0000
  H   H31       1.0  0.49384  0.25296  0.02026  1.0000
  H   H32       1.0  0.49462  0.18370  0.05985  1.0000
  C   C29       1.0  0.47468  0.17915  0.03760  1.0000
  C   C30       1.0  0.45235  0.08247  0.01445  1.0000
  C   C31       1.0  0.48511  0.18339  0.05597  1.0000
  H   H33       1.0  0.45398  0.00432  0.17908  1.0000
  P   P1        1.0  0.43000  0.10637  0.02300  1.0000
  C   C32       1.0  0.47201  0.00352  0.14716  1.0000
  C   C33       1.0  0.43305  0.08976  0.05123  1.0000
  H   H34       1.0  0.38212  0.99471  0.20984  1.0000
  C   C34       1.0  0.46469  0.09270  0.18066  1.0000
  H   H35       1.0  0.45549  0.13562  0.04157  1.0000
  H   H36       1.0  0.40695  0.13409  0.02612  1.0000
  C   C35       1.0  0.41055  0.04896  0.15866  1.0000
  C   C36       1.0  0.43377  0.99651  0.18877  1.0000
  C   C37       1.0  0.46546  0.14526  0.01942  1.0000
  H   H37       1.0  0.47639  0.00835  0.15351  1.0000
  H   H38       1.0  0.42516  0.08396  0.05058  1.0000
  C   C38       1.0  0.40403  0.03564  0.23170  1.0000
  C   C39       1.0  0.48193  0.22019  0.99100  1.0000
  H   H39       1.0  0.43768  0.31829  0.00129  1.0000
  H   H40       1.0  0.45611  0.14295  0.07633  1.0000
  H   H41       1.0  0.40723  0.16033  0.01526  1.0000
  C   C40       1.0  0.42964  0.12571  0.01498  1.0000
  C   C41       1.0  0.40131  0.10703  0.04034  1.0000
  H   H42       1.0  0.45065  0.18394  0.04176  1.0000
  C   C42       1.0  0.47969  0.06858  0.05568  1.0000
  S   S11       1.0  0.40928  0.22347  0.99953  1.0000
  C   C43       1.0  0.46162  0.26375  0.99943  1.0000
  C   C44       1.0  0.44221  0.09558  0.00983  1.0000
  C   C45       1.0  0.40877  0.02050  0.23191  1.0000
  C   C46       1.0  0.44340  0.15788  0.03470  1.0000
  C   C47       1.0  0.41380  0.02330  0.15784  1.0000
  C   C48       1.0  0.42047  0.05103  0.14503  1.0000
  H   H43       1.0  0.38865  0.09014  0.01486  1.0000
  C   C49       1.0  0.40714  0.03514  0.16500  1.0000
  S   S12       1.0  0.42724  0.18570  0.02563  1.0000
  C   C50       1.0  0.42959  0.15564  0.00240  1.0000
  C   C51       1.0  0.41256  0.99341  0.13571  1.0000
  C   C52       1.0  0.40671  0.09709  0.01839  1.0000
  H   H44       1.0  0.42925  0.03607  0.07444  1.0000
  Fe  Fe6       1.0  0.43527  0.05124  0.20909  1.0000
  C   C53       1.0  0.44947  0.09279  0.06486  1.0000
  H   H45       1.0  0.45241  0.11605  0.03126  1.0000
  C   C54       1.0  0.44831  0.10779  0.04039  1.0000
  H   H46       1.0  0.47432  0.08252  0.13405  1.0000
  H   H47       1.0  0.46279  0.08802  0.20419  1.0000
  H   H48       1.0  0.40705  0.04355  0.22167  1.0000
  C   C55       1.0  0.42318  0.99516  0.14230  1.0000
  C   C56       1.0  0.48107  0.09064  0.12895  1.0000
  H   H49       1.0  0.42319  0.06171  0.14018  1.0000
  H   H50       1.0  0.39980  0.03342  0.17579  1.0000
  H   H51       1.0  0.45041  0.24996  0.01814  1.0000
  C   C57       1.0  0.46505  0.15816  0.00840  1.0000
  H   H52       1.0  0.46276  0.10886  0.05342  1.0000
  H   H53       1.0  0.40980  0.00107  0.12581  1.0000
  H   H54       1.0  0.46739  0.10220  0.11313  1.0000
  C   C58       1.0  0.45422  0.10372  0.05304  1.0000
  S   S13       1.0  0.44623  0.02738  0.21058  1.0000
  H   H55       1.0  0.47414  0.06054  0.06368  1.0000
  H   H56       1.0  0.37150  0.27365  0.99754  1.0000
  H   H57       1.0  0.45256  0.26653  0.99370  1.0000
  Fe  Fe7       1.0  0.42804  0.20447  0.00577  1.0000
  C   C59       1.0  0.38681  0.10479  0.04388  1.0000
  C   C60       1.0  0.42712  0.03926  0.13780  1.0000
  Fe  Fe8       1.0  0.48442  0.00709  0.08251  1.0000
  C   C61       1.0  0.45498  0.14537  0.03281  1.0000
  H   H58       1.0  0.40851  0.04417  0.09467  1.0000
  H   H59       1.0  0.49059  0.02421  0.16490  1.0000
  H   H60       1.0  0.40465  0.11185  0.04752  1.0000
  H   H61       1.0  0.47317  0.15825  0.99811  1.0000
  H   H62       1.0  0.37101  0.09697  0.03746  1.0000
  H   H63       1.0  0.43499  0.04100  0.12734  1.0000
  C   C62       1.0  0.48743  0.07620  0.06026  1.0000
  C   C63       1.0  0.46033  0.25440  0.01339  1.0000
  C   C64       1.0  0.47069  0.18765  0.06424  1.0000
  S   S14       1.0  0.47723  0.01483  0.10381  1.0000
  C   C65       1.0  0.46655  0.05485  0.22964  1.0000
  C   C66       1.0  0.47753  0.13809  0.06169  1.0000
  C   C67       1.0  0.39533  0.99314  0.22531  1.0000
  C   C68       1.0  0.49164  0.07147  0.18001  1.0000
  H   H64       1.0  0.40576  0.05799  0.16444  1.0000
  H   H65       1.0  0.45647  0.11655  0.08817  1.0000
  H   H66       1.0  0.43574  0.07689  0.07294  1.0000
  H   H67       1.0  0.47758  0.09693  0.07983  1.0000
  H   H68       1.0  0.44709  0.19127  0.06539  1.0000
  H   H69       1.0  0.49018  0.00387  0.18878  1.0000
  S   S15       1.0  0.42539  0.06011  0.23005  1.0000
  C   C69       1.0  0.47711  0.10184  0.11707  1.0000
  C   C70       1.0  0.44260  0.17060  0.02347  1.0000
  H   H70       1.0  0.40971  0.03267  0.12062  1.0000
  H   H71       1.0  0.47582  0.17616  0.02722  1.0000
  H   H72       1.0  0.42970  0.16723  0.99787  1.0000
  C   C71       1.0  0.41799  0.03538  0.09723  1.0000
  C   C72       1.0  0.42964  0.03083  0.08584  1.0000
  C   C73       1.0  0.44188  0.01954  0.08917  1.0000
  C   C74       1.0  0.44259  0.01290  0.10388  1.0000
  C   C75       1.0  0.43128  0.01781  0.11541  1.0000
  C   C76       1.0  0.41876  0.02885  0.11194  1.0000
  P   P2        1.0  0.43250  0.01028  0.13456  1.0000
  H   H73       1.0  0.49618  0.26949  0.99570  1.0000
  C   C77       1.0  0.42380  0.02530  0.14415  1.0000
  C   C78       1.0  0.48957  0.12701  0.05690  1.0000
  C   C79       1.0  0.44243  0.12982  0.00532  1.0000
  H   H74       1.0  0.48787  0.07362  0.07181  1.0000
  H   H75       1.0  0.41420  0.09407  0.00847  1.0000
  C   C80       1.0  0.46558  0.13434  0.07289  1.0000
  C   C81       1.0  0.44594  0.31666  0.99127  1.0000
  C   C82       1.0  0.47878  0.04308  0.23173  1.0000
  Fe  Fe9       1.0  0.49117  0.12339  0.99479  1.0000
  C   C83       1.0  0.46965  0.08565  0.19375  1.0000
  C   C84       1.0  0.45829  0.18774  0.05916  1.0000
  H   H76       1.0  0.47730  0.14959  0.05644  1.0000
  C   C85       1.0  0.45461  0.30247  0.99009  1.0000
  H   H77       1.0  0.42817  0.28916  0.99201  1.0000
  H   H78       1.0  0.49156  0.04778  0.16937  1.0000
  C   C86       1.0  0.46444  0.06748  0.23510  1.0000
  C   C87       1.0  0.41691  0.15172  0.01226  1.0000
  C   C88       1.0  0.44896  0.99491  0.18227  1.0000
  H   H79       1.0  0.41746  0.99807  0.09047  1.0000
  H   H80       1.0  0.47074  0.06498  0.00763  1.0000
  C   C89       1.0  0.47452  0.26931  0.99289  1.0000
  C   C90       1.0  0.48723  0.17899  0.04264  1.0000
  H   H81       1.0  0.46910  0.19112  0.07446  1.0000
  C   C91       1.0  0.45159  0.00318  0.13685  1.0000
  C   C92       1.0  0.48688  0.07873  0.16676  1.0000
  H   H82       1.0  0.47294  0.21577  0.99863  1.0000
  C   C93       1.0  0.46030  0.18354  0.04585  1.0000
  C   C94       1.0  0.49084  0.22603  0.99627  1.0000
  H   H83       1.0  0.48655  0.06893  0.20363  1.0000
  C   C95       1.0  0.49288  0.03317  0.15566  1.0000
  C   C96       1.0  0.49363  0.08990  0.13425  1.0000
  C   C97       1.0  0.49527  0.03131  0.14128  1.0000
  S   S16       1.0  0.48784  0.03125  0.19809  1.0000
  C   C98       1.0  0.45538  0.99687  0.23323  1.0000
  C   C99       1.0  0.44214  0.10065  0.99471  1.0000
  H   H84       1.0  0.49353  0.04565  0.01222  1.0000
  C   C100      1.0  0.48305  0.07493  0.19343  1.0000
  H   H85       1.0  0.49483  0.02094  0.13936  1.0000
  H   H86       1.0  0.46122  0.00366  0.23572  1.0000
  C   C101      1.0  0.49439  0.08698  0.05002  1.0000
  H   H87       1.0  0.49767  0.99985  0.05144  1.0000
  H   H88       1.0  0.49783  0.09869  0.02722  1.0000
  C   C102      1.0  0.49678  0.05811  0.14624  1.0000
  P   P3        1.0  0.49871  0.07503  0.14936  1.0000
  C   C103      1.0  0.46263  0.08006  0.98906  1.0000
  C   C104      1.0  0.49805  0.11191  0.11570  1.0000
  C   C105      1.0  0.49857  0.04272  0.12934  1.0000
  H   H89       1.0  0.49864  0.13031  0.04831  1.0000
  S   S17       1.0  0.04545  0.21128  0.47943  1.0000
  C   C106      1.0  0.39245  0.03038  0.25764  1.0000
  S   S18       1.0  0.08195  0.22744  0.47198  1.0000
  C   C107      1.0  0.10641  0.15250  0.44842  1.0000
  C   C108      1.0  0.16080  0.04786  0.42050  1.0000
  Fe  Fe10      1.0  0.05934  0.15225  0.42161  1.0000
  S   S19       1.0  0.03692  0.14983  0.43633  1.0000
  S   S20       1.0  0.06910  0.17228  0.41069  1.0000
  Fe  Fe11      1.0  0.07304  0.11911  0.42783  1.0000
  S   S21       1.0  0.05177  0.11369  0.44250  1.0000
  S   S22       1.0  0.09585  0.10363  0.42433  1.0000
  Fe  Fe12      1.0  0.04025  0.13067  0.42565  1.0000
  S   S23       1.0  0.02246  0.12617  0.41709  1.0000
  Fe  Fe13      1.0  0.05005  0.13309  0.45203  1.0000
  S   S24       1.0  0.04517  0.12882  0.47683  1.0000
  S   S25       1.0  0.06185  0.13430  0.40986  1.0000
  S   S26       1.0  0.07200  0.13727  0.43861  1.0000
  H   H90       1.0  0.31066  0.00414  0.43950  1.0000
  C   C109      1.0  0.00067  0.29137  0.32426  1.0000
  C   C110      1.0  0.28373  0.02810  0.45150  1.0000
  C   C111      1.0  0.47478  0.06846  0.24241  1.0000
  C   C112      1.0  0.00774  0.29853  0.31045  1.0000
  S   S27       1.0  0.45352  0.02475  0.28583  1.0000
  C   C113      1.0  0.17880  0.00370  0.42675  1.0000
  C   C114      1.0  0.31292  0.00388  0.38096  1.0000
  H   H91       1.0  0.01912  0.18252  0.44092  1.0000
  Fe  Fe14      1.0  0.25387  0.01181  0.42347  1.0000
  H   H92       1.0  0.42872  0.06886  0.25480  1.0000
  C   C115      1.0  0.39457  0.01956  0.30107  1.0000
  C   C116      1.0  0.39043  0.99940  0.38565  1.0000
  C   C117      1.0  0.38106  0.02981  0.30406  1.0000
  C   C118      1.0  0.33323  0.05843  0.35759  1.0000
  Fe  Fe15      1.0  0.06397  0.26347  0.39557  1.0000
  S   S28       1.0  0.06844  0.26261  0.37169  1.0000
  S   S29       1.0  0.08481  0.25683  0.40461  1.0000
  Fe  Fe16      1.0  0.03061  0.27625  0.39718  1.0000
  S   S30       1.0  0.03275  0.27590  0.37359  1.0000
  H   H93       1.0  0.01463  0.23578  0.37183  1.0000
  Fe  Fe17      1.0  0.04789  0.25350  0.37849  1.0000
  S   S31       1.0  0.04598  0.23422  0.37060  1.0000
  Fe  Fe18      1.0  0.05290  0.28505  0.36944  1.0000
  S   S32       1.0  0.05764  0.30510  0.35210  1.0000
  S   S33       1.0  0.04423  0.25299  0.40262  1.0000
  S   S34       1.0  0.05001  0.28666  0.39278  1.0000
  C   C119      1.0  0.02950  0.29875  0.46455  1.0000
  C   C120      1.0  0.00714  0.24636  0.36885  1.0000
  C   C121      1.0  0.04472  0.14248  0.48597  1.0000
  C   C122      1.0  0.35701  0.99479  0.45406  1.0000
  C   C123      1.0  0.06725  0.20485  0.44390  1.0000
  C   C124      1.0  0.34161  0.00466  0.34379  1.0000
  H   H94       1.0  0.43571  0.00253  0.24965  1.0000
  C   C125      1.0  0.39709  0.01520  0.25787  1.0000
  H   H95       1.0  0.15275  0.04396  0.45287  1.0000
  H   H96       1.0  0.02019  0.12140  0.38478  1.0000
  C   C126      1.0  0.34922  0.00346  0.47696  1.0000
  C   C127      1.0  0.39800  0.00366  0.37113  1.0000
  C   C128      1.0  0.05597  0.06036  0.48706  1.0000
  H   H97       1.0  0.29140  0.03828  0.48456  1.0000
  H   H98       1.0  0.22602  0.01248  0.44478  1.0000
  H   H99       1.0  0.00254  0.20348  0.38212  1.0000
  H   H100      1.0  0.03015  0.31210  0.37341  1.0000
  H   H101      1.0  0.13325  0.06673  0.45302  1.0000
  C   C129      1.0  0.15918  0.04469  0.47236  1.0000
  H   H102      1.0  0.40919  0.99948  0.30979  1.0000
  C   C130      1.0  0.44507  0.03389  0.27060  1.0000
  C   C131      1.0  0.43944  0.04923  0.26847  1.0000
  C   C132      1.0  0.38464  0.01311  0.46600  1.0000
  H   H103      1.0  0.02699  0.16164  0.35385  1.0000
  C   C133      1.0  0.30637  0.99438  0.44532  1.0000
  C   C134      1.0  0.44412  0.02634  0.26046  1.0000
  H   H104      1.0  0.44012  0.05515  0.27625  1.0000
  C   C135      1.0  0.37504  0.00862  0.36255  1.0000
  H   H105      1.0  0.02658  0.26456  0.32169  1.0000
  H   H106      1.0  0.44841  0.01450  0.26203  1.0000
  C   C136      1.0  0.02548  0.28372  0.44462  1.0000
  S   S35       1.0  0.25183  0.02443  0.44060  1.0000
  C   C137      1.0  0.29411  0.03662  0.44911  1.0000
  C   C138      1.0  0.39030  0.00850  0.35963  1.0000
  H   H107      1.0  0.01322  0.30588  0.42517  1.0000
  C   C139      1.0  0.06141  0.18935  0.40008  1.0000
  C   C140      1.0  0.05451  0.19027  0.38867  1.0000
  C   C141      1.0  0.04963  0.20410  0.37974  1.0000
  C   C142      1.0  0.05199  0.21699  0.38192  1.0000
  C   C143      1.0  0.05919  0.21599  0.39309  1.0000
  C   C144      1.0  0.06388  0.20224  0.40211  1.0000
  H   H108      1.0  0.05363  0.18034  0.38618  1.0000
  H   H109      1.0  0.04435  0.20478  0.37090  1.0000
  H   H110      1.0  0.06150  0.22576  0.39458  1.0000
  H   H111      1.0  0.06967  0.20157  0.41055  1.0000
  C   C145      1.0  0.09337  0.05515  0.44096  1.0000
  C   C146      1.0  0.10667  0.05930  0.43943  1.0000
  C   C147      1.0  0.10757  0.07414  0.43373  1.0000
  C   C148      1.0  0.09500  0.08493  0.43014  1.0000
  C   C149      1.0  0.08173  0.08074  0.43166  1.0000
  C   C150      1.0  0.08095  0.06586  0.43696  1.0000
  H   H112      1.0  0.11619  0.05110  0.44274  1.0000
  H   H113      1.0  0.11791  0.07727  0.43243  1.0000
  H   H114      1.0  0.07206  0.08896  0.42869  1.0000
  H   H115      1.0  0.07064  0.06267  0.43814  1.0000
  C   C151      1.0  0.00231  0.17111  0.45487  1.0000
  C   C152      1.0  0.28943  0.03506  0.47546  1.0000
  H   H116      1.0  0.07331  0.21210  0.44533  1.0000
  H   H117      1.0  0.21850  0.03809  0.48539  1.0000
  H   H118      1.0  0.40989  0.00296  0.36877  1.0000
  C   C153      1.0  0.08205  0.23619  0.45350  1.0000
  C   C154      1.0  0.09544  0.23909  0.44431  1.0000
  C   C155      1.0  0.09606  0.24558  0.42936  1.0000
  C   C156      1.0  0.08337  0.24896  0.42346  1.0000
  C   C157      1.0  0.06995  0.24601  0.43260  1.0000
  C   C158      1.0  0.06918  0.23991  0.44774  1.0000
  H   H119      1.0  0.10538  0.23622  0.44874  1.0000
  H   H120      1.0  0.10645  0.24784  0.42229  1.0000
  H   H121      1.0  0.06029  0.24830  0.42793  1.0000
  H   H122      1.0  0.05879  0.23769  0.45483  1.0000
  C   C159      1.0  0.32333  0.99907  0.39009  1.0000
  S   S36       1.0  0.28687  0.02100  0.37325  1.0000
  C   C160      1.0  0.01046  0.28426  0.45159  1.0000
  H   H123      1.0  0.05877  0.04576  0.47253  1.0000
  C   C161      1.0  0.04558  0.15702  0.47860  1.0000
  C   C162      1.0  0.35443  0.00070  0.34972  1.0000
  C   C163      1.0  0.20442  0.03508  0.38543  1.0000
  C   C164      1.0  0.01194  0.26152  0.44466  1.0000
  H   H124      1.0  0.04661  0.16018  0.46676  1.0000
  H   H125      1.0  0.00234  0.28954  0.37089  1.0000
  C   C165      1.0  0.09465  0.10037  0.46642  1.0000
  H   H126      1.0  0.14604  0.10433  0.46794  1.0000
  H   H127      1.0  0.16968  0.04130  0.42610  1.0000
  C   C166      1.0  0.21137  0.01841  0.46471  1.0000
  H   H128      1.0  0.00407  0.29313  0.45718  1.0000
  H   H129      1.0  0.04124  0.16558  0.40511  1.0000
  C   C167      1.0  0.08836  0.07323  0.46845  1.0000
  H   H130      1.0  0.19233  0.99130  0.45978  1.0000
  C   C168      1.0  0.18043  0.01125  0.43652  1.0000
  H   H131      1.0  0.29983  0.04057  0.43794  1.0000
  Fe  Fe19      1.0  0.02662  0.22877  0.48839  1.0000
  H   H132      1.0  0.41719  0.02461  0.45641  1.0000
  H   H133      1.0  0.01861  0.30070  0.30902  1.0000
  H   H134      1.0  0.39305  0.99628  0.33471  1.0000
  C   C169      1.0  0.43792  0.03423  0.24807  1.0000
  C   C170      1.0  0.01005  0.16286  0.39671  1.0000
  H   H135      1.0  0.03272  0.15003  0.39401  1.0000
  H   H136      1.0  0.16841  0.00053  0.42827  1.0000
  H   H137      1.0  0.03725  0.27509  0.47195  1.0000
  C   C171      1.0  0.19080  0.00015  0.41504  1.0000
  H   H138      1.0  0.32319  0.99741  0.34144  1.0000
  C   C172      1.0  0.13226  0.09973  0.45602  1.0000
  C   C173      1.0  0.14339  0.10589  0.45730  1.0000
  C   C174      1.0  0.15129  0.11396  0.44477  1.0000
  C   C175      1.0  0.14837  0.11563  0.43089  1.0000
  C   C176      1.0  0.13761  0.10915  0.42950  1.0000
  C   C177      1.0  0.12950  0.10132  0.44202  1.0000
  H   H139      1.0  0.11715  0.11820  0.47703  1.0000
  C   C178      1.0  0.31222  0.02082  0.40063  1.0000
  C   C179      1.0  0.00045  0.31232  0.36977  1.0000
  H   H140      1.0  0.39288  0.05235  0.24441  1.0000
  H   H141      1.0  0.07236  0.11001  0.46279  1.0000
  H   H142      1.0  0.09686  0.11100  0.46557  1.0000
  Fe  Fe20      1.0  0.11120  0.02090  0.45711  1.0000
  H   H143      1.0  0.01426  0.21546  0.39611  1.0000
  P   P4        1.0  0.03411  0.29777  0.44530  1.0000
  H   H144      1.0  0.04526  0.27134  0.43223  1.0000
  H   H145      1.0  0.31173  0.02727  0.40841  1.0000
  C   C180      1.0  0.48721  0.05677  0.24431  1.0000
  H   H146      1.0  0.15975  0.11886  0.44582  1.0000
  H   H147      1.0  0.15438  0.12198  0.42120  1.0000
  H   H148      1.0  0.13533  0.11036  0.41875  1.0000
  H   H149      1.0  0.12108  0.09655  0.44072  1.0000
  P   P5        1.0  0.09283  0.18263  0.44690  1.0000
  C   C181      1.0  0.10439  0.19541  0.43619  1.0000
  C   C182      1.0  0.10053  0.20553  0.42349  1.0000
  C   C183      1.0  0.10944  0.21545  0.41525  1.0000
  C   C184      1.0  0.12243  0.21517  0.41942  1.0000
  C   C185      1.0  0.12662  0.20481  0.43174  1.0000
  C   C186      1.0  0.11772  0.19485  0.44001  1.0000
  Fe  Fe21      1.0  0.45585  0.00009  0.29383  1.0000
  H   H150      1.0  0.25792  0.05084  0.47898  1.0000
  C   C187      1.0  0.10050  0.16600  0.43969  1.0000
  C   C188      1.0  0.10872  0.13986  0.42903  1.0000
  C   C189      1.0  0.10364  0.15339  0.42000  1.0000
  C   C190      1.0  0.09964  0.16643  0.42527  1.0000
  H   H151      1.0  0.20307  0.02513  0.38324  1.0000
  H   H152      1.0  0.09059  0.20592  0.41994  1.0000
  H   H153      1.0  0.10604  0.22362  0.40581  1.0000
  H   H154      1.0  0.12911  0.22310  0.41317  1.0000
  H   H155      1.0  0.13667  0.20462  0.43497  1.0000
  H   H156      1.0  0.12113  0.18685  0.44949  1.0000
  H   H157      1.0  0.07042  0.16865  0.44418  1.0000
  C   C191      1.0  0.01961  0.15442  0.36035  1.0000
  H   H158      1.0  0.11089  0.12972  0.42520  1.0000
  H   H159      1.0  0.10201  0.15375  0.40919  1.0000
  H   H160      1.0  0.09507  0.17675  0.41835  1.0000
  C   C192      1.0  0.22014  0.05147  0.38365  1.0000
  C   C193      1.0  0.21828  0.03883  0.38057  1.0000
  H   H161      1.0  0.00687  0.25269  0.44508  1.0000
  C   C194      1.0  0.19244  0.04377  0.39360  1.0000
  C   C195      1.0  0.19424  0.05643  0.39687  1.0000
  C   C196      1.0  0.20816  0.06027  0.39172  1.0000
  P   P6        1.0  0.17917  0.06766  0.40785  1.0000
  C   C197      1.0  0.16208  0.06162  0.41117  1.0000
  C   C198      1.0  0.18310  0.06557  0.42570  1.0000
  C   C199      1.0  0.17259  0.07307  0.43615  1.0000
  C   C200      1.0  0.17554  0.07162  0.44998  1.0000
  C   C201      1.0  0.18877  0.06236  0.45364  1.0000
  C   C202      1.0  0.19919  0.05479  0.44336  1.0000
  C   C203      1.0  0.19636  0.05625  0.42949  1.0000
  C   C204      1.0  0.15021  0.07013  0.40436  1.0000
  C   C205      1.0  0.13766  0.06453  0.40626  1.0000
  S   S37       1.0  0.16634  0.01548  0.45180  1.0000
  C   C206      1.0  0.11036  0.13945  0.44313  1.0000
  C   C207      1.0  0.38968  0.00584  0.32633  1.0000
  C   C208      1.0  0.17755  0.08647  0.39735  1.0000
  C   C209      1.0  0.17593  0.08969  0.38268  1.0000
  C   C210      1.0  0.17486  0.10413  0.37427  1.0000
  C   C211      1.0  0.17568  0.11541  0.38035  1.0000
  C   C212      1.0  0.17767  0.11224  0.39481  1.0000
  C   C213      1.0  0.17864  0.09783  0.40330  1.0000
  H   H162      1.0  0.23098  0.05423  0.38005  1.0000
  Fe  Fe22      1.0  0.12044  0.00584  0.48652  1.0000
  C   C214      1.0  0.20585  0.01166  0.42301  1.0000
  C   C215      1.0  0.24925  0.04845  0.48858  1.0000
  H   H163      1.0  0.20983  0.06991  0.39423  1.0000
  H   H164      1.0  0.16210  0.07994  0.43362  1.0000
  H   H165      1.0  0.16739  0.07733  0.45803  1.0000
  H   H166      1.0  0.19087  0.06076  0.46455  1.0000
  H   H167      1.0  0.20943  0.04760  0.44621  1.0000
  H   H168      1.0  0.20448  0.04985  0.42197  1.0000
  H   H169      1.0  0.15049  0.08103  0.39759  1.0000
  H   H170      1.0  0.12845  0.07111  0.40108  1.0000
  C   C216      1.0  0.33769  0.03195  0.36003  1.0000
  C   C217      1.0  0.01240  0.25731  0.35737  1.0000
  C   C218      1.0  0.49695  0.02791  0.27174  1.0000
  H   H171      1.0  0.17543  0.08101  0.37777  1.0000
  H   H172      1.0  0.17345  0.10655  0.36300  1.0000
  H   H173      1.0  0.17489  0.12659  0.37379  1.0000
  H   H174      1.0  0.17858  0.12095  0.39941  1.0000
  H   H175      1.0  0.18044  0.09562  0.41437  1.0000
  C   C219      1.0  0.05284  0.21059  0.44125  1.0000
  C   C220      1.0  0.07469  0.29131  0.41684  1.0000
  P   P7        1.0  0.00966  0.28603  0.33980  1.0000
  H   H176      1.0  0.40183  0.02091  0.29018  1.0000
  C   C221      1.0  0.49796  0.01559  0.32936  1.0000
  C   C222      1.0  0.27924  0.02617  0.47799  1.0000
  H   H177      1.0  0.10761  0.15194  0.45941  1.0000
  H   H178      1.0  0.18964  0.99424  0.40749  1.0000
  C   C223      1.0  0.07395  0.18982  0.44444  1.0000
  H   H179      1.0  0.02210  0.19220  0.46118  1.0000
  C   C224      1.0  0.05130  0.18610  0.44080  1.0000
  C   C225      1.0  0.30188  0.01691  0.38198  1.0000
  C   C226      1.0  0.03234  0.28565  0.47521  1.0000
  H   H180      1.0  0.26805  0.01665  0.46726  1.0000
  H   H181      1.0  0.19492  0.02174  0.44166  1.0000
  S   S38       1.0  0.24649  0.02283  0.40212  1.0000
  H   H182      1.0  0.39462  0.00753  0.26823  1.0000
  C   C227      1.0  0.01648  0.22917  0.42413  1.0000
  C   C228      1.0  0.01948  0.22631  0.41004  1.0000
  C   C229      1.0  0.00475  0.18387  0.40813  1.0000
  H   H183      1.0  0.04784  0.22230  0.44050  1.0000
  H   H184      1.0  0.00614  0.15570  0.39249  1.0000
  H   H185      1.0  0.03719  0.13735  0.36889  1.0000
  C   C230      1.0  0.06568  0.18037  0.44342  1.0000
  C   C231      1.0  0.09101  0.17944  0.46658  1.0000
  C   C232      1.0  0.07907  0.27959  0.44135  1.0000
  C   C233      1.0  0.40974  0.01714  0.45938  1.0000
  H   H186      1.0  0.01898  0.32222  0.46143  1.0000
  H   H187      1.0  0.37775  0.03911  0.29542  1.0000
  H   H188      1.0  0.02741  0.23140  0.40119  1.0000
  C   C234      1.0  0.34785  0.05815  0.34951  1.0000
  C   C235      1.0  0.09417  0.18948  0.47280  1.0000
  C   C236      1.0  0.32820  0.04532  0.36291  1.0000
  C   C237      1.0  0.37513  0.00015  0.38871  1.0000
  C   C238      1.0  0.33343  0.99415  0.34547  1.0000
  C   C239      1.0  0.33237  0.01033  0.46022  1.0000
  H   H189      1.0  0.30473  0.04704  0.45919  1.0000
  H   H190      1.0  0.24154  0.03762  0.46568  1.0000
  C   C240      1.0  0.00039  0.13324  0.44113  1.0000
  H   H191      1.0  0.21622  0.01478  0.42166  1.0000
  C   C241      1.0  0.00287  0.30015  0.36351  1.0000
  C   C242      1.0  0.32288  0.00747  0.40006  1.0000
  H   H192      1.0  0.05211  0.30220  0.41537  1.0000
  C   C243      1.0  0.08072  0.09987  0.46484  1.0000
  H   H193      1.0  0.28138  0.02549  0.44221  1.0000
  C   C244      1.0  0.01974  0.18045  0.40926  1.0000
  H   H194      1.0  0.11426  0.12899  0.45011  1.0000
  H   H195      1.0  0.02221  0.23633  0.42622  1.0000
  H   H196      1.0  0.07874  0.29343  0.40496  1.0000
  H   H197      1.0  0.49022  0.02667  0.29516  1.0000
  C   C245      1.0  0.02697  0.26077  0.43800  1.0000
  H   H198      1.0  0.18196  0.04036  0.39742  1.0000
  H   H199      1.0  0.99990  0.16988  0.35452  1.0000
  C   C246      1.0  0.00288  0.27125  0.35373  1.0000
  H   H200      1.0  0.11039  0.06336  0.47209  1.0000
  H   H201      1.0  0.33368  0.02189  0.36469  1.0000
  C   C247      1.0  0.36746  0.00471  0.37722  1.0000
  C   C248      1.0  0.02212  0.31207  0.46923  1.0000
  C   C249      1.0  0.37192  0.02817  0.31823  1.0000
  C   C250      1.0  0.03510  0.32162  0.36965  1.0000
  C   C251      1.0  0.00569  0.18209  0.47749  1.0000
  H   H202      1.0  0.29282  0.03526  0.39292  1.0000
  C   C252      1.0  0.02690  0.31494  0.43354  1.0000
  C   C253      1.0  0.22445  0.01799  0.45366  1.0000
  C   C254      1.0  0.07761  0.08633  0.46573  1.0000
  H   H203      1.0  0.32683  0.01686  0.48109  1.0000
  H   H204      1.0  0.09833  0.19897  0.46590  1.0000
  C   C255      1.0  0.01705  0.31554  0.42481  1.0000
  H   H205      1.0  0.12717  0.04609  0.41636  1.0000
  C   C256      1.0  0.14831  0.04226  0.42229  1.0000
  H   H206      1.0  0.00464  0.21441  0.47608  1.0000
  Fe  Fe23      1.0  0.05981  0.22296  0.48501  1.0000
  H   H207      1.0  0.03403  0.20556  0.43709  1.0000
  C   C257      1.0  0.13686  0.05048  0.41498  1.0000
  H   H208      1.0  0.14757  0.03149  0.42933  1.0000
  S   S39       1.0  0.13035  0.00665  0.44418  1.0000
  H   H209      1.0  0.35561  0.00503  0.37983  1.0000
  Fe  Fe24      1.0  0.26953  0.01182  0.39156  1.0000
  H   H210      1.0  0.00915  0.13416  0.44572  1.0000
  H   H211      1.0  0.48699  0.02224  0.32797  1.0000
  H   H212      1.0  0.31695  0.04545  0.36940  1.0000
  C   C258      1.0  0.23536  0.02484  0.45409  1.0000
  C   C259      1.0  0.37638  0.01641  0.32962  1.0000
  C   C260      1.0  0.09110  0.18790  0.48812  1.0000
  C   C261      1.0  0.00608  0.22285  0.43549  1.0000
  H   H213      1.0  0.08040  0.16106  0.47139  1.0000
  H   H214      1.0  0.04694  0.06848  0.48265  1.0000
  H   H215      1.0  0.00959  0.25733  0.40846  1.0000
  P   P8        1.0  0.36473  0.01437  0.34801  1.0000
  H   H216      1.0  0.04579  0.17867  0.48100  1.0000
  C   C262      1.0  0.02943  0.28007  0.33267  1.0000
  C   C263      1.0  0.03987  0.28584  0.33581  1.0000
  C   C264      1.0  0.05516  0.28053  0.33076  1.0000
  C   C265      1.0  0.06012  0.26953  0.32249  1.0000
  C   C266      1.0  0.04979  0.26393  0.31908  1.0000
  C   C267      1.0  0.03449  0.26922  0.32409  1.0000
  H   H217      1.0  0.32159  0.01583  0.45755  1.0000
  H   H218      1.0  0.38643  0.03427  0.26763  1.0000
  S   S40       1.0  0.10497  0.00201  0.47498  1.0000
  H   H219      1.0  0.06007  0.28135  0.45914  1.0000
  C   C268      1.0  0.04499  0.20122  0.43947  1.0000
  H   H220      1.0  0.42756  0.99767  0.45785  1.0000
  H   H221      1.0  0.00376  0.22514  0.44640  1.0000
  C   C269      1.0  0.10227  0.07365  0.47015  1.0000
  H   H222      1.0  0.02402  0.25491  0.35185  1.0000
  C   C270      1.0  0.00668  0.31579  0.33907  1.0000
  C   C271      1.0  0.30120  0.99179  0.46063  1.0000
  C   C272      1.0  0.39878  0.00751  0.31216  1.0000
  S   S41       1.0  0.09180  0.03679  0.44828  1.0000
  H   H223      1.0  0.01226  0.32245  0.48794  1.0000
  H   H224      1.0  0.37272  0.01766  0.46818  1.0000
  H   H225      1.0  0.49518  0.05770  0.24992  1.0000
  H   H226      1.0  0.03632  0.29417  0.34244  1.0000
  H   H227      1.0  0.06318  0.28472  0.33358  1.0000
  H   H228      1.0  0.07199  0.26521  0.31893  1.0000
  H   H229      1.0  0.05364  0.25525  0.31286  1.0000
  H   H230      1.0  0.07214  0.29331  0.48702  1.0000
  C   C273      1.0  0.02976  0.16837  0.40400  1.0000
  C   C274      1.0  0.01412  0.18549  0.46325  1.0000
  C   C275      1.0  0.01581  0.13168  0.37767  1.0000
  C   C276      1.0  0.43295  0.05700  0.25634  1.0000
  C   C277      1.0  0.20447  0.00378  0.41345  1.0000
  C   C278      1.0  0.35222  0.03164  0.35148  1.0000
  H   H231      1.0  0.16790  0.03460  0.47213  1.0000
  C   C279      1.0  0.33536  0.01089  0.47344  1.0000
  C   C280      1.0  0.15064  0.04987  0.46155  1.0000
  H   H232      1.0  0.49592  0.99772  0.32115  1.0000
  H   H233      1.0  0.38975  0.03447  0.46157  1.0000
  S   S42       1.0  0.00764  0.24280  0.47814  1.0000
  S   S43       1.0  0.27730  0.00272  0.41275  1.0000
  C   C281      1.0  0.05401  0.29276  0.43812  1.0000
  S   S44       1.0  0.00777  0.28737  0.40830  1.0000
  C   C282      1.0  0.01245  0.18001  0.45193  1.0000
  H   H234      1.0  0.08656  0.27268  0.44845  1.0000
  C   C283      1.0  0.08408  0.16820  0.47593  1.0000
  C   C284      1.0  0.19380  0.01554  0.43437  1.0000
  H   H235      1.0  0.02384  0.18700  0.41409  1.0000
  C   C285      1.0  0.20928  0.02566  0.47614  1.0000
  C   C286      1.0  0.29690  0.04018  0.46108  1.0000
  H   H236      1.0  0.33769  0.01596  0.33825  1.0000
  S   S45       1.0  0.12510  0.02597  0.46957  1.0000
  C   C287      1.0  0.22018  0.03248  0.47657  1.0000
  H   H237      1.0  0.00762  0.18613  0.48608  1.0000
  H   H238      1.0  0.08608  0.06274  0.46884  1.0000
  C   C288      1.0  0.13949  0.06281  0.46172  1.0000
  C   C289      1.0  0.30160  0.02542  0.39177  1.0000
  C   C290      1.0  0.00606  0.30177  0.34807  1.0000
  C   C291      1.0  0.05955  0.29618  0.42280  1.0000
  H   H239      1.0  0.09605  0.27874  0.42136  1.0000
  H   H240      1.0  0.34083  0.00176  0.44033  1.0000
  H   H241      1.0  0.23415  0.06925  0.48230  1.0000
  Fe  Fe25      1.0  0.14388  0.00981  0.45837  1.0000
  H   H242      1.0  0.35184  0.06827  0.34561  1.0000
  C   C292      1.0  0.11556  0.11059  0.48759  1.0000
  H   H243      1.0  0.04534  0.17881  0.43930  1.0000
  H   H244      1.0  0.48560  0.02936  0.27070  1.0000
  C   C293      1.0  0.08444  0.28301  0.42609  1.0000
  H   H245      1.0  0.06696  0.08601  0.46405  1.0000
  C   C294      1.0  0.27622  0.02299  0.46584  1.0000
  C   C295      1.0  0.34321  0.00235  0.45051  1.0000
  C   C296      1.0  0.39428  0.02270  0.46229  1.0000
  C   C297      1.0  0.10556  0.08725  0.46902  1.0000
  C   C298      1.0  0.13657  0.07068  0.47288  1.0000
  H   H246      1.0  0.03347  0.25139  0.43328  1.0000
  H   H247      1.0  0.22767  0.03174  0.37469  1.0000
  C   C299      1.0  0.01187  0.21737  0.40718  1.0000
  C   C300      1.0  0.23315  0.03222  0.46544  1.0000
  H   H248      1.0  0.20286  0.01319  0.46443  1.0000
  C   C301      1.0  0.35736  0.04478  0.34657  1.0000
  H   H249      1.0  0.36876  0.04468  0.34057  1.0000
  P   P9        1.0  0.12311  0.08814  0.47186  1.0000
  C   C302      1.0  0.41557  0.00197  0.46019  1.0000
  Fe  Fe26      1.0  0.24076  0.00107  0.40446  1.0000
  C   C303      1.0  0.39599  0.04059  0.24457  1.0000
  H   H250      1.0  0.39638  0.01206  0.34858  1.0000
  C   C304      1.0  0.02497  0.15961  0.39770  1.0000
  C   C305      1.0  0.03369  0.27197  0.43771  1.0000
  H   H251      1.0  0.36140  0.03612  0.32024  1.0000
  C   C306      1.0  0.00368  0.27325  0.45151  1.0000
  H   H252      1.0  0.48051  0.01491  0.25892  1.0000
  H   H253      1.0  0.32585  0.06876  0.35991  1.0000
  C   C307      1.0  0.00428  0.15900  0.36066  1.0000
  C   C308      1.0  0.40529  0.01014  0.24496  1.0000
  C   C309      1.0  0.48277  0.99599  0.25039  1.0000
  C   C310      1.0  0.06392  0.28447  0.44737  1.0000
  C   C311      1.0  0.02538  0.14075  0.36881  1.0000
  H   H254      1.0  0.00629  0.30851  0.28784  1.0000
  H   H255      1.0  0.39646  0.99530  0.39451  1.0000
  C   C312      1.0  0.00132  0.21099  0.41850  1.0000
  S   S46       1.0  0.33511  0.00130  0.41229  1.0000
  H   H256      1.0  0.07899  0.02698  0.48294  1.0000
  H   H257      1.0  0.36920  0.99694  0.39997  1.0000
  C   C313      1.0  0.00006  0.17507  0.40165  1.0000
  C   C314      1.0  0.01820  0.31228  0.48430  1.0000
  H   H258      1.0  0.35187  0.99837  0.30815  1.0000
  C   C315      1.0  0.04500  0.16749  0.48666  1.0000
  H   H259      1.0  0.24564  0.01309  0.48709  1.0000
  C   C316      1.0  0.06251  0.04753  0.48145  1.0000
  H   H260      1.0  0.30158  0.99945  0.46682  1.0000
  C   C317      1.0  0.39041  0.99786  0.46679  1.0000
  H   H261      1.0  0.35132  0.00401  0.48726  1.0000
  C   C318      1.0  0.48738  0.00824  0.25109  1.0000
  H   H262      1.0  0.00148  0.16636  0.44623  1.0000
  C   C319      1.0  0.48920  0.04392  0.23910  1.0000
  H   H263      1.0  0.31300  0.99724  0.37355  1.0000
  H   H264      1.0  0.47308  0.07822  0.24671  1.0000
  C   C320      1.0  0.14547  0.06570  0.48350  1.0000
  C   C321      1.0  0.43245  0.04962  0.24588  1.0000
  S   S47       1.0  0.22000  0.99820  0.39982  1.0000
  C   C322      1.0  0.15666  0.05267  0.48328  1.0000
  H   H265      1.0  0.00889  0.31746  0.32721  1.0000
  C   C323      1.0  0.00389  0.12955  0.42731  1.0000
  C   C324      1.0  0.04871  0.32103  0.35936  1.0000
  C   C325      1.0  0.07401  0.03697  0.48726  1.0000
  C   C326      1.0  0.36009  0.99510  0.46742  1.0000
  C   C327      1.0  0.44076  0.99648  0.24088  1.0000
  H   H266      1.0  0.47262  0.99327  0.25764  1.0000
  C   C328      1.0  0.00050  0.13617  0.37790  1.0000
  H   H267      1.0  0.43722  0.02840  0.24030  1.0000
  C   C329      1.0  0.00078  0.30302  0.29843  1.0000
  C   C330      1.0  0.40597  0.99236  0.46390  1.0000
  S   S48       1.0  0.26310  0.99122  0.39174  1.0000
  C   C331      1.0  0.11828  0.09531  0.48842  1.0000
  C   C332      1.0  0.48703  0.99203  0.64950  1.0000
  C   C333      1.0  0.46248  0.07689  0.60004  1.0000
  C   C334      1.0  0.08112  0.16659  0.49125  1.0000
  C   C335      1.0  0.07338  0.05262  0.50352  1.0000
  C   C336      1.0  0.23962  0.03224  0.51103  1.0000
  C   C337      1.0  0.22420  0.05617  0.50255  1.0000
  C   C338      1.0  0.23574  0.05898  0.49041  1.0000
  C   C339      1.0  0.45189  0.99611  0.54769  1.0000
  C   C340      1.0  0.08458  0.17646  0.49735  1.0000
  H   H268      1.0  0.39777  0.00524  0.49709  1.0000
  C   C341      1.0  0.13996  0.00280  0.51522  1.0000
  H   H269      1.0  0.12582  0.99839  0.55764  1.0000
  H   H270      1.0  0.31428  0.00366  0.51640  1.0000
  S   S49       1.0  0.45632  0.06374  0.66929  1.0000
  C   C342      1.0  0.39254  0.06198  0.71650  1.0000
  C   C343      1.0  0.41490  0.05279  0.66125  1.0000
  C   C344      1.0  0.05685  0.02742  0.55972  1.0000
  C   C345      1.0  0.10759  0.10670  0.51422  1.0000
  H   H271      1.0  0.07307  0.07108  0.54249  1.0000
  S   S50       1.0  0.49870  0.06142  0.67031  1.0000
  S   S51       1.0  0.15692  0.99735  0.55143  1.0000
  H   H272      1.0  0.43580  0.01380  0.63578  1.0000
  C   C346      1.0  0.45857  0.05202  0.60586  1.0000
  C   C347      1.0  0.44995  0.01078  0.54861  1.0000
  C   C348      1.0  0.04274  0.14880  0.50925  1.0000
  Fe  Fe27      1.0  0.03925  0.22756  0.51434  1.0000
  H   H273      1.0  0.01254  0.31992  0.53401  1.0000
  S   S52       1.0  0.03794  0.23614  0.53429  1.0000
  S   S53       1.0  0.05902  0.20965  0.50807  1.0000
  C   C349      1.0  0.12482  0.00323  0.52152  1.0000
  C   C350      1.0  0.22616  0.04282  0.51286  1.0000
  H   H274      1.0  0.00108  0.28158  0.51907  1.0000
  S   S54       1.0  0.02291  0.21624  0.51177  1.0000
  C   C351      1.0  0.46533  0.02960  0.64772  1.0000
  C   C352      1.0  0.00437  0.14054  0.49927  1.0000
  H   H275      1.0  0.08925  0.02518  0.53383  1.0000
  H   H276      1.0  0.46523  0.10882  0.68698  1.0000
  S   S55       1.0  0.41536  0.00782  0.60490  1.0000
  C   C353      1.0  0.11034  0.11624  0.50047  1.0000
  C   C354      1.0  0.12168  0.04287  0.52771  1.0000
  C   C355      1.0  0.42315  0.01406  0.55295  1.0000
  H   H277      1.0  0.10745  0.08417  0.52571  1.0000
  C   C356      1.0  0.29520  0.99865  0.60913  1.0000
  H   H278      1.0  0.44210  0.99172  0.62546  1.0000
  S   S56       1.0  0.45309  0.00741  0.72095  1.0000
  C   C357      1.0  0.48863  0.07716  0.71936  1.0000
  Fe  Fe28      1.0  0.39872  0.00744  0.72741  1.0000
  S   S57       1.0  0.38502  0.01462  0.70974  1.0000
  C   C358      1.0  0.47542  0.00177  0.61263  1.0000
  C   C359      1.0  0.45049  0.99795  0.62358  1.0000
  H   H279      1.0  0.07924  0.08287  0.49512  1.0000
  C   C360      1.0  0.06128  0.06286  0.49815  1.0000
  C   C361      1.0  0.10020  0.04940  0.51637  1.0000
  H   H280      1.0  0.07540  0.15818  0.49839  1.0000
  C   C362      1.0  0.02158  0.29931  0.49475  1.0000
  C   C363      1.0  0.26184  0.99483  0.56342  1.0000
  H   H281      1.0  0.03113  0.27588  0.49825  1.0000
  C   C364      1.0  0.38765  0.00183  0.69863  1.0000
  C   C365      1.0  0.38176  0.00629  0.68581  1.0000
  C   C366      1.0  0.39983  0.00268  0.50813  1.0000
  C   C367      1.0  0.48341  0.08899  0.72668  1.0000
  C   C368      1.0  0.41518  0.07105  0.70998  1.0000
  H   H282      1.0  0.37563  0.01757  0.68283  1.0000
  C   C369      1.0  0.38390  0.99621  0.67680  1.0000
  C   C370      1.0  0.36842  0.00941  0.58966  1.0000
  C   C371      1.0  0.48463  0.10322  0.71870  1.0000
  C   C372      1.0  0.11502  0.08589  0.50223  1.0000
  C   C373      1.0  0.44446  0.05396  0.73444  1.0000
  C   C374      1.0  0.02395  0.25867  0.54873  1.0000
  C   C375      1.0  0.02551  0.25323  0.53620  1.0000
  C   C376      1.0  0.01740  0.26156  0.52544  1.0000
  H   H283      1.0  0.46758  0.15066  0.72519  1.0000
  C   C377      1.0  0.49223  0.09109  0.56983  1.0000
  H   H284      1.0  0.03028  0.25233  0.55704  1.0000
  H   H285      1.0  0.01892  0.25745  0.51565  1.0000
  H   H286      1.0  0.45885  0.06257  0.63686  1.0000
  H   H287      1.0  0.00714  0.26569  0.49153  1.0000
  S   S58       1.0  0.48215  0.99679  0.56872  1.0000
  S   S59       1.0  0.21926  0.00647  0.51861  1.0000
  C   C378      1.0  0.07639  0.08593  0.50568  1.0000
  H   H288      1.0  0.41212  0.02124  0.55484  1.0000
  H   H289      1.0  0.09310  0.19605  0.49276  1.0000
  H   H290      1.0  0.48860  0.99821  0.63823  1.0000
  C   C379      1.0  0.30257  0.00924  0.51837  1.0000
  C   C380      1.0  0.45540  0.04877  0.68446  1.0000
  C   C381      1.0  0.44191  0.04432  0.69042  1.0000
  C   C382      1.0  0.44110  0.03182  0.70184  1.0000
  C   C383      1.0  0.45364  0.02388  0.70763  1.0000
  C   C384      1.0  0.46697  0.02870  0.70217  1.0000
  C   C385      1.0  0.46786  0.04114  0.69058  1.0000
  H   H291      1.0  0.43214  0.05034  0.68600  1.0000
  H   H292      1.0  0.43090  0.02808  0.70580  1.0000
  H   H293      1.0  0.47664  0.02256  0.70670  1.0000
  H   H294      1.0  0.47827  0.04451  0.68613  1.0000
  Fe  Fe29      1.0  0.19745  0.01399  0.51145  1.0000
  H   H295      1.0  0.48422  0.03704  0.63208  1.0000
  H   H296      1.0  0.09916  0.05083  0.53870  1.0000
  H   H297      1.0  0.01821  0.21954  0.56569  1.0000
  H   H298      1.0  0.48018  0.02073  0.61643  1.0000
  H   H299      1.0  0.43604  0.02665  0.59322  1.0000
  S   S60       1.0  0.21727  0.02260  0.55168  1.0000
  S   S61       1.0  0.11170  0.00617  0.51070  1.0000
  H   H300      1.0  0.40601  0.00526  0.57998  1.0000
  C   C386      1.0  0.49191  0.09833  0.58080  1.0000
  H   H301      1.0  0.23275  0.02309  0.57275  1.0000
  C   C387      1.0  0.46101  0.06489  0.59548  1.0000
  C   C388      1.0  0.04239  0.29678  0.52329  1.0000
  H   H302      1.0  0.14390  0.00413  0.50339  1.0000
  Fe  Fe30      1.0  0.49561  0.01200  0.57013  1.0000
  H   H303      1.0  0.23949  0.99786  0.53998  1.0000
  C   C389      1.0  0.47174  0.01456  0.61827  1.0000
  H   H304      1.0  0.06694  0.09759  0.54325  1.0000
  H   H305      1.0  0.04168  0.14552  0.52109  1.0000
  C   C390      1.0  0.44152  0.01604  0.59031  1.0000
  C   C391      1.0  0.45641  0.01364  0.58248  1.0000
  H   H306      1.0  0.38264  0.02104  0.51489  1.0000
  P   P10       1.0  0.08023  0.05568  0.51794  1.0000
  H   H307      1.0  0.46227  0.02247  0.57919  1.0000
  H   H308      1.0  0.14291  0.03445  0.51431  1.0000
  C   C392      1.0  0.10631  0.04812  0.52850  1.0000
  C   C393      1.0  0.07925  0.03936  0.49842  1.0000
  H   H309      1.0  0.39222  0.05718  0.65881  1.0000
  C   C394      1.0  0.25709  0.99206  0.55209  1.0000
  H   H310      1.0  0.24090  0.02191  0.51911  1.0000
  H   H311      1.0  0.16352  0.04872  0.49148  1.0000
  C   C395      1.0  0.39497  0.00517  0.57917  1.0000
  C   C396      1.0  0.40387  0.05293  0.65420  1.0000
  C   C397      1.0  0.30193  0.01086  0.58354  1.0000
  C   C398      1.0  0.05832  0.28201  0.50571  1.0000
  C   C399      1.0  0.10976  0.04567  0.50335  1.0000
  Fe  Fe31      1.0  0.18006  0.00047  0.54004  1.0000
  C   C400      1.0  0.25290  0.00597  0.57087  1.0000
  C   C401      1.0  0.46479  0.99350  0.61522  1.0000
  C   C402      1.0  0.45976  0.05374  0.73138  1.0000
  C   C403      1.0  0.05883  0.30778  0.50175  1.0000
  C   C404      1.0  0.39129  0.01156  0.51816  1.0000
  C   C405      1.0  0.44918  0.10686  0.70772  1.0000
  C   C406      1.0  0.46053  0.02183  0.66205  1.0000
  P   P11       1.0  0.40884  0.99181  0.55501  1.0000
  H   H312      1.0  0.10545  0.04641  0.49387  1.0000
  C   C407      1.0  0.49438  0.07979  0.70394  1.0000
  H   H313      1.0  0.03408  0.29731  0.53344  1.0000
  H   H314      1.0  0.27464  0.02220  0.54546  1.0000
  C   C408      1.0  0.00677  0.17292  0.52800  1.0000
  C   C409      1.0  0.42294  0.04226  0.63518  1.0000
  C   C410      1.0  0.43559  0.01976  0.55120  1.0000
  C   C411      1.0  0.28026  0.01967  0.53472  1.0000
  C   C412      1.0  0.05676  0.05063  0.54186  1.0000
  C   C413      1.0  0.29547  0.01302  0.53201  1.0000
  C   C414      1.0  0.04795  0.30920  0.51479  1.0000
  C   C415      1.0  0.37860  0.99835  0.56819  1.0000
  H   H315      1.0  0.00160  0.24265  0.57259  1.0000
  C   C416      1.0  0.07133  0.04489  0.53466  1.0000
  H   H316      1.0  0.18020  0.00972  0.59600  1.0000
  C   C417      1.0  0.00749  0.27522  0.52731  1.0000
  C   C418      1.0  0.07833  0.03012  0.53971  1.0000
  H   H317      1.0  0.04342  0.27370  0.52538  1.0000
  H   H318      1.0  0.01964  0.11944  0.49807  1.0000
  H   H319      1.0  0.42364  0.07563  0.70145  1.0000
  S   S62       1.0  0.49405  0.09977  0.60814  1.0000
  P   P12       1.0  0.26846  0.02095  0.49640  1.0000
  Fe  Fe32      1.0  0.20619  0.01317  0.53970  1.0000
  C   C419      1.0  0.43404  0.04145  0.64258  1.0000
  H   H320      1.0  0.35902  0.01285  0.59824  1.0000
  H   H321      1.0  0.46190  0.06554  0.58387  1.0000
  C   C420      1.0  0.41585  0.06785  0.72495  1.0000
  H   H322      1.0  0.35534  0.00244  0.57900  1.0000
  C   C421      1.0  0.04320  0.13848  0.50128  1.0000
  H   H323      1.0  0.46637  0.01047  0.68294  1.0000
  C   C422      1.0  0.29726  0.01146  0.59848  1.0000
  C   C423      1.0  0.40360  0.06808  0.70580  1.0000
  C   C424      1.0  0.14488  0.99950  0.53961  1.0000
  H   H324      1.0  0.46362  0.06388  0.72697  1.0000
  H   H325      1.0  0.06338  0.31716  0.49508  1.0000
  C   C425      1.0  0.27911  0.01872  0.51009  1.0000
  C   C426      1.0  0.02864  0.28600  0.49019  1.0000
  Fe  Fe33      1.0  0.47898  0.06878  0.65950  1.0000
  C   C427      1.0  0.24324  0.00025  0.54852  1.0000
  C   C428      1.0  0.44078  0.08383  0.71633  1.0000
  H   H326      1.0  0.30331  0.02081  0.57525  1.0000
  H   H327      1.0  0.01299  0.27632  0.56036  1.0000
  H   H328      1.0  0.40333  0.07033  0.69423  1.0000
  C   C429      1.0  0.12509  0.04036  0.50264  1.0000
  H   H329      1.0  0.48800  0.06610  0.72552  1.0000
  C   C430      1.0  0.36637  0.00350  0.57882  1.0000
  C   C431      1.0  0.39297  0.99943  0.56810  1.0000
  C   C432      1.0  0.45851  0.08813  0.69302  1.0000
  C   C433      1.0  0.38272  0.01026  0.58982  1.0000
  C   C434      1.0  0.07600  0.07502  0.51873  1.0000
  P   P13       1.0  0.43099  0.07123  0.73055  1.0000
  P   P14       1.0  0.45350  0.03513  0.63454  1.0000
  H   H330      1.0  0.08794  0.03086  0.50297  1.0000
  H   H331      1.0  0.42592  0.03878  0.62476  1.0000
  H   H332      1.0  0.00629  0.32286  0.57899  1.0000
  C   C435      1.0  0.49549  0.09415  0.69600  1.0000
  H   H333      1.0  0.20442  0.00536  0.57833  1.0000
  H   H334      1.0  0.35153  0.99579  0.67007  1.0000
  H   H335      1.0  0.46566  0.08418  0.68338  1.0000
  H   H336      1.0  0.38442  0.01443  0.59848  1.0000
  S   S63       1.0  0.04128  0.24165  0.49162  1.0000
  C   C436      1.0  0.44683  0.01073  0.62924  1.0000
  S   S64       1.0  0.48859  0.02911  0.58406  1.0000
  C   C437      1.0  0.20043  0.99607  0.58599  1.0000
  H   H337      1.0  0.11626  0.07419  0.50304  1.0000
  H   H338      1.0  0.01849  0.29956  0.50639  1.0000
  H   H339      1.0  0.49030  0.14652  0.70545  1.0000
  C   C438      1.0  0.04365  0.16330  0.50203  1.0000
  C   C439      1.0  0.47010  0.01658  0.67193  1.0000
  H   H340      1.0  0.30165  0.01049  0.54062  1.0000
  C   C440      1.0  0.04962  0.04196  0.55446  1.0000
  C   C441      1.0  0.43908  0.99171  0.67809  1.0000
  H   H341      1.0  0.04234  0.12734  0.50703  1.0000
  C   C442      1.0  0.45737  0.01926  0.62645  1.0000
  C   C443      1.0  0.01681  0.32176  0.54252  1.0000
  H   H342      1.0  0.41186  0.05704  0.67124  1.0000
  C   C444      1.0  0.27210  0.02255  0.52383  1.0000
  C   C445      1.0  0.49839  0.07470  0.59710  1.0000
  C   C446      1.0  0.25130  0.03496  0.49891  1.0000
  C   C447      1.0  0.23943  0.01440  0.56701  1.0000
  H   H343      1.0  0.49819  0.07071  0.69826  1.0000
  C   C448      1.0  0.04765  0.28326  0.51877  1.0000
  H   H344      1.0  0.46444  0.08683  0.59200  1.0000
  Fe  Fe34      1.0  0.04294  0.19952  0.50325  1.0000
  H   H345      1.0  0.48067  0.11240  0.72427  1.0000
  H   H346      1.0  0.39939  0.04806  0.63550  1.0000
  S   S65       1.0  0.40945  0.02397  0.73054  1.0000
  S   S66       1.0  0.49234  0.06349  0.63785  1.0000
  C   C449      1.0  0.44985  0.07910  0.70357  1.0000
  H   H347      1.0  0.07265  0.10931  0.49603  1.0000
  C   C450      1.0  0.45791  0.05102  0.62083  1.0000
  C   C451      1.0  0.47021  0.04041  0.73427  1.0000
  H   H348      1.0  0.29120  0.99936  0.62063  1.0000
  C   C452      1.0  0.07117  0.02148  0.55230  1.0000
  H   H349      1.0  0.43858  0.99855  0.69795  1.0000
  H   H350      1.0  0.01426  0.21017  0.54594  1.0000
  H   H351      1.0  0.37931  0.99966  0.66700  1.0000
  C   C453      1.0  0.47820  0.14470  0.72807  1.0000
  C   C454      1.0  0.48949  0.02659  0.65326  1.0000
  H   H352      1.0  0.44922  0.11747  0.70947  1.0000
  H   H353      1.0  0.30767  0.99705  0.56768  1.0000
  C   C455      1.0  0.48000  0.03167  0.64329  1.0000
  H   H354      1.0  0.06653  0.11677  0.52006  1.0000
  H   H355      1.0  0.07670  0.01011  0.55614  1.0000
  Fe  Fe35      1.0  0.42960  0.00529  0.73189  1.0000
  C   C456      1.0  0.00664  0.21999  0.54925  1.0000
  H   H356      1.0  0.21718  0.04057  0.52224  1.0000
  C   C457      1.0  0.43366  0.00073  0.68854  1.0000
  C   C458      1.0  0.42144  0.01271  0.68711  1.0000
  C   C459      1.0  0.41457  0.01587  0.67524  1.0000
  C   C460      1.0  0.42005  0.00724  0.66459  1.0000
  C   C461      1.0  0.00168  0.18800  0.52809  1.0000
  H   H357      1.0  0.26029  0.02739  0.52644  1.0000
  H   H358      1.0  0.38375  0.05937  0.71325  1.0000
  H   H359      1.0  0.43836  0.04766  0.66069  1.0000
  H   H360      1.0  0.45712  0.04296  0.60219  1.0000
  H   H361      1.0  0.10820  0.12805  0.49977  1.0000
  C   C462      1.0  0.06936  0.10512  0.51971  1.0000
  H   H362      1.0  0.03840  0.04646  0.56003  1.0000
  H   H363      1.0  0.45054  0.06822  0.70201  1.0000
  C   C463      1.0  0.40790  0.04773  0.64112  1.0000
  H   H364      1.0  0.08155  0.17566  0.50919  1.0000
  C   C464      1.0  0.40502  0.99596  0.53681  1.0000
  S   S67       1.0  0.18479  0.02310  0.53151  1.0000
  C   C465      1.0  0.06954  0.09430  0.53276  1.0000
  H   H365      1.0  0.05087  0.06175  0.53767  1.0000
  C   C466      1.0  0.43243  0.99539  0.66583  1.0000
  C   C467      1.0  0.07083  0.32342  0.52290  1.0000
  H   H366      1.0  0.41683  0.01920  0.69556  1.0000
  H   H367      1.0  0.40466  0.02471  0.67463  1.0000
  H   H368      1.0  0.41440  0.00949  0.65562  1.0000
  C   C468      1.0  0.48450  0.01915  0.66762  1.0000
  S   S68       1.0  0.49622  0.06675  0.55847  1.0000
  H   H369      1.0  0.09330  0.32070  0.52523  1.0000
  C   C469      1.0  0.00589  0.28055  0.53993  1.0000
  C   C470      1.0  0.14995  0.00110  0.52426  1.0000
  H   H370      1.0  0.46339  0.08512  0.61839  1.0000
  S   S69       1.0  0.38316  0.99193  0.63139  1.0000
  C   C471      1.0  0.44044  0.09784  0.71832  1.0000
  C   C472      1.0  0.25209  0.00303  0.49262  1.0000
  C   C473      1.0  0.13106  0.03897  0.51478  1.0000
  H   H371      1.0  0.43411  0.03106  0.55212  1.0000
  C   C474      1.0  0.42993  0.04721  0.65539  1.0000
  S   S70       1.0  0.04375  0.17532  0.51285  1.0000
  H   H372      1.0  0.25648  0.00819  0.57962  1.0000
  C   C475      1.0  0.46186  0.07594  0.61492  1.0000
  S   S71       1.0  0.47978  0.09275  0.65231  1.0000
  C   C476      1.0  0.23444  0.01156  0.55592  1.0000
  H   H373      1.0  0.01533  0.16624  0.53399  1.0000
  C   C477      1.0  0.43381  0.00467  0.59466  1.0000
  C   C478      1.0  0.07285  0.10092  0.50617  1.0000
  C   C479      1.0  0.45821  0.10200  0.69507  1.0000
  H   H374      1.0  0.49186  0.01514  0.67534  1.0000
  H   H375      1.0  0.12633  0.04137  0.53724  1.0000
  H   H376      1.0  0.29503  0.02190  0.60178  1.0000
  H   H377      1.0  0.05129  0.02067  0.56942  1.0000
  C   C480      1.0  0.45950  0.06308  0.62531  1.0000
  H   H378      1.0  0.21367  0.06424  0.50393  1.0000
  C   C481      1.0  0.07292  0.07929  0.53229  1.0000
  H   H379      1.0  0.49181  0.11680  0.69756  1.0000
  H   H380      1.0  0.07124  0.31166  0.52634  1.0000
  H   H381      1.0  0.44946  0.01968  0.66553  1.0000
  H   H382      1.0  0.06221  0.27152  0.50222  1.0000
  H   H383      1.0  0.45958  0.01507  0.54764  1.0000
  H   H384      1.0  0.00621  0.19289  0.53426  1.0000
  C   C482      1.0  0.26386  0.00344  0.49846  1.0000
  S   S72       1.0  0.19979  0.99164  0.55074  1.0000
  C   C483      1.0  0.49491  0.09018  0.59454  1.0000
  C   C484      1.0  0.49100  0.14238  0.71695  1.0000
  H   H385      1.0  0.37686  0.99323  0.56027  1.0000
  H   H386      1.0  0.49468  0.03744  0.70545  1.0000
  H   H387      1.0  0.29998  0.00830  0.49725  1.0000
  H   H388      1.0  0.49797  0.11532  0.52731  1.0000
  H   H389      1.0  0.43378  0.10168  0.72817  1.0000
  C   C485      1.0  0.01415  0.27224  0.55060  1.0000
  H   H390      1.0  0.38747  0.01553  0.53991  1.0000
  C   C486      1.0  0.00809  0.32082  0.55683  1.0000
  Fe  Fe36      1.0  0.49506  0.08673  0.63144  1.0000
  H   H391      1.0  0.48194  0.04032  0.73209  1.0000
  C   C487      1.0  0.39396  0.00832  0.53241  1.0000
  H   H392      1.0  0.05591  0.07279  0.50243  1.0000
  C   C488      1.0  0.00807  0.12515  0.50110  1.0000
  C   C489      1.0  0.49578  0.07561  0.57241  1.0000
  C   C490      1.0  0.18677  0.99852  0.59598  1.0000
  C   C491      1.0  0.49087  0.10574  0.70354  1.0000
  H   H393      1.0  0.16149  0.00118  0.51929  1.0000
  C   C492      1.0  0.46359  0.99990  0.57882  1.0000
  C   C493      1.0  0.29444  0.01199  0.50748  1.0000
  C   C494      1.0  0.01322  0.32336  0.56796  1.0000
  H   H394      1.0  0.48908  0.11029  0.57876  1.0000
  H   H395      1.0  0.10817  0.00181  0.54174  1.0000
  H   H396      1.0  0.48966  0.09749  0.55936  1.0000
  C   C495      1.0  0.39305  0.05887  0.73141  1.0000
  H   H397      1.0  0.10344  0.11111  0.52418  1.0000
  H   H398      1.0  0.01316  0.14657  0.49473  1.0000
  C   C496      1.0  0.00886  0.22524  0.56045  1.0000
  C   C497      1.0  0.12981  0.99965  0.54582  1.0000
  C   C498      1.0  0.11982  0.00159  0.53682  1.0000
  H   H399      1.0  0.48650  0.99837  0.60614  1.0000
  C   C499      1.0  0.42497  0.99918  0.55257  1.0000
  C   C500      1.0  0.06389  0.29429  0.49717  1.0000
  H   H400      1.0  0.00592  0.15506  0.51931  1.0000
  C   C501      1.0  0.99954  0.23830  0.56428  1.0000
  C   C502      1.0  0.30450  0.99747  0.57927  1.0000
  C   C503      1.0  0.40473  0.06160  0.73561  1.0000
  H   H401      1.0  0.99975  0.10530  0.50748  1.0000
  H   H402      1.0  0.13233  0.03684  0.49281  1.0000
  S   S73       1.0  0.19201  0.99167  0.51967  1.0000
  C   C504      1.0  0.00145  0.16663  0.51956  1.0000
  C   C505      1.0  0.10989  0.09153  0.51509  1.0000
  H   H403      1.0  0.14402  0.07189  0.49181  1.0000
  S   S74       1.0  0.19273  0.02679  0.48949  1.0000
  C   C506      1.0  0.49565  0.18341  0.91282  1.0000
  C   C507      1.0  0.39760  0.23619  0.87598  1.0000
  C   C508      1.0  0.38244  0.27592  0.95524  1.0000
  C   C509      1.0  0.42864  0.10628  0.92088  1.0000
  H   H404      1.0  0.39843  0.16696  0.91713  1.0000
  C   C510      1.0  0.45234  0.09291  0.98437  1.0000
  S   S75       1.0  0.48440  0.13169  0.86194  1.0000
  H   H405      1.0  0.42498  0.29954  0.91514  1.0000
  C   C511      1.0  0.44344  0.13023  0.92794  1.0000
  H   H406      1.0  0.45267  0.21067  0.90105  1.0000
  H   H407      1.0  0.47038  0.12903  0.89634  1.0000
  Fe  Fe37      1.0  0.45082  0.21543  0.97994  1.0000
  C   C512      1.0  0.41670  0.27112  0.97292  1.0000
  C   C513      1.0  0.42877  0.07862  0.93990  1.0000
  S   S76       1.0  0.47517  0.21070  0.96961  1.0000
  Fe  Fe38      1.0  0.48410  0.03260  0.77504  1.0000
  S   S77       1.0  0.47503  0.03434  0.79878  1.0000
  H   H408      1.0  0.38511  0.05146  0.78902  1.0000
  H   H409      1.0  0.43374  0.23265  0.80175  1.0000
  S   S78       1.0  0.46554  0.07034  0.78609  1.0000
  H   H410      1.0  0.46104  0.29421  0.87005  1.0000
  Fe  Fe39      1.0  0.48566  0.05401  0.79272  1.0000
  H   H411      1.0  0.41000  0.09092  0.78479  1.0000
  Fe  Fe40      1.0  0.45574  0.05070  0.79015  1.0000
  Fe  Fe41      1.0  0.43356  0.27948  0.86267  1.0000
  C   C514      1.0  0.47229  0.24258  0.79242  1.0000
  H   H412      1.0  0.47818  0.24820  0.92447  1.0000
  Fe  Fe42      1.0  0.49282  0.13037  0.83805  1.0000
  C   C515      1.0  0.45026  0.02743  0.74405  1.0000
  C   C516      1.0  0.48238  0.09450  0.95045  1.0000
  S   S79       1.0  0.47470  0.08702  0.74559  1.0000
  C   C517      1.0  0.40395  0.08947  0.76531  1.0000
  H   H413      1.0  0.44502  0.16648  0.91507  1.0000
  C   C518      1.0  0.41553  0.08733  0.93579  1.0000
  S   S80       1.0  0.48208  0.11186  0.98310  1.0000
  S   S81       1.0  0.46748  0.17133  0.86676  1.0000
  P   P15       1.0  0.47854  0.29451  0.89075  1.0000
  Fe  Fe43      1.0  0.43262  0.24988  0.85755  1.0000
  S   S82       1.0  0.42955  0.23959  0.88174  1.0000
  S   S83       1.0  0.43640  0.23666  0.84012  1.0000
  C   C519      1.0  0.41547  0.10116  0.92627  1.0000
  H   H414      1.0  0.44616  0.13977  0.79953  1.0000
  S   S84       1.0  0.39205  0.03094  0.77049  1.0000
  Fe  Fe44      1.0  0.41381  0.26090  0.88526  1.0000
  S   S85       1.0  0.39286  0.25992  0.90268  1.0000
  H   H415      1.0  0.43990  0.03146  0.78049  1.0000
  S   S86       1.0  0.41492  0.27049  0.86102  1.0000
  S   S87       1.0  0.46578  0.23584  0.89267  1.0000
  C   C520      1.0  0.39639  0.24870  0.91968  1.0000
  C   C521      1.0  0.41083  0.24391  0.92252  1.0000
  C   C522      1.0  0.41325  0.23470  0.93618  1.0000
  C   C523      1.0  0.40128  0.22999  0.94678  1.0000
  C   C524      1.0  0.38691  0.23486  0.94389  1.0000
  C   C525      1.0  0.38444  0.24430  0.93048  1.0000
  H   H416      1.0  0.42014  0.24725  0.91422  1.0000
  H   H417      1.0  0.42440  0.23090  0.93833  1.0000
  H   H418      1.0  0.37763  0.23137  0.95212  1.0000
  H   H419      1.0  0.37328  0.24800  0.92836  1.0000
  C   C526      1.0  0.46017  0.18938  0.85795  1.0000
  C   C527      1.0  0.45547  0.19255  0.84464  1.0000
  C   C528      1.0  0.44817  0.20713  0.83897  1.0000
  C   C529      1.0  0.44601  0.21847  0.84644  1.0000
  C   C530      1.0  0.45133  0.21519  0.85934  1.0000
  C   C531      1.0  0.45784  0.20067  0.86534  1.0000
  H   H420      1.0  0.45688  0.18371  0.83913  1.0000
  H   H421      1.0  0.44401  0.20956  0.82902  1.0000
  H   H422      1.0  0.45082  0.22388  0.86456  1.0000
  H   H423      1.0  0.46120  0.19821  0.87573  1.0000
  H   H424      1.0  0.49746  0.10115  0.74711  1.0000
  C   C532      1.0  0.48063  0.08615  0.81026  1.0000
  C   C533      1.0  0.47671  0.09952  0.81514  1.0000
  C   C534      1.0  0.42424  0.07836  0.74728  1.0000
  H   H425      1.0  0.49496  0.30356  0.96628  1.0000
  C   C535      1.0  0.37930  0.30652  0.92964  1.0000
  H   H426      1.0  0.47315  0.08369  0.80515  1.0000
  C   C536      1.0  0.44351  0.20595  0.90818  1.0000
  C   C537      1.0  0.48409  0.21656  0.83997  1.0000
  S   S88       1.0  0.48599  0.13444  0.94197  1.0000
  C   C538      1.0  0.42477  0.28717  0.98305  1.0000
  H   H427      1.0  0.45205  0.07673  0.93783  1.0000
  C   C539      1.0  0.47028  0.22807  0.93357  1.0000
  C   C540      1.0  0.44201  0.09761  0.92495  1.0000
  C   C541      1.0  0.45218  0.13175  0.79273  1.0000
  H   H428      1.0  0.48125  0.18170  0.96297  1.0000
  H   H429      1.0  0.40534  0.08333  0.93992  1.0000
  H   H430      1.0  0.47064  0.26237  0.87234  1.0000
  S   S89       1.0  0.43448  0.23507  0.97050  1.0000
  H   H431      1.0  0.42884  0.06787  0.94724  1.0000
  H   H432      1.0  0.48525  0.09364  0.85976  1.0000
  C   C542      1.0  0.44823  0.29753  0.90453  1.0000
  Fe  Fe45      1.0  0.40241  0.01542  0.75477  1.0000
  C   C543      1.0  0.39379  0.30881  0.89978  1.0000
  H   H433      1.0  0.47165  0.14071  0.78538  1.0000
  H   H434      1.0  0.40523  0.10788  0.92301  1.0000
  C   C544      1.0  0.38307  0.31800  0.96239  1.0000
  H   H435      1.0  0.45783  0.09839  0.86854  1.0000
  C   C545      1.0  0.47841  0.18698  0.80367  1.0000
  H   H436      1.0  0.42845  0.11697  0.91343  1.0000
  H   H437      1.0  0.44612  0.07320  0.75216  1.0000
  H   H438      1.0  0.49430  0.20101  0.85698  1.0000
  C   C546      1.0  0.43981  0.04066  0.74084  1.0000
  H   H439      1.0  0.46525  0.24206  0.95895  1.0000
  C   C547      1.0  0.43066  0.31450  0.87516  1.0000
  C   C548      1.0  0.45331  0.11044  0.78345  1.0000
  H   H440      1.0  0.47980  0.07525  0.92107  1.0000
  H   H441      1.0  0.42818  0.04035  0.74337  1.0000
  C   C549      1.0  0.47477  0.17733  0.95827  1.0000
  C   C550      1.0  0.42566  0.14869  0.89316  1.0000
  C   C551      1.0  0.47412  0.21264  0.93581  1.0000
  H   H442      1.0  0.43779  0.12320  0.93727  1.0000
  C   C552      1.0  0.46175  0.13344  0.90499  1.0000
  C   C553      1.0  0.48548  0.21895  0.97622  1.0000
  C   C554      1.0  0.49516  0.12828  0.92547  1.0000
  H   H443      1.0  0.38349  0.29156  0.90003  1.0000
  C   C555      1.0  0.49755  0.29584  0.86323  1.0000
  C   C556      1.0  0.46107  0.29656  0.81525  1.0000
  H   H444      1.0  0.43995  0.29021  0.82368  1.0000
  C   C557      1.0  0.32455  0.30437  0.95823  1.0000
  Fe  Fe46      1.0  0.47573  0.06604  0.76330  1.0000
  C   C558      1.0  0.48041  0.08075  0.92923  1.0000
  H   H445      1.0  0.48483  0.14821  0.91201  1.0000
  H   H446      1.0  0.47999  0.20422  0.90691  1.0000
  H   H447      1.0  0.37301  0.99155  0.82435  1.0000
  C   C559      1.0  0.38243  0.26168  0.98020  1.0000
  H   H448      1.0  0.41165  0.19563  0.87101  1.0000
  H   H449      1.0  0.41072  0.18915  0.93383  1.0000
  C   C560      1.0  0.40128  0.23302  0.86195  1.0000
  Fe  Fe47      1.0  0.48532  0.15554  0.85454  1.0000
  C   C561      1.0  0.45755  0.22420  0.79866  1.0000
  C   C562      1.0  0.37143  0.32085  0.95502  1.0000
  H   H450      1.0  0.39945  0.30966  0.88827  1.0000
  H   H451      1.0  0.49876  0.20116  0.77043  1.0000
  H   H452      1.0  0.46668  0.11311  0.94143  1.0000
  C   C563      1.0  0.42076  0.00509  0.81389  1.0000
  C   C564      1.0  0.42114  0.01590  0.82085  1.0000
  C   C565      1.0  0.42953  0.01226  0.83166  1.0000
  H   H453      1.0  0.49610  0.17778  0.87416  1.0000
  H   H454      1.0  0.47091  0.07430  0.98107  1.0000
  S   S90       1.0  0.48063  0.12039  0.82729  1.0000
  C   C566      1.0  0.46252  0.27262  0.90344  1.0000
  C   C567      1.0  0.43655  0.27678  0.91610  1.0000
  H   H455      1.0  0.47220  0.17177  0.92563  1.0000
  H   H456      1.0  0.45256  0.09708  0.97270  1.0000
  H   H457      1.0  0.45100  0.26362  0.82370  1.0000
  C   C568      1.0  0.48105  0.23626  0.92607  1.0000
  H   H458      1.0  0.47285  0.26492  0.90004  1.0000
  C   C569      1.0  0.48877  0.20528  0.93043  1.0000
  C   C570      1.0  0.44215  0.20244  0.92345  1.0000
  Fe  Fe48      1.0  0.49544  0.12317  0.96225  1.0000
  C   C571      1.0  0.47172  0.09509  0.93005  1.0000
  H   H459      1.0  0.45860  0.29625  0.95144  1.0000
  C   C572      1.0  0.46730  0.10048  0.89955  1.0000
  H   H460      1.0  0.38615  0.27623  0.94353  1.0000
  H   H461      1.0  0.40041  0.24194  0.85233  1.0000
  H   H462      1.0  0.41452  0.00828  0.80521  1.0000
  H   H463      1.0  0.41513  0.02723  0.81768  1.0000
  H   H464      1.0  0.43008  0.02083  0.83668  1.0000
  H   H465      1.0  0.45612  0.30811  0.81553  1.0000
  H   H466      1.0  0.44660  0.01720  0.74881  1.0000
  C   C573      1.0  0.46175  0.28791  0.89992  1.0000
  H   H467      1.0  0.49339  0.23143  0.76769  1.0000
  C   C574      1.0  0.47358  0.26655  0.81565  1.0000
  H   H468      1.0  0.34319  0.29450  0.96863  1.0000
  H   H469      1.0  0.48477  0.27285  0.78387  1.0000
  C   C575      1.0  0.46675  0.13214  0.78480  1.0000
  C   C576      1.0  0.36985  0.20970  0.93362  1.0000
  C   C577      1.0  0.43557  0.29201  0.91215  1.0000
  C   C578      1.0  0.47227  0.29497  0.86403  1.0000
  H   H470      1.0  0.47355  0.18898  0.81470  1.0000
  H   H471      1.0  0.36686  0.21660  0.94166  1.0000
  C   C579      1.0  0.44197  0.08371  0.93451  1.0000
  H   H472      1.0  0.49411  0.12175  0.79590  1.0000
  C   C580      1.0  0.43031  0.19639  0.93264  1.0000
  C   C581      1.0  0.48329  0.29432  0.87142  1.0000
  C   C582      1.0  0.42126  0.04641  0.79119  1.0000
  H   H473      1.0  0.47622  0.25167  0.97351  1.0000
  H   H474      1.0  0.44533  0.99885  0.79126  1.0000
  H   H475      1.0  0.43694  0.08078  0.77611  1.0000
  C   C583      1.0  0.32905  0.32131  0.93469  1.0000
  C   C584      1.0  0.46506  0.30015  0.97700  1.0000
  C   C585      1.0  0.45428  0.27879  0.94485  1.0000
  C   C586      1.0  0.47022  0.25942  0.96549  1.0000
  S   S91       1.0  0.41870  0.30790  0.94163  1.0000
  H   H476      1.0  0.42915  0.19392  0.94453  1.0000
  S   S92       1.0  0.45136  0.25961  0.85706  1.0000
  H   H477      1.0  0.34776  0.20601  0.93780  1.0000
  H   H478      1.0  0.45073  0.25526  0.91428  1.0000
  C   C587      1.0  0.33943  0.30211  0.95915  1.0000
  C   C588      1.0  0.46248  0.17197  0.96734  1.0000
  C   C589      1.0  0.46659  0.31227  0.96517  1.0000
  H   H479      1.0  0.48115  0.20108  0.88237  1.0000
  C   C590      1.0  0.40799  0.20684  0.87265  1.0000
  C   C591      1.0  0.43430  0.07747  0.75585  1.0000
  C   C592      1.0  0.40369  0.03672  0.77814  1.0000
  H   H480      1.0  0.46716  0.29704  0.84305  1.0000
  C   C593      1.0  0.48294  0.27658  0.81115  1.0000
  C   C594      1.0  0.37746  0.19265  0.91224  1.0000
  H   H481      1.0  0.40824  0.14218  0.91136  1.0000
  C   C595      1.0  0.48972  0.20910  0.81655  1.0000
  P   P16       1.0  0.48809  0.21314  0.79757  1.0000
  H   H482      1.0  0.43012  0.13777  0.89067  1.0000
  C   C596      1.0  0.40644  0.21835  0.86029  1.0000
  C   C597      1.0  0.45578  0.26357  0.94711  1.0000
  H   H483      1.0  0.47081  0.16682  0.80848  1.0000
  H   H484      1.0  0.45082  0.16224  0.94181  1.0000
  C   C598      1.0  0.40908  0.08494  0.75182  1.0000
  C   C599      1.0  0.49650  0.99406  0.77590  1.0000
  H   H485      1.0  0.47194  0.99511  0.81947  1.0000
  C   C600      1.0  0.46793  0.11069  0.77565  1.0000
  H   H486      1.0  0.47510  0.22981  0.82145  1.0000
  C   C601      1.0  0.41993  0.29518  0.95831  1.0000
  C   C602      1.0  0.43734  0.99767  0.83576  1.0000
  H   H487      1.0  0.40049  0.05974  0.80069  1.0000
  H   H488      1.0  0.35440  0.19116  0.91858  1.0000
  H   H489      1.0  0.43423  0.12049  0.79830  1.0000
  C   C603      1.0  0.48236  0.21950  0.82547  1.0000
  C   C604      1.0  0.39707  0.04712  0.78707  1.0000
  H   H490      1.0  0.47839  0.22464  0.84680  1.0000
  C   C605      1.0  0.47721  0.31363  0.89039  1.0000
  H   H491      1.0  0.40116  0.08646  0.74510  1.0000
  C   C606      1.0  0.49297  0.20317  0.84577  1.0000
  H   H492      1.0  0.39366  0.24757  0.87729  1.0000
  C   C607      1.0  0.48632  0.19680  0.79303  1.0000
  C   C608      1.0  0.45004  0.26707  0.91167  1.0000
  C   C609      1.0  0.41418  0.17717  0.89926  1.0000
  S   S93       1.0  0.43149  0.05182  0.80074  1.0000
  C   C610      1.0  0.38444  0.20703  0.92525  1.0000
  C   C611      1.0  0.46398  0.25389  0.95723  1.0000
  H   H493      1.0  0.45655  0.21282  0.80163  1.0000
  C   C612      1.0  0.41336  0.15120  0.90475  1.0000
  C   C613      1.0  0.49560  0.22899  0.92065  1.0000
  H   H494      1.0  0.47425  0.31064  0.95489  1.0000
  H   H495      1.0  0.44741  0.30924  0.90239  1.0000
  H   H496      1.0  0.44409  0.16273  0.96840  1.0000
  H   H497      1.0  0.47988  0.28975  0.92132  1.0000
  C   C614      1.0  0.45926  0.25382  0.79230  1.0000
  C   C615      1.0  0.37412  0.28862  0.96069  1.0000
  Fe  Fe49      1.0  0.44730  0.25048  0.88148  1.0000
  C   C616      1.0  0.35909  0.20378  0.93139  1.0000
  C   C617      1.0  0.49401  0.07596  0.81224  1.0000
  C   C618      1.0  0.47155  0.22767  0.79541  1.0000
  C   C619      1.0  0.40771  0.16535  0.90788  1.0000
  C   C620      1.0  0.45372  0.16671  0.96140  1.0000
  C   C621      1.0  0.37738  0.29763  0.92122  1.0000
  C   C622      1.0  0.46044  0.28440  0.95313  1.0000
  P   P17       1.0  0.40694  0.19556  0.90306  1.0000
  S   S94       1.0  0.42341  0.99797  0.75648  1.0000
  S   S95       1.0  0.49653  0.05073  0.76955  1.0000
  H   H498      1.0  0.30790  0.31552  0.94523  1.0000
  C   C623      1.0  0.48136  0.25507  0.87335  1.0000
  C   C624      1.0  0.31938  0.31391  0.94599  1.0000
  C   C625      1.0  0.47678  0.17445  0.80016  1.0000
  C   C626      1.0  0.45737  0.16661  0.94637  1.0000
  C   C627      1.0  0.48917  0.28189  0.91634  1.0000
  H   H499      1.0  0.46569  0.20656  0.94200  1.0000
  H   H500      1.0  0.42675  0.27255  0.92223  1.0000
  C   C628      1.0  0.47837  0.17748  0.94313  1.0000
  C   C629      1.0  0.41975  0.19394  0.92654  1.0000
  H   H501      1.0  0.47355  0.01691  0.74277  1.0000
  C   C630      1.0  0.49264  0.13090  0.74671  1.0000
  H   H502      1.0  0.42710  0.30839  0.96867  1.0000
  H   H503      1.0  0.49699  0.22161  0.89225  1.0000
  H   H504      1.0  0.45965  0.17218  0.97894  1.0000
  C   C631      1.0  0.44539  0.25023  0.79556  1.0000
  C   C632      1.0  0.43344  0.31684  0.85974  1.0000
  C   C633      1.0  0.48719  0.19431  0.90342  1.0000
  H   H505      1.0  0.44783  0.28631  0.93707  1.0000
  C   C634      1.0  0.37431  0.27426  0.98574  1.0000
  C   C635      1.0  0.45813  0.27148  0.81992  1.0000
  H   H506      1.0  0.45035  0.25928  0.94127  1.0000
  H   H507      1.0  0.47819  0.25487  0.81601  1.0000
  C   C636      1.0  0.41918  0.03109  0.77576  1.0000
  C   C637      1.0  0.42800  0.03602  0.78218  1.0000
  S   S96       1.0  0.43581  0.30261  0.85041  1.0000
  C   C638      1.0  0.49800  0.22357  0.96673  1.0000
  H   H508      1.0  0.44629  0.10283  0.89364  1.0000
  H   H509      1.0  0.38007  0.18660  0.90355  1.0000
  C   C639      1.0  0.45189  0.28646  0.81984  1.0000
  H   H510      1.0  0.39323  0.25287  0.96076  1.0000
  H   H511      1.0  0.44393  0.99489  0.84407  1.0000
  S   S97       1.0  0.49135  0.01204  0.76546  1.0000
  C   C640      1.0  0.40488  0.20999  0.88675  1.0000
  C   C641      1.0  0.46478  0.09807  0.87588  1.0000
  C   C642      1.0  0.47566  0.29673  0.84866  1.0000
  H   H512      1.0  0.42985  0.30364  0.88181  1.0000
  H   H513      1.0  0.39237  0.21233  0.92670  1.0000
  C   C643      1.0  0.38652  0.26253  0.96499  1.0000
  C   C644      1.0  0.48795  0.31768  0.89494  1.0000
  C   C645      1.0  0.48026  0.09534  0.87091  1.0000
  P   P18       1.0  0.47582  0.28173  0.97503  1.0000
  H   H514      1.0  0.41347  0.26096  0.97412  1.0000
  H   H515      1.0  0.48286  0.24548  0.79068  1.0000
  C   C646      1.0  0.49097  0.18127  0.77540  1.0000
  C   C647      1.0  0.44547  0.12088  0.79208  1.0000
  C   C648      1.0  0.39545  0.31792  0.90800  1.0000
  C   C649      1.0  0.46546  0.02725  0.74057  1.0000
  S   S98       1.0  0.38962  0.00051  0.75175  1.0000
  C   C650      1.0  0.43250  0.16023  0.88493  1.0000
  C   C651      1.0  0.48765  0.19246  0.88943  1.0000
  C   C652      1.0  0.38478  0.29864  0.90641  1.0000
  H   H516      1.0  0.41278  0.27964  0.95097  1.0000
  H   H517      1.0  0.45897  0.23359  0.93785  1.0000
  H   H518      1.0  0.40950  0.21596  0.84936  1.0000
  H   H519      1.0  0.49643  0.13969  0.88851  1.0000
  C   C653      1.0  0.49527  0.28107  0.96616  1.0000
  H   H520      1.0  0.37020  0.28988  0.92607  1.0000
  C   C654      1.0  0.48928  0.09532  0.88014  1.0000
  C   C655      1.0  0.38851  0.19800  0.91487  1.0000
  H   H521      1.0  0.39218  0.09404  0.76902  1.0000
  H   H522      1.0  0.31708  0.29855  0.96697  1.0000
  C   C656      1.0  0.48284  0.09812  0.89430  1.0000
  C   C657      1.0  0.42702  0.17432  0.88817  1.0000
  C   C658      1.0  0.47283  0.10192  0.94073  1.0000
  C   C659      1.0  0.34926  0.30941  0.94777  1.0000
  H   H523      1.0  0.43283  0.18299  0.88194  1.0000
  P   P19       1.0  0.36870  0.30617  0.94837  1.0000
  C   C660      1.0  0.42917  0.08205  0.76929  1.0000
  H   H524      1.0  0.46625  0.10720  0.81364  1.0000
  C   C661      1.0  0.43281  0.20380  0.90207  1.0000
  C   C662      1.0  0.39954  0.22476  0.88831  1.0000
  H   H525      1.0  0.45981  0.26529  0.79019  1.0000
  C   C663      1.0  0.36286  0.19536  0.92062  1.0000
  C   C664      1.0  0.45839  0.14863  0.90450  1.0000
  H   H526      1.0  0.42432  0.02285  0.76911  1.0000
  C   C665      1.0  0.46831  0.27475  0.96369  1.0000
  H   H527      1.0  0.45920  0.32190  0.87863  1.0000
  C   C666      1.0  0.41397  0.08783  0.77414  1.0000
  C   C667      1.0  0.46962  0.17201  0.93722  1.0000
  H   H528      1.0  0.44228  0.15820  0.87619  1.0000
  C   C668      1.0  0.42067  0.19812  0.91121  1.0000
  H   H529      1.0  0.38986  0.30693  0.96488  1.0000
  H   H530      1.0  0.38592  0.25133  0.98767  1.0000
  H   H531      1.0  0.43394  0.20676  0.89022  1.0000
  H   H532      1.0  0.43524  0.25889  0.79601  1.0000
  P   P20       1.0  0.45897  0.10437  0.91777  1.0000
  C   C669      1.0  0.43998  0.14548  0.92728  1.0000
  C   C670      1.0  0.40578  0.05185  0.79364  1.0000
  H   H533      1.0  0.43163  0.15017  0.93594  1.0000
  C   C671      1.0  0.44454  0.23544  0.79874  1.0000
  H   H534      1.0  0.47376  0.10247  0.76905  1.0000
  C   C672      1.0  0.41614  0.28180  0.95989  1.0000
  S   S99       1.0  0.46409  0.04788  0.76695  1.0000
  C   C673      1.0  0.47483  0.12147  0.77636  1.0000
  H   H535      1.0  0.46289  0.00057  0.76737  1.0000
  H   H536      1.0  0.46446  0.15571  0.89562  1.0000
  C   C674      1.0  0.45830  0.10063  0.89013  1.0000
  H   H537      1.0  0.44810  0.10206  0.78285  1.0000
  C   C675      1.0  0.42419  0.29800  0.96989  1.0000
  C   C676      1.0  0.48614  0.10303  0.82193  1.0000
  C   C677      1.0  0.48229  0.24136  0.88305  1.0000
  S   S100      1.0  0.40370  0.21743  0.96348  1.0000
  C   C678      1.0  0.44750  0.15468  0.91557  1.0000
  S   S101      1.0  0.43121  0.27125  0.88704  1.0000
  H   H538      1.0  0.36392  0.29734  0.98053  1.0000
  Fe  Fe50      1.0  0.41911  0.21961  0.97642  1.0000
  H   H539      1.0  0.39707  0.22755  0.89903  1.0000
  C   C679      1.0  0.45435  0.12410  0.91675  1.0000
  S   S102      1.0  0.49160  0.15491  0.83059  1.0000
  C   C680      1.0  0.48310  0.17157  0.78606  1.0000
  C   C681      1.0  0.49002  0.07341  0.93894  1.0000
  H   H540      1.0  0.45020  0.20455  0.92815  1.0000
  C   C682      1.0  0.47655  0.29168  0.81079  1.0000
  H   H541      1.0  0.48205  0.16172  0.78345  1.0000
  C   C683      1.0  0.49779  0.27088  0.92532  1.0000
  C   C684      1.0  0.49098  0.08028  0.94957  1.0000
  C   C685      1.0  0.37013  0.28767  0.97605  1.0000
  C   C686      1.0  0.47899  0.13899  0.74290  1.0000
  H   H542      1.0  0.46886  0.14063  0.75130  1.0000
  H   H543      1.0  0.49004  0.09861  0.90102  1.0000
  H   H544      1.0  0.49359  0.26989  0.85731  1.0000
  P   P21       1.0  0.49351  0.18556  0.93146  1.0000
  C   C687      1.0  0.49431  0.25961  0.86523  1.0000
  H   H545      1.0  0.39027  0.32360  0.92905  1.0000
  C   C688      1.0  0.49000  0.29792  0.84062  1.0000
  C   C689      1.0  0.34392  0.31908  0.93555  1.0000
  H   H546      1.0  0.47359  0.32353  0.93031  1.0000
  C   C690      1.0  0.38849  0.31661  0.92291  1.0000
  P   P22       1.0  0.49350  0.12212  0.76570  1.0000
  C   C691      1.0  0.49623  0.17953  0.88476  1.0000
  H   H547      1.0  0.48340  0.29969  0.80727  1.0000
  C   C692      1.0  0.49229  0.13741  0.91207  1.0000
  H   H548      1.0  0.49594  0.17896  0.76449  1.0000
  C   C693      1.0  0.49258  0.19385  0.77884  1.0000
  H   H549      1.0  0.49410  0.25696  0.83674  1.0000
  H   H550      1.0  0.48643  0.32281  0.98551  1.0000
  H   H551      1.0  0.49745  0.30462  0.92695  1.0000
  H   H552      1.0  0.40515  0.05860  0.74721  1.0000
  C   C694      1.0  0.49631  0.23226  0.88477  1.0000
  H   H553      1.0  0.49515  0.27033  0.93707  1.0000
  C   C695      1.0  0.42117  0.27364  0.98444  1.0000
  H   H554      1.0  0.38471  0.05378  0.73973  1.0000
  C   C696      1.0  0.49853  0.19559  0.82252  1.0000
  H   H555      1.0  0.49665  0.30935  0.89963  1.0000
  H   H556      1.0  0.49266  0.29922  0.82878  1.0000
  H   H557      1.0  0.49151  0.27303  0.75727  1.0000
  S   S103      1.0  0.43650  0.19959  0.98315  1.0000
  H   H558      1.0  0.48347  0.10000  0.95837  1.0000
  C   C697      1.0  0.49198  0.28229  0.90117  1.0000
  C   C698      1.0  0.49638  0.27150  0.77827  1.0000
  H   H559      1.0  0.49855  0.07471  0.95702  1.0000
  C   C699      1.0  0.49762  0.31602  0.92600  1.0000
  H   H560      1.0  0.49684  0.06244  0.93815  1.0000
  C   C700      1.0  0.49752  0.32387  0.97927  1.0000
  C   C701      1.0  0.45762  0.99123  0.77164  1.0000
  C   C702      1.0  0.10069  0.43518  0.03335  1.0000
  H   H561      1.0  0.10534  0.49428  0.14454  1.0000
  H   H562      1.0  0.07223  0.47679  0.10867  1.0000
  H   H563      1.0  0.99925  0.52753  0.12098  1.0000
  S   S104      1.0  0.01908  0.52192  0.01699  1.0000
  C   C703      1.0  0.14897  0.53597  0.00290  1.0000
  C   C704      1.0  0.01799  0.54582  0.10368  1.0000
  C   C705      1.0  0.04874  0.52054  0.00480  1.0000
  C   C706      1.0  0.23232  0.48984  0.02729  1.0000
  H   H564      1.0  0.03939  0.58222  0.10798  1.0000
  C   C707      1.0  0.05325  0.53075  0.02735  1.0000
  C   C708      1.0  0.05349  0.52593  0.06849  1.0000
  C   C709      1.0  0.04443  0.58399  0.08449  1.0000
  C   C710      1.0  0.04777  0.46092  0.10393  1.0000
  C   C711      1.0  0.15202  0.54534  0.01012  1.0000
  C   C712      1.0  0.04109  0.47239  0.09372  1.0000
  H   H565      1.0  0.32635  0.45654  0.01906  1.0000
  H   H566      1.0  0.06241  0.49781  0.04539  1.0000
  S   S105      1.0  0.01491  0.42750  0.20439  1.0000
  C   C713      1.0  0.02880  0.47554  0.04051  1.0000
  H   H567      1.0  0.03762  0.44698  0.19766  1.0000
  H   H568      1.0  0.07980  0.41155  0.05665  1.0000
  C   C714      1.0  0.05139  0.56133  0.10204  1.0000
  S   S106      1.0  0.01233  0.45646  0.16826  1.0000
  H   H569      1.0  0.28175  0.50241  0.03345  1.0000
  H   H570      1.0  0.05417  0.48442  0.16977  1.0000
  H   H571      1.0  0.99912  0.56042  0.07590  1.0000
  C   C715      1.0  0.45687  0.58700  0.01870  1.0000
  C   C716      1.0  0.09923  0.44538  0.11333  1.0000
  C   C717      1.0  0.46694  0.60525  0.99861  1.0000
  C   C718      1.0  0.06614  0.50183  0.08022  1.0000
  H   H572      1.0  0.11351  0.53909  0.02704  1.0000
  H   H573      1.0  0.02499  0.57242  0.02123  1.0000
  H   H574      1.0  0.04198  0.48274  0.07092  1.0000
  C   C719      1.0  0.04471  0.57642  0.09903  1.0000
  C   C720      1.0  0.06006  0.46330  0.07361  1.0000
  H   H575      1.0  0.03089  0.48010  0.09747  1.0000
  H   H576      1.0  0.47790  0.59235  0.01634  1.0000
  C   C721      1.0  0.07383  0.49361  0.04681  1.0000
  H   H577      1.0  0.09926  0.46171  0.05629  1.0000
  H   H578      1.0  0.29895  0.54418  0.03793  1.0000
  S   S107      1.0  0.01448  0.50750  0.05958  1.0000
  C   C722      1.0  0.08333  0.55386  0.05152  1.0000
  Fe  Fe51      1.0  0.01890  0.55347  0.15596  1.0000
  C   C723      1.0  0.30405  0.44188  0.00087  1.0000
  H   H579      1.0  0.11483  0.47952  0.05174  1.0000
  H   H580      1.0  0.04453  0.43481  0.17647  1.0000
  C   C724      1.0  0.04946  0.48584  0.21441  1.0000
  C   C725      1.0  0.03254  0.56912  0.02873  1.0000
  H   H581      1.0  0.27366  0.52247  0.04720  1.0000
  H   H582      1.0  0.04702  0.51659  0.99607  1.0000
  H   H583      1.0  0.02208  0.52036  0.19749  1.0000
  H   H584      1.0  0.11075  0.43535  0.02473  1.0000
  H   H585      1.0  0.22549  0.46949  0.03118  1.0000
  H   H586      1.0  0.09555  0.45860  0.03159  1.0000
  H   H587      1.0  0.01888  0.62136  0.20826  1.0000
  C   C726      1.0  0.05791  0.47944  0.02831  1.0000
  C   C727      1.0  0.06500  0.52795  0.01539  1.0000
  C   C728      1.0  0.03920  0.52862  0.02800  1.0000
  C   C729      1.0  0.03685  0.52380  0.01657  1.0000
  H   H588      1.0  0.03012  0.53101  0.03720  1.0000
  C   C730      1.0  0.03968  0.46991  0.04903  1.0000
  C   C731      1.0  0.08542  0.51172  0.14431  1.0000
  H   H589      1.0  0.04240  0.47181  0.19421  1.0000
  C   C732      1.0  0.09211  0.44839  0.03743  1.0000
  H   H590      1.0  0.10792  0.43817  0.10693  1.0000
  H   H591      1.0  0.09061  0.51993  0.14535  1.0000
  C   C733      1.0  0.06689  0.45196  0.08395  1.0000
  C   C734      1.0  0.07975  0.47838  0.05078  1.0000
  C   C735      1.0  0.06063  0.45069  0.09906  1.0000
  H   H592      1.0  0.06568  0.44174  0.10704  1.0000
  C   C736      1.0  0.04709  0.48472  0.01972  1.0000
  C   C737      1.0  0.04728  0.47368  0.07864  1.0000
  C   C738      1.0  0.00924  0.43496  0.22041  1.0000
  C   C739      1.0  0.00322  0.52547  0.17082  1.0000
  H   H593      1.0  0.99896  0.47164  0.12472  1.0000
  P   P23       1.0  0.06824  0.46542  0.05413  1.0000
  H   H594      1.0  0.01984  0.55768  0.11878  1.0000
  C   C740      1.0  0.09713  0.44223  0.12870  1.0000
  C   C741      1.0  0.08600  0.45158  0.13696  1.0000
  C   C742      1.0  0.07670  0.46405  0.12991  1.0000
  P   P24       1.0  0.06302  0.47670  0.14048  1.0000
  C   C743      1.0  0.07185  0.49050  0.14170  1.0000
  C   C744      1.0  0.04749  0.48537  0.13138  1.0000
  C   C745      1.0  0.03414  0.48045  0.13647  1.0000
  C   C746      1.0  0.02204  0.48741  0.12967  1.0000
  C   C747      1.0  0.02326  0.49913  0.11750  1.0000
  C   C748      1.0  0.03658  0.50395  0.11220  1.0000
  C   C749      1.0  0.04861  0.49720  0.11914  1.0000
  C   C750      1.0  0.06364  0.50505  0.14217  1.0000
  C   C751      1.0  0.07040  0.51558  0.14349  1.0000
  C   C752      1.0  0.08693  0.48668  0.14263  1.0000
  C   C753      1.0  0.05610  0.46680  0.15885  1.0000
  C   C754      1.0  0.05242  0.47349  0.17104  1.0000
  C   C755      1.0  0.04579  0.46636  0.18498  1.0000
  C   C756      1.0  0.04309  0.45238  0.18694  1.0000
  C   C757      1.0  0.04704  0.44549  0.17496  1.0000
  C   C758      1.0  0.05338  0.45271  0.16093  1.0000
  H   H595      1.0  0.10420  0.43258  0.13422  1.0000
  H   H596      1.0  0.08476  0.44913  0.14883  1.0000
  H   H597      1.0  0.03290  0.47132  0.14573  1.0000
  H   H598      1.0  0.15402  0.38388  0.00890  1.0000
  H   H599      1.0  0.02433  0.53551  0.10893  1.0000
  H   H600      1.0  0.03751  0.51303  0.10276  1.0000
  H   H601      1.0  0.05874  0.50128  0.11496  1.0000
  H   H602      1.0  0.05198  0.50837  0.14159  1.0000
  H   H603      1.0  0.06387  0.52674  0.14399  1.0000
  H   H604      1.0  0.09350  0.47553  0.14246  1.0000
  C   C759      1.0  0.05084  0.57648  0.07292  1.0000
  H   H605      1.0  0.99910  0.47276  0.19876  1.0000
  H   H606      1.0  0.05565  0.44751  0.15165  1.0000
  C   C760      1.0  0.26979  0.52398  0.03721  1.0000
  C   C761      1.0  0.26004  0.53721  0.03232  1.0000
  C   C762      1.0  0.25460  0.53894  0.01977  1.0000
  C   C763      1.0  0.25898  0.52751  0.01208  1.0000
  C   C764      1.0  0.26923  0.51440  0.01649  1.0000
  C   C765      1.0  0.27441  0.51263  0.02932  1.0000
  C   C766      1.0  0.17484  0.43581  0.01752  1.0000
  C   C767      1.0  0.29041  0.48610  0.01148  1.0000
  C   C768      1.0  0.25813  0.48976  0.01461  1.0000
  C   C769      1.0  0.26034  0.47485  0.01408  1.0000
  C   C770      1.0  0.24865  0.46755  0.02023  1.0000
  C   C771      1.0  0.23467  0.47502  0.02682  1.0000
  C   C772      1.0  0.01104  0.49625  0.16727  1.0000
  S   S108      1.0  0.20708  0.48710  0.00607  1.0000
  H   H607      1.0  0.08983  0.56183  0.00449  1.0000
  H   H608      1.0  0.00015  0.53670  0.17234  1.0000
  C   C773      1.0  0.31642  0.46498  0.01712  1.0000
  C   C774      1.0  0.30297  0.46488  0.02750  1.0000
  C   C775      1.0  0.29000  0.47539  0.02471  1.0000
  H   H609      1.0  0.19684  0.51670  0.01006  1.0000
  H   H610      1.0  0.03288  0.61526  0.18414  1.0000
  C   C776      1.0  0.01196  0.54639  0.09177  1.0000
  C   C777      1.0  0.44436  0.58993  0.01264  1.0000
  S   S109      1.0  0.08200  0.53223  0.01390  1.0000
  Fe  Fe52      1.0  0.01847  0.58412  0.15855  1.0000
  H   H611      1.0  0.14455  0.52647  0.00926  1.0000
  H   H612      1.0  0.25640  0.54597  0.03845  1.0000
  H   H613      1.0  0.24657  0.54893  0.01620  1.0000
  H   H614      1.0  0.25386  0.52863  0.00303  1.0000
  C   C778      1.0  0.30307  0.56079  0.00150  1.0000
  H   H615      1.0  0.27107  0.46875  0.00904  1.0000
  H   H616      1.0  0.25033  0.45612  0.01975  1.0000
  H   H617      1.0  0.17719  0.41906  0.99433  1.0000
  S   S110      1.0  0.02006  0.44337  0.13130  1.0000
  H   H618      1.0  0.15008  0.54294  0.02203  1.0000
  S   S111      1.0  0.12184  0.50857  0.01204  1.0000
  C   C779      1.0  0.17352  0.41058  0.99171  1.0000
  H   H619      1.0  0.27959  0.47496  0.03274  1.0000
  H   H620      1.0  0.00039  0.59174  0.18540  1.0000
  C   C780      1.0  0.30442  0.54858  0.99553  1.0000
  S   S112      1.0  0.20692  0.57431  0.99918  1.0000
  H   H621      1.0  0.01407  0.48514  0.16553  1.0000
  H   H622      1.0  0.05713  0.47607  0.21892  1.0000
  C   C781      1.0  0.05222  0.55923  0.04816  1.0000
  H   H623      1.0  0.12312  0.55911  0.03024  1.0000
  H   H624      1.0  0.03222  0.55908  0.06543  1.0000
  C   C782      1.0  0.03248  0.48303  0.02589  1.0000
  C   C783      1.0  0.30039  0.54542  0.02613  1.0000
  H   H625      1.0  0.05039  0.58250  0.06172  1.0000
  H   H626      1.0  0.08691  0.52717  0.07378  1.0000
  C   C784      1.0  0.07801  0.50773  0.07993  1.0000
  C   C785      1.0  0.07764  0.52275  0.07388  1.0000
  H   H627      1.0  0.30341  0.52546  0.00091  1.0000
  C   C786      1.0  0.11204  0.55764  0.03619  1.0000
  C   C787      1.0  0.05770  0.55375  0.09050  1.0000
  C   C788      1.0  0.06536  0.53198  0.06808  1.0000
  H   H628      1.0  0.08216  0.57261  0.06048  1.0000
  C   C789      1.0  0.09238  0.54443  0.04208  1.0000
  H   H629      1.0  0.04992  0.49043  0.00836  1.0000
  H   H630      1.0  0.29996  0.56869  0.02125  1.0000
  H   H631      1.0  0.05499  0.53450  0.03618  1.0000
  C   C790      1.0  0.30311  0.53490  0.00512  1.0000
  C   C791      1.0  0.05417  0.49451  0.20060  1.0000
  C   C792      1.0  0.04418  0.50693  0.19465  1.0000
  H   H632      1.0  0.06550  0.49155  0.19440  1.0000
  C   C793      1.0  0.05744  0.56127  0.07584  1.0000
  H   H633      1.0  0.03891  0.59560  0.08228  1.0000
  H   H634      1.0  0.29071  0.43219  0.02113  1.0000
  C   C794      1.0  0.08884  0.56518  0.05327  1.0000
  Fe  Fe53      1.0  0.10095  0.51616  0.00314  1.0000
  H   H635      1.0  0.01504  0.56752  0.04833  1.0000
  C   C795      1.0  0.02953  0.51080  0.20255  1.0000
  C   C796      1.0  0.04793  0.56730  0.02317  1.0000
  C   C797      1.0  0.09443  0.47340  0.05306  1.0000
  C   C798      1.0  0.01808  0.51906  0.16527  1.0000
  C   C799      1.0  0.02694  0.56631  0.04397  1.0000
  H   H636      1.0  0.05232  0.56909  0.01136  1.0000
  C   C800      1.0  0.02473  0.50228  0.21656  1.0000
  H   H637      1.0  0.06961  0.56057  0.02822  1.0000
  P   P25       1.0  0.06470  0.55151  0.06087  1.0000
  H   H638      1.0  0.22126  0.49578  0.03182  1.0000
  S   S113      1.0  0.19301  0.42421  0.01547  1.0000
  C   C801      1.0  0.30153  0.53327  0.02030  1.0000
  H   H639      1.0  0.01568  0.44934  0.08058  1.0000
  C   C802      1.0  0.29161  0.43638  0.00938  1.0000
  C   C803      1.0  0.02214  0.57871  0.23098  1.0000
  H   H640      1.0  0.10302  0.41165  0.03716  1.0000
  H   H641      1.0  0.08832  0.53573  0.04044  1.0000
  H   H642      1.0  0.23665  0.62272  0.98939  1.0000
  H   H643      1.0  0.03341  0.49939  0.15943  1.0000
  H   H644      1.0  0.02935  0.42320  0.22822  1.0000
  C   C804      1.0  0.14818  0.43844  0.02775  1.0000
  H   H645      1.0  0.45783  0.57876  0.02881  1.0000
  C   C805      1.0  0.00373  0.55990  0.08515  1.0000
  C   C806      1.0  0.15857  0.55717  0.00185  1.0000
  C   C807      1.0  0.15748  0.45972  0.01250  1.0000
  C   C808      1.0  0.17215  0.45091  0.01086  1.0000
  H   H646      1.0  0.24149  0.50880  0.02135  1.0000
  C   C809      1.0  0.16277  0.42963  0.02592  1.0000
  C   C810      1.0  0.00463  0.59795  0.19046  1.0000
  H   H647      1.0  0.30470  0.49430  0.99085  1.0000
  C   C811      1.0  0.01488  0.61480  0.20334  1.0000
  S   S114      1.0  0.16486  0.56751  0.01039  1.0000
  H   H648      1.0  0.01394  0.50443  0.11210  1.0000
  H   H649      1.0  0.07212  0.51978  0.99533  1.0000
  C   C812      1.0  0.00196  0.60962  0.21076  1.0000
  H   H650      1.0  0.01745  0.47426  0.04533  1.0000
  C   C813      1.0  0.16525  0.40175  0.00308  1.0000
  C   C814      1.0  0.01217  0.45432  0.09014  1.0000
  C   C815      1.0  0.30100  0.55921  0.01674  1.0000
  S   S115      1.0  0.01065  0.56505  0.17481  1.0000
  S   S116      1.0  0.12699  0.46421  0.02381  1.0000
  H   H651      1.0  0.27631  0.55365  0.99182  1.0000
  C   C816      1.0  0.00178  0.62935  0.14828  1.0000
  C   C817      1.0  0.20807  0.51557  0.00338  1.0000
  H   H652      1.0  0.16475  0.41805  0.03126  1.0000
  C   C818      1.0  0.01297  0.45310  0.11544  1.0000
  H   H653      1.0  0.16268  0.40348  0.01424  1.0000
  C   C819      1.0  0.14547  0.45350  0.02102  1.0000
  H   H654      1.0  0.06646  0.49018  0.08468  1.0000
  C   C820      1.0  0.03672  0.56149  0.05364  1.0000
  C   C821      1.0  0.09369  0.49727  0.14387  1.0000
  H   H655      1.0  0.06247  0.54200  0.09316  1.0000
  H   H656      1.0  0.04768  0.51356  0.18381  1.0000
  C   C822      1.0  0.07478  0.43502  0.05560  1.0000
  C   C823      1.0  0.09732  0.49863  0.04665  1.0000
  H   H657      1.0  0.04280  0.45982  0.11561  1.0000
  H   H658      1.0  0.06459  0.43486  0.06400  1.0000
  H   H659      1.0  0.09192  0.46040  0.09426  1.0000
  H   H660      1.0  0.30110  0.52256  0.02756  1.0000
  C   C824      1.0  0.08258  0.50365  0.04489  1.0000
  H   H661      1.0  0.10743  0.57574  0.04703  1.0000
  C   C825      1.0  0.08331  0.42182  0.05139  1.0000
  C   C826      1.0  0.07939  0.44833  0.04898  1.0000
  C   C827      1.0  0.10326  0.48349  0.05073  1.0000
  H   H662      1.0  0.04379  0.53264  0.06428  1.0000
  C   C828      1.0  0.07902  0.46719  0.11444  1.0000
  H   H663      1.0  0.05127  0.55545  0.11338  1.0000
  H   H664      1.0  0.07783  0.51536  0.04218  1.0000
  H   H665      1.0  0.07703  0.44411  0.08039  1.0000
  C   C829      1.0  0.09023  0.45789  0.10620  1.0000
  C   C830      1.0  0.05420  0.47224  0.04313  1.0000
  H   H666      1.0  0.08758  0.50064  0.08422  1.0000
  H   H667      1.0  0.06912  0.48109  0.02342  1.0000
  C   C831      1.0  0.09635  0.42188  0.04037  1.0000
  H   H668      1.0  0.31279  0.44170  0.00609  1.0000
  H   H669      1.0  0.03659  0.46392  0.06025  1.0000
  P   P26       1.0  0.00546  0.50627  0.22639  1.0000
  C   C832      1.0  0.10664  0.54634  0.03441  1.0000
  C   C833      1.0  0.01778  0.60287  0.18321  1.0000
  H   H670      1.0  0.03117  0.48251  0.23278  1.0000
  Fe  Fe54      1.0  0.00684  0.57984  0.13387  1.0000
  C   C834      1.0  0.02280  0.61136  0.18968  1.0000
  S   S117      1.0  0.02829  0.59850  0.16619  1.0000
  H   H671      1.0  0.02397  0.48771  0.01938  1.0000
  C   C835      1.0  0.03476  0.48961  0.22230  1.0000
  C   C836      1.0  0.05775  0.56242  0.03283  1.0000
  S   S118      1.0  0.22088  0.44623  0.01895  1.0000
  Fe  Fe55      1.0  0.00538  0.52169  0.04003  1.0000
  H   H672      1.0  0.01169  0.48371  0.13392  1.0000
  C   C837      1.0  0.02203  0.50434  0.16382  1.0000
  C   C838      1.0  0.00183  0.46792  0.08985  1.0000
  C   C839      1.0  0.00420  0.62694  0.13406  1.0000
  S   S119      1.0  0.01514  0.52991  0.08568  1.0000
  C   C840      1.0  0.06292  0.52229  0.00440  1.0000
  C   C841      1.0  0.05390  0.51094  0.07451  1.0000
  H   H673      1.0  0.10416  0.50647  0.04478  1.0000
  H   H674      1.0  0.04456  0.50651  0.07484  1.0000
  H   H675      1.0  0.30248  0.45639  0.03754  1.0000
  S   S120      1.0  0.02914  0.57162  0.14030  1.0000
  S   S121      1.0  0.00424  0.58761  0.11015  1.0000
  C   C842      1.0  0.10316  0.56702  0.04564  1.0000
  Fe  Fe56      1.0  0.00242  0.43949  0.18613  1.0000
  H   H676      1.0  0.13897  0.43358  0.03443  1.0000
  S   S122      1.0  0.03146  0.52976  0.15935  1.0000
  S   S123      1.0  0.26518  0.42867  0.01398  1.0000
  H   H677      1.0  0.01400  0.48480  0.20685  1.0000
  C   C843      1.0  0.01525  0.56705  0.23338  1.0000
  H   H678      1.0  0.15555  0.47138  0.00743  1.0000
  H   H679      1.0  0.43335  0.60242  0.99514  1.0000
  H   H680      1.0  0.01114  0.62699  0.15352  1.0000
  C   C844      1.0  0.16040  0.39073  0.00005  1.0000
  Fe  Fe57      1.0  0.12266  0.48633  0.00817  1.0000
  S   S124      1.0  0.10051  0.49354  0.00152  1.0000
  Fe  Fe58      1.0  0.21207  0.43584  0.00593  1.0000
  H   H681      1.0  0.43560  0.58397  0.01808  1.0000
  P   P27       1.0  0.27345  0.49905  0.00742  1.0000
  C   C845      1.0  0.00270  0.46680  0.11512  1.0000
  C   C846      1.0  0.31695  0.47565  0.00397  1.0000
  C   C847      1.0  0.00735  0.57194  0.10274  1.0000
  C   C848      1.0  0.30404  0.48627  0.00121  1.0000
  S   S125      1.0  0.23514  0.42508  0.99524  1.0000
  C   C849      1.0  0.21467  0.52774  0.99848  1.0000
  H   H682      1.0  0.47584  0.61102  0.99332  1.0000
  C   C850      1.0  0.24393  0.49722  0.02117  1.0000
  H   H683      1.0  0.18130  0.45590  0.00452  1.0000
  C   C851      1.0  0.00161  0.57274  0.09051  1.0000
  C   C852      1.0  0.21585  0.50201  0.99956  1.0000
  C   C853      1.0  0.28036  0.43618  0.00277  1.0000
  H   H684      1.0  0.41222  0.43769  0.00000  1.0000
  Fe  Fe59      1.0  0.00241  0.52646  0.07083  1.0000
  H   H685      1.0  0.01381  0.56376  0.22404  1.0000
  H   H686      1.0  0.20857  0.53814  0.00157  1.0000
  Fe  Fe60      1.0  0.24376  0.43799  0.00577  1.0000
  H   H687      1.0  0.35587  0.40780  0.98976  1.0000
  C   C854      1.0  0.44311  0.60051  0.99956  1.0000
  C   C855      1.0  0.22906  0.52643  0.98968  1.0000
  C   C856      1.0  0.01793  0.44707  0.10280  1.0000
  Fe  Fe61      1.0  0.21951  0.46546  0.99972  1.0000
  C   C857      1.0  0.11074  0.55601  0.98950  1.0000
  H   H688      1.0  0.01543  0.62265  0.12835  1.0000
  Fe  Fe62      1.0  0.18538  0.57366  0.99439  1.0000
  C   C858      1.0  0.01862  0.43076  0.23048  1.0000
  H   H689      1.0  0.32724  0.47540  0.99567  1.0000
  H   H690      1.0  0.02599  0.58443  0.21980  1.0000
  H   H691      1.0  0.30356  0.57157  0.99446  1.0000
  C   C859      1.0  0.46816  0.59465  0.01168  1.0000
  C   C860      1.0  0.09698  0.56532  0.99396  1.0000
  C   C861      1.0  0.01541  0.55843  0.10934  1.0000
  C   C862      1.0  0.00207  0.48698  0.21103  1.0000
  H   H692      1.0  0.02596  0.43657  0.10293  1.0000
  Fe  Fe63      1.0  0.00497  0.44764  0.15286  1.0000
  H   H693      1.0  0.45674  0.63547  0.99806  1.0000
  C   C863      1.0  0.45443  0.60824  0.99237  1.0000
  C   C864      1.0  0.44953  0.64371  0.99145  1.0000
  C   C865      1.0  0.23038  0.50057  0.99097  1.0000
  H   H694      1.0  0.30269  0.40561  0.98986  1.0000
  H   H695      1.0  0.11428  0.54539  0.99657  1.0000
  H   H696      1.0  0.00777  0.53786  0.98902  1.0000
  C   C866      1.0  0.00221  0.39925  0.31088  1.0000
  H   H697      1.0  0.00438  0.32906  0.40867  1.0000
  H   H698      1.0  0.00437  0.55103  0.24973  1.0000
  H   H699      1.0  0.07866  0.55889  0.28409  1.0000
  C   C867      1.0  0.00114  0.32620  0.36069  1.0000
  C   C868      1.0  0.03209  0.39183  0.33845  1.0000
  H   H700      1.0  0.04103  0.41030  0.26054  1.0000
  H   H701      1.0  0.02131  0.43288  0.25131  1.0000
  H   H702      1.0  0.05051  0.34650  0.29907  1.0000
  C   C869      1.0  0.01384  0.50037  0.26732  1.0000
  C   C870      1.0  0.03022  0.63801  0.48794  1.0000
  H   H703      1.0  0.10473  0.63532  0.36595  1.0000
  C   C871      1.0  0.05066  0.57046  0.26516  1.0000
  S   S126      1.0  0.02504  0.36348  0.37639  1.0000
  C   C872      1.0  0.01732  0.34123  0.41389  1.0000
  C   C873      1.0  0.01410  0.43624  0.24351  1.0000
  C   C874      1.0  0.05554  0.56751  0.29327  1.0000
  H   H704      1.0  0.01353  0.35140  0.40638  1.0000
  H   H705      1.0  0.06140  0.63239  0.39324  1.0000
  C   C875      1.0  0.02362  0.58334  0.24296  1.0000
  H   H706      1.0  0.02067  0.50425  0.27208  1.0000
  H   H707      1.0  0.01953  0.44308  0.32773  1.0000
  H   H708      1.0  0.08407  0.62216  0.37596  1.0000
  C   C876      1.0  0.00434  0.62634  0.25599  1.0000
  C   C877      1.0  0.00697  0.34181  0.28637  1.0000
  C   C878      1.0  0.09485  0.63977  0.37355  1.0000
  C   C879      1.0  0.03160  0.39555  0.35165  1.0000
  C   C880      1.0  0.00937  0.41056  0.33563  1.0000
  C   C881      1.0  0.00494  0.50030  0.24598  1.0000
  C   C882      1.0  0.00874  0.44507  0.31014  1.0000
  H   H709      1.0  0.05291  0.35570  0.35652  1.0000
  H   H710      1.0  0.03190  0.60358  0.28132  1.0000
  C   C883      1.0  0.00906  0.41437  0.34874  1.0000
  Fe  Fe64      1.0  0.99996  0.36835  0.38044  1.0000
  H   H711      1.0  0.03984  0.38929  0.35820  1.0000
  H   H712      1.0  0.10344  0.65213  0.40289  1.0000
  H   H713      1.0  0.00453  0.61057  0.43750  1.0000
  H   H714      1.0  0.99914  0.33569  0.36545  1.0000
  C   C884      1.0  0.00957  0.56172  0.29718  1.0000
  H   H715      1.0  0.02070  0.51279  0.24544  1.0000
  C   C885      1.0  0.02135  0.34933  0.48573  1.0000
  H   H716      1.0  0.00400  0.33884  0.33856  1.0000
  H   H717      1.0  0.02577  0.65046  0.42491  1.0000
  H   H718      1.0  0.99917  0.40927  0.26128  1.0000
  C   C886      1.0  0.02767  0.33468  0.37483  1.0000
  H   H719      1.0  0.02188  0.33670  0.30124  1.0000
  C   C887      1.0  0.00659  0.61094  0.25983  1.0000
  C   C888      1.0  0.05281  0.41642  0.28819  1.0000
  C   C889      1.0  0.01381  0.50521  0.25225  1.0000
  H   H720      1.0  0.01974  0.55394  0.29354  1.0000
  H   H721      1.0  0.00041  0.41630  0.32987  1.0000
  H   H722      1.0  0.05899  0.42232  0.26445  1.0000
  H   H723      1.0  0.00119  0.35116  0.44266  1.0000
  C   C890      1.0  0.05507  0.33338  0.35459  1.0000
  C   C891      1.0  0.04359  0.40934  0.30035  1.0000
  H   H724      1.0  0.03203  0.57669  0.29935  1.0000
  H   H725      1.0  0.04098  0.38289  0.33481  1.0000
  C   C892      1.0  0.02080  0.39910  0.33049  1.0000
  H   H726      1.0  0.01652  0.36968  0.33973  1.0000
  C   C893      1.0  0.06922  0.65137  0.39297  1.0000
  H   H727      1.0  0.00683  0.55898  0.27078  1.0000
  H   H728      1.0  0.11512  0.64744  0.42407  1.0000
  C   C894      1.0  0.01825  0.57628  0.25751  1.0000
  H   H729      1.0  0.02180  0.34813  0.47473  1.0000
  H   H730      1.0  0.04451  0.40918  0.31134  1.0000
  H   H731      1.0  0.02871  0.59263  0.24083  1.0000
  C   C895      1.0  0.00973  0.44837  0.32306  1.0000
  C   C896      1.0  0.04178  0.41001  0.27165  1.0000
  H   H732      1.0  0.03417  0.64532  0.47776  1.0000
  H   H733      1.0  0.00531  0.48649  0.28778  1.0000
  C   C897      1.0  0.00417  0.32793  0.34540  1.0000
  C   C898      1.0  0.03409  0.34699  0.37013  1.0000
  H   H734      1.0  0.05919  0.65570  0.40044  1.0000
  C   C899      1.0  0.03856  0.57460  0.27649  1.0000
  C   C900      1.0  0.00515  0.49046  0.27618  1.0000
  H   H735      1.0  0.00603  0.35537  0.31581  1.0000
  H   H736      1.0  0.01774  0.43724  0.30478  1.0000
  H   H737      1.0  0.04380  0.33112  0.32415  1.0000
  H   H738      1.0  0.01478  0.63223  0.47905  1.0000
  C   C901      1.0  0.06749  0.56325  0.28198  1.0000
  H   H739      1.0  0.01011  0.64543  0.25845  1.0000
  C   C902      1.0  0.03908  0.34296  0.32186  1.0000
  C   C903      1.0  0.00007  0.44575  0.24665  1.0000
  C   C904      1.0  0.01210  0.32870  0.41522  1.0000
  C   C905      1.0  0.02746  0.34063  0.42220  1.0000
  C   C906      1.0  0.02003  0.40673  0.35685  1.0000
  C   C907      1.0  0.03708  0.36698  0.30515  1.0000
  P   P28       1.0  0.02108  0.39371  0.31383  1.0000
  H   H740      1.0  0.06071  0.42161  0.28989  1.0000
  C   C908      1.0  0.02749  0.37376  0.31659  1.0000
  C   C909      1.0  0.03334  0.40258  0.29823  1.0000
  H   H741      1.0  0.03159  0.35035  0.42098  1.0000
  C   C910      1.0  0.02185  0.62519  0.27048  1.0000
  H   H742      1.0  0.02658  0.34292  0.34410  1.0000
  C   C911      1.0  0.01150  0.34349  0.29833  1.0000
  C   C912      1.0  0.04114  0.57322  0.29054  1.0000
  H   H743      1.0  0.01709  0.33512  0.38258  1.0000
  C   C913      1.0  0.01202  0.63347  0.26126  1.0000
  C   C914      1.0  0.02941  0.34959  0.33317  1.0000
  C   C915      1.0  0.04790  0.34624  0.36016  1.0000
  H   H744      1.0  0.05744  0.56650  0.30413  1.0000
  H   H745      1.0  0.03458  0.65032  0.39814  1.0000
  C   C916      1.0  0.04285  0.35164  0.30781  1.0000
  C   C917      1.0  0.05188  0.41679  0.27386  1.0000
  C   C918      1.0  0.06506  0.56475  0.26793  1.0000
  H   H746      1.0  0.00547  0.41906  0.29412  1.0000
  C   C919      1.0  0.00669  0.57645  0.28928  1.0000
  H   H747      1.0  0.02750  0.63077  0.27488  1.0000
  C   C920      1.0  0.03225  0.32753  0.43200  1.0000
  H   H748      1.0  0.02475  0.39773  0.28188  1.0000
  H   H749      1.0  0.01396  0.33382  0.27988  1.0000
  H   H750      1.0  0.04908  0.57165  0.25416  1.0000
  H   H751      1.0  0.04043  0.37344  0.29427  1.0000
  C   C921      1.0  0.08322  0.63235  0.37918  1.0000
  C   C922      1.0  0.02363  0.36486  0.33059  1.0000
  H   H752      1.0  0.07434  0.56157  0.25914  1.0000
  H   H753      1.0  0.01935  0.40919  0.36738  1.0000
  C   C923      1.0  0.03257  0.40289  0.28377  1.0000
  P   P29       1.0  0.02001  0.58252  0.27295  1.0000
  C   C924      1.0  0.01678  0.60248  0.26867  1.0000
  C   C925      1.0  0.09368  0.65300  0.37760  1.0000
  H   H754      1.0  0.00144  0.54553  0.31574  1.0000
  H   H755      1.0  0.06560  0.33295  0.34669  1.0000
  C   C926      1.0  0.00261  0.35396  0.30656  1.0000
  C   C927      1.0  0.01143  0.56447  0.25980  1.0000
  H   H756      1.0  0.00335  0.36874  0.48470  1.0000
  C   C928      1.0  0.07044  0.63813  0.38891  1.0000
  H   H757      1.0  0.04025  0.32714  0.43826  1.0000
  H   H758      1.0  0.99907  0.46081  0.33998  1.0000
  H   H759      1.0  0.00039  0.60564  0.25581  1.0000
  C   C929      1.0  0.02427  0.60974  0.27416  1.0000
  H   H760      1.0  0.99997  0.42289  0.35291  1.0000
  C   C930      1.0  0.00996  0.55990  0.24779  1.0000
  C   C931      1.0  0.01924  0.63071  0.48870  1.0000
  C   C932      1.0  0.99923  0.55690  0.30974  1.0000
  C   C933      1.0  0.10645  0.65733  0.42200  1.0000
  C   C934      1.0  0.00861  0.42782  0.67738  1.0000
  S   S127      1.0  0.01582  0.52721  0.56626  1.0000
  H   H761      1.0  0.00542  0.61595  0.50234  1.0000
  H   H762      1.0  0.07577  0.52726  0.73836  1.0000
  H   H763      1.0  0.00860  0.42686  0.72376  1.0000
  H   H764      1.0  0.01154  0.38725  0.65117  1.0000
  S   S128      1.0  0.02424  0.56190  0.57318  1.0000
  C   C935      1.0  0.01308  0.62343  0.61256  1.0000
  C   C936      1.0  0.01210  0.61413  0.54798  1.0000
  C   C937      1.0  0.03798  0.37934  0.67802  1.0000
  C   C938      1.0  0.01071  0.62911  0.54749  1.0000
  C   C939      1.0  0.12717  0.56195  0.70450  1.0000
  C   C940      1.0  0.01742  0.38446  0.72270  1.0000
  Fe  Fe65      1.0  0.05520  0.55374  0.64148  1.0000
  S   S129      1.0  0.04494  0.53411  0.64961  1.0000
  S   S130      1.0  0.04838  0.57286  0.62330  1.0000
  Fe  Fe66      1.0  0.07583  0.54199  0.66329  1.0000
  S   S131      1.0  0.06718  0.52144  0.67328  1.0000
  S   S132      1.0  0.09470  0.54558  0.67050  1.0000
  Fe  Fe67      1.0  0.06837  0.52087  0.64991  1.0000
  S   S133      1.0  0.07805  0.49952  0.64208  1.0000
  Fe  Fe68      1.0  0.04476  0.53665  0.67215  1.0000
  S   S134      1.0  0.02470  0.53611  0.69082  1.0000
  S   S135      1.0  0.07880  0.54031  0.63986  1.0000
  S   S136      1.0  0.05328  0.55743  0.66403  1.0000
  H   H765      1.0  0.07809  0.55588  0.60931  1.0000
  S   S137      1.0  0.01983  0.40156  0.58198  1.0000
  H   H766      1.0  0.05818  0.51393  0.62384  1.0000
  C   C941      1.0  0.01207  0.60400  0.56155  1.0000
  Fe  Fe69      1.0  0.01502  0.39413  0.60661  1.0000
  S   S138      1.0  0.03475  0.38131  0.61708  1.0000
  H   H767      1.0  0.04526  0.37699  0.68565  1.0000
  H   H768      1.0  0.08525  0.50802  0.71605  1.0000
  S   S139      1.0  0.00677  0.37674  0.56519  1.0000
  H   H769      1.0  0.03891  0.58313  0.57400  1.0000
  Fe  Fe70      1.0  0.04839  0.40070  0.70202  1.0000
  S   S140      1.0  0.07204  0.39121  0.69143  1.0000
  S   S141      1.0  0.03668  0.38382  0.71864  1.0000
  Fe  Fe71      1.0  0.05119  0.43195  0.68658  1.0000
  S   S142      1.0  0.07496  0.42489  0.67511  1.0000
  S   S143      1.0  0.03881  0.45567  0.68398  1.0000
  Fe  Fe72      1.0  0.06689  0.40713  0.67062  1.0000
  S   S144      1.0  0.07411  0.40213  0.64772  1.0000
  Fe  Fe73      1.0  0.07749  0.40999  0.69699  1.0000
  S   S145      1.0  0.09743  0.40675  0.70665  1.0000
  S   S146      1.0  0.04295  0.41520  0.68076  1.0000
  S   S147      1.0  0.05428  0.41838  0.70890  1.0000
  H   H770      1.0  0.01175  0.60074  0.58466  1.0000
  C   C942      1.0  0.09537  0.41598  0.72086  1.0000
  C   C943      1.0  0.05284  0.55421  0.71035  1.0000
  Fe  Fe74      1.0  0.00151  0.42144  0.58598  1.0000
  C   C944      1.0  0.99982  0.46835  0.60018  1.0000
  H   H771      1.0  0.07483  0.43158  0.71738  1.0000
  C   C945      1.0  0.10030  0.56113  0.69880  1.0000
  H   H772      1.0  0.04760  0.35670  0.51248  1.0000
  C   C946      1.0  0.01144  0.60869  0.57427  1.0000
  C   C947      1.0  0.01055  0.62357  0.57357  1.0000
  H   H773      1.0  0.00918  0.64540  0.55963  1.0000
  H   H774      1.0  0.04986  0.49674  0.73215  1.0000
  H   H775      1.0  0.00914  0.47264  0.55776  1.0000
  C   C948      1.0  0.02978  0.34019  0.50887  1.0000
  C   C949      1.0  0.09400  0.50739  0.59675  1.0000
  C   C950      1.0  0.03066  0.33889  0.49447  1.0000
  C   C951      1.0  0.03487  0.51651  0.60172  1.0000
  H   H776      1.0  0.00985  0.51107  0.71540  1.0000
  C   C952      1.0  0.04524  0.38797  0.62537  1.0000
  C   C953      1.0  0.06207  0.39650  0.64034  1.0000
  C   C954      1.0  0.04849  0.40584  0.63734  1.0000
  C   C955      1.0  0.04025  0.40167  0.62957  1.0000
  H   H777      1.0  0.04469  0.41645  0.64049  1.0000
  H   H778      1.0  0.03022  0.40901  0.62654  1.0000
  C   C956      1.0  0.04957  0.46773  0.67178  1.0000
  C   C957      1.0  0.06167  0.46284  0.66087  1.0000
  C   C958      1.0  0.07060  0.47250  0.65177  1.0000
  C   C959      1.0  0.06723  0.48714  0.65339  1.0000
  C   C960      1.0  0.05495  0.49207  0.66403  1.0000
  C   C961      1.0  0.04601  0.48246  0.67309  1.0000
  H   H779      1.0  0.06396  0.45176  0.65919  1.0000
  H   H780      1.0  0.08015  0.46858  0.64367  1.0000
  H   H781      1.0  0.05246  0.50326  0.66541  1.0000
  H   H782      1.0  0.03663  0.48637  0.68142  1.0000
  C   C962      1.0  0.09960  0.53190  0.68575  1.0000
  C   C963      1.0  0.11429  0.52834  0.68764  1.0000
  C   C964      1.0  0.11856  0.51733  0.69954  1.0000
  C   C965      1.0  0.10813  0.50995  0.70976  1.0000
  C   C966      1.0  0.09336  0.51364  0.70810  1.0000
  C   C967      1.0  0.08909  0.52465  0.69608  1.0000
  H   H783      1.0  0.12244  0.53394  0.67974  1.0000
  H   H784      1.0  0.12997  0.51454  0.70087  1.0000
  C   C968      1.0  0.00167  0.48202  0.59103  1.0000
  H   H785      1.0  0.07759  0.52776  0.69504  1.0000
  H   H786      1.0  0.09259  0.34761  0.51788  1.0000
  C   C969      1.0  0.01699  0.51935  0.67672  1.0000
  C   C970      1.0  0.04987  0.54028  0.71710  1.0000
  P   P30       1.0  0.04163  0.32681  0.52046  1.0000
  C   C971      1.0  0.10251  0.43713  0.61794  1.0000
  H   H787      1.0  0.01113  0.50780  0.66369  1.0000
  H   H788      1.0  0.02873  0.51442  0.67409  1.0000
  H   H789      1.0  0.00658  0.49409  0.56859  1.0000
  C   C972      1.0  0.07457  0.50277  0.55376  1.0000
  H   H790      1.0  0.01005  0.63715  0.53729  1.0000
  H   H791      1.0  0.06663  0.43600  0.63503  1.0000
  S   S148      1.0  0.11399  0.49644  0.72461  1.0000
  C   C973      1.0  0.03024  0.44736  0.72768  1.0000
  C   C974      1.0  0.01914  0.62006  0.51467  1.0000
  H   H792      1.0  0.05058  0.55169  0.52756  1.0000
  H   H793      1.0  0.09030  0.56038  0.69618  1.0000
  C   C975      1.0  0.07596  0.59659  0.73759  1.0000
  H   H794      1.0  0.11658  0.55724  0.72742  1.0000
  C   C976      1.0  0.02077  0.44314  0.72168  1.0000
  C   C977      1.0  0.08294  0.34366  0.51822  1.0000
  H   H795      1.0  0.01007  0.44851  0.64865  1.0000
  C   C978      1.0  0.03029  0.56444  0.58777  1.0000
  C   C979      1.0  0.02856  0.55521  0.60182  1.0000
  C   C980      1.0  0.03441  0.55739  0.61281  1.0000
  C   C981      1.0  0.04139  0.56916  0.60989  1.0000
  C   C982      1.0  0.04260  0.57862  0.59597  1.0000
  C   C983      1.0  0.03740  0.57606  0.58488  1.0000
  H   H796      1.0  0.02291  0.54633  0.60418  1.0000
  H   H797      1.0  0.03333  0.55010  0.62354  1.0000
  H   H798      1.0  0.04800  0.58770  0.59362  1.0000
  C   C984      1.0  0.00396  0.48179  0.68790  1.0000
  H   H799      1.0  0.08641  0.46917  0.61859  1.0000
  H   H800      1.0  0.04646  0.56157  0.70240  1.0000
  H   H801      1.0  0.01132  0.58448  0.51865  1.0000
  C   C985      1.0  0.03579  0.51110  0.63148  1.0000
  C   C986      1.0  0.01095  0.36103  0.49133  1.0000
  C   C987      1.0  0.02284  0.51093  0.62757  1.0000
  H   H802      1.0  0.04514  0.53112  0.54633  1.0000
  H   H803      1.0  0.99901  0.44596  0.60096  1.0000
  P   P31       1.0  0.01222  0.60822  0.53172  1.0000
  H   H804      1.0  0.03079  0.60366  0.61303  1.0000
  C   C988      1.0  0.05877  0.37876  0.62840  1.0000
  H   H805      1.0  0.11552  0.40196  0.72720  1.0000
  C   C989      1.0  0.05354  0.52374  0.55219  1.0000
  H   H806      1.0  0.03341  0.51546  0.71671  1.0000
  H   H807      1.0  0.01483  0.35041  0.58704  1.0000
  H   H808      1.0  0.04577  0.53455  0.57054  1.0000
  C   C990      1.0  0.01684  0.50268  0.72217  1.0000
  C   C991      1.0  0.01884  0.60817  0.61429  1.0000
  C   C992      1.0  0.03157  0.37359  0.65794  1.0000
  C   C993      1.0  0.04802  0.51662  0.60551  1.0000
  H   H809      1.0  0.15100  0.43423  0.70614  1.0000
  C   C994      1.0  0.06908  0.53638  0.58958  1.0000
  P   P32       1.0  0.08635  0.55504  0.72882  1.0000
  H   H810      1.0  0.11367  0.43306  0.62008  1.0000
  C   C995      1.0  0.02236  0.51372  0.61271  1.0000
  P   P33       1.0  0.06497  0.51860  0.59164  1.0000
  C   C996      1.0  0.07549  0.55922  0.57407  1.0000
  C   C997      1.0  0.03587  0.63616  0.50042  1.0000
  C   C998      1.0  0.05577  0.47397  0.56596  1.0000
  C   C999      1.0  0.04477  0.48688  0.56755  1.0000
  C   C1000     1.0  0.03786  0.48961  0.58160  1.0000
  C   C1001     1.0  0.04163  0.47940  0.59413  1.0000
  C   C1002     1.0  0.05250  0.46626  0.59268  1.0000
  C   C1003     1.0  0.05959  0.46367  0.57847  1.0000
  P   P34       1.0  0.05518  0.45145  0.60855  1.0000
  C   C1004     1.0  0.05229  0.43585  0.60365  1.0000
  C   C1005     1.0  0.07362  0.44697  0.61227  1.0000
  C   C1006     1.0  0.06316  0.42249  0.60400  1.0000
  C   C1007     1.0  0.06160  0.41117  0.59845  1.0000
  C   C1008     1.0  0.04911  0.41299  0.59271  1.0000
  C   C1009     1.0  0.03820  0.42620  0.59241  1.0000
  C   C1010     1.0  0.03980  0.43762  0.59778  1.0000
  C   C1011     1.0  0.04189  0.45629  0.62484  1.0000
  C   C1012     1.0  0.04349  0.46724  0.63102  1.0000
  C   C1013     1.0  0.03293  0.47159  0.64321  1.0000
  C   C1014     1.0  0.02087  0.46487  0.64950  1.0000
  C   C1015     1.0  0.01937  0.45376  0.64362  1.0000
  C   C1016     1.0  0.02989  0.44940  0.63138  1.0000
  H   H811      1.0  0.06092  0.47169  0.55508  1.0000
  H   H812      1.0  0.04133  0.49464  0.55795  1.0000
  H   H813      1.0  0.02898  0.49932  0.58288  1.0000
  H   H814      1.0  0.03539  0.48156  0.60482  1.0000
  H   H815      1.0  0.06748  0.45331  0.57707  1.0000
  C   C1017     1.0  0.06723  0.38311  0.63558  1.0000
  H   H816      1.0  0.03620  0.50895  0.64302  1.0000
  H   H817      1.0  0.07280  0.42063  0.60867  1.0000
  H   H818      1.0  0.06979  0.40073  0.59912  1.0000
  H   H819      1.0  0.04776  0.40399  0.58883  1.0000
  H   H820      1.0  0.02853  0.42763  0.58793  1.0000
  H   H821      1.0  0.03143  0.44793  0.59712  1.0000
  H   H822      1.0  0.05285  0.47246  0.62643  1.0000
  H   H823      1.0  0.03421  0.48005  0.64792  1.0000
  H   H824      1.0  0.01279  0.46815  0.65903  1.0000
  H   H825      1.0  0.01319  0.47050  0.52508  1.0000
  H   H826      1.0  0.02872  0.44060  0.62715  1.0000
  C   C1018     1.0  0.11424  0.42721  0.67124  1.0000
  C   C1019     1.0  0.11314  0.43242  0.65648  1.0000
  C   C1020     1.0  0.11046  0.44762  0.65051  1.0000
  C   C1021     1.0  0.10904  0.45762  0.65924  1.0000
  C   C1022     1.0  0.11046  0.45244  0.67402  1.0000
  C   C1023     1.0  0.11280  0.43715  0.68000  1.0000
  P   P35       1.0  0.10724  0.46520  0.68590  1.0000
  C   C1024     1.0  0.11727  0.45629  0.70052  1.0000
  C   C1025     1.0  0.11313  0.48206  0.67576  1.0000
  C   C1026     1.0  0.12558  0.48545  0.67804  1.0000
  C   C1027     1.0  0.12943  0.49894  0.67071  1.0000
  C   C1028     1.0  0.12084  0.50919  0.66117  1.0000
  C   C1029     1.0  0.10841  0.50593  0.65891  1.0000
  C   C1030     1.0  0.10453  0.49248  0.66622  1.0000
  C   C1031     1.0  0.11047  0.45743  0.71516  1.0000
  H   H827      1.0  0.06966  0.36549  0.51156  1.0000
  H   H828      1.0  0.10924  0.52766  0.72838  1.0000
  H   H829      1.0  0.05130  0.36208  0.66655  1.0000
  C   C1032     1.0  0.13199  0.44798  0.69730  1.0000
  C   C1033     1.0  0.08749  0.46973  0.69351  1.0000
  C   C1034     1.0  0.07894  0.45925  0.69619  1.0000
  C   C1035     1.0  0.06356  0.46291  0.70154  1.0000
  C   C1036     1.0  0.05652  0.47715  0.70390  1.0000
  C   C1037     1.0  0.06498  0.48758  0.70145  1.0000
  C   C1038     1.0  0.08046  0.48381  0.69658  1.0000
  H   H830      1.0  0.11574  0.41547  0.67609  1.0000
  H   H831      1.0  0.11405  0.42464  0.64985  1.0000
  H   H832      1.0  0.10913  0.45173  0.63922  1.0000
  H   H833      1.0  0.10653  0.46933  0.65448  1.0000
  H   H834      1.0  0.11304  0.43285  0.69159  1.0000
  H   H835      1.0  0.13208  0.47797  0.68578  1.0000
  H   H836      1.0  0.13875  0.50169  0.67286  1.0000
  H   H837      1.0  0.12346  0.51987  0.65592  1.0000
  H   H838      1.0  0.10151  0.51399  0.65182  1.0000
  H   H839      1.0  0.09450  0.49041  0.66481  1.0000
  C   C1039     1.0  0.10164  0.55874  0.71346  1.0000
  H   H840      1.0  0.01226  0.51368  0.60973  1.0000
  C   C1040     1.0  0.06948  0.53492  0.73055  1.0000
  H   H841      1.0  0.11096  0.47459  0.61589  1.0000
  H   H842      1.0  0.13744  0.44704  0.68605  1.0000
  H   H843      1.0  0.08406  0.44829  0.69403  1.0000
  H   H844      1.0  0.05708  0.45479  0.70335  1.0000
  H   H845      1.0  0.04449  0.48018  0.70730  1.0000
  H   H846      1.0  0.05957  0.49870  0.70308  1.0000
  H   H847      1.0  0.08684  0.49200  0.69492  1.0000
  H   H848      1.0  0.09630  0.51805  0.59084  1.0000
  C   C1041     1.0  0.02396  0.58999  0.53115  1.0000
  H   H849      1.0  0.01178  0.53290  0.64495  1.0000
  C   C1042     1.0  0.01006  0.63381  0.56020  1.0000
  C   C1043     1.0  0.07168  0.54002  0.60168  1.0000
  H   H850      1.0  0.06379  0.51114  0.53523  1.0000
  H   H851      1.0  0.01406  0.41910  0.64403  1.0000
  C   C1044     1.0  0.04127  0.37083  0.66740  1.0000
  H   H852      1.0  0.02789  0.55994  0.51702  1.0000
  C   C1045     1.0  0.01009  0.36251  0.50558  1.0000
  H   H853      1.0  0.06582  0.56960  0.70881  1.0000
  C   C1046     1.0  0.07632  0.55302  0.59990  1.0000
  C   C1047     1.0  0.04318  0.56235  0.52857  1.0000
  H   H854      1.0  0.03410  0.51858  0.59039  1.0000
  C   C1048     1.0  0.10035  0.44517  0.60393  1.0000
  C   C1049     1.0  0.05374  0.52549  0.56606  1.0000
  C   C1050     1.0  0.03682  0.58525  0.53709  1.0000
  H   H855      1.0  0.01366  0.47777  0.67996  1.0000
  H   H856      1.0  0.05565  0.51997  0.73273  1.0000
  H   H857      1.0  0.05598  0.56764  0.54088  1.0000
  C   C1051     1.0  0.08331  0.42785  0.72386  1.0000
  C   C1052     1.0  0.07814  0.56265  0.58615  1.0000
  C   C1053     1.0  0.10520  0.49657  0.60286  1.0000
  H   H858      1.0  0.08137  0.60569  0.73521  1.0000
  H   H859      1.0  0.06276  0.36818  0.62515  1.0000
  H   H860      1.0  0.03512  0.62567  0.52320  1.0000
  H   H861      1.0  0.01397  0.58682  0.61922  1.0000
  C   C1054     1.0  0.09026  0.43410  0.62912  1.0000
  C   C1055     1.0  0.00701  0.51556  0.67094  1.0000
  C   C1056     1.0  0.11225  0.56401  0.68712  1.0000
  C   C1057     1.0  0.12569  0.56437  0.68995  1.0000
  C   C1058     1.0  0.03048  0.56706  0.52250  1.0000
  H   H862      1.0  0.00164  0.33754  0.63416  1.0000
  H   H863      1.0  0.07037  0.53276  0.61247  1.0000
  C   C1059     1.0  0.06427  0.51579  0.57401  1.0000
  H   H864      1.0  0.07783  0.37600  0.63754  1.0000
  H   H865      1.0  0.03947  0.59218  0.54271  1.0000
  C   C1060     1.0  0.07992  0.50450  0.59863  1.0000
  H   H866      1.0  0.09181  0.42752  0.63991  1.0000
  H   H867      1.0  0.01766  0.44969  0.71146  1.0000
  H   H868      1.0  0.08300  0.49672  0.57349  1.0000
  H   H869      1.0  0.10986  0.44747  0.59525  1.0000
  H   H870      1.0  0.01747  0.42560  0.66794  1.0000
  C   C1061     1.0  0.08865  0.47971  0.61224  1.0000
  C   C1062     1.0  0.10619  0.41110  0.72944  1.0000
  C   C1063     1.0  0.03092  0.32496  0.53924  1.0000
  H   H871      1.0  0.01650  0.47933  0.70414  1.0000
  C   C1064     1.0  0.10247  0.48278  0.61073  1.0000
  H   H872      1.0  0.07674  0.56678  0.56344  1.0000
  C   C1065     1.0  0.07669  0.57185  0.73539  1.0000
  H   H873      1.0  0.11115  0.56549  0.67586  1.0000
  H   H874      1.0  0.13500  0.56632  0.68086  1.0000
  C   C1066     1.0  0.04631  0.57140  0.53593  1.0000
  C   C1067     1.0  0.00923  0.59858  0.61794  1.0000
  H   H875      1.0  0.09916  0.46379  0.71796  1.0000
  C   C1068     1.0  0.07468  0.50437  0.56773  1.0000
  C   C1069     1.0  0.13971  0.44074  0.70863  1.0000
  H   H876      1.0  0.06950  0.54367  0.56606  1.0000
  H   H877      1.0  0.06676  0.48795  0.60751  1.0000
  C   C1070     1.0  0.11521  0.55917  0.71621  1.0000
  C   C1071     1.0  0.02505  0.39064  0.67908  1.0000
  S   S149      1.0  0.00304  0.54268  0.52819  1.0000
  C   C1072     1.0  0.08595  0.45009  0.60108  1.0000
  H   H878      1.0  0.08130  0.57291  0.58500  1.0000
  C   C1073     1.0  0.07112  0.54610  0.57571  1.0000
  H   H879      1.0  0.03398  0.36684  0.64986  1.0000
  H   H880      1.0  0.11585  0.49902  0.60184  1.0000
  H   H881      1.0  0.02215  0.39637  0.68804  1.0000
  H   H882      1.0  0.01017  0.62717  0.58338  1.0000
  Fe  Fe75      1.0  0.00844  0.54752  0.57583  1.0000
  H   H883      1.0  0.01311  0.50879  0.63605  1.0000
  C   C1074     1.0  0.07589  0.43899  0.62632  1.0000
  C   C1075     1.0  0.01567  0.39400  0.66910  1.0000
  H   H884      1.0  0.13765  0.56206  0.70672  1.0000
  C   C1076     1.0  0.04825  0.51402  0.62053  1.0000
  C   C1077     1.0  0.01893  0.38528  0.65860  1.0000
  H   H885      1.0  0.09105  0.37980  0.73583  1.0000
  C   C1078     1.0  0.07746  0.49045  0.60610  1.0000
  C   C1079     1.0  0.05786  0.33347  0.51921  1.0000
  C   C1080     1.0  0.06399  0.51246  0.54598  1.0000
  C   C1081     1.0  0.02100  0.58091  0.52361  1.0000
  H   H886      1.0  0.08263  0.49395  0.54900  1.0000
  H   H887      1.0  0.08454  0.45617  0.59017  1.0000
  C   C1082     1.0  0.08364  0.58368  0.73238  1.0000
  C   C1083     1.0  0.03026  0.50524  0.72287  1.0000
  H   H888      1.0  0.01040  0.40748  0.71289  1.0000
  H   H889      1.0  0.04416  0.64208  0.49989  1.0000
  C   C1084     1.0  0.00789  0.43940  0.68386  1.0000
  H   H890      1.0  0.04115  0.53701  0.71441  1.0000
  C   C1085     1.0  0.00555  0.48306  0.70149  1.0000
  C   C1086     1.0  0.01185  0.52979  0.68561  1.0000
  H   H891      1.0  0.01870  0.35356  0.52527  1.0000
  H   H892      1.0  0.03445  0.45715  0.72201  1.0000
  H   H893      1.0  0.02080  0.36146  0.73358  1.0000
  H   H894      1.0  0.02059  0.63079  0.60991  1.0000
  C   C1087     1.0  0.06736  0.38738  0.73718  1.0000
  H   H895      1.0  0.03112  0.32884  0.57338  1.0000
  H   H896      1.0  0.01636  0.44577  0.67964  1.0000
  C   C1088     1.0  0.06395  0.55861  0.71386  1.0000
  C   C1089     1.0  0.01567  0.43026  0.72863  1.0000
  C   C1090     1.0  0.03050  0.62707  0.51370  1.0000
  C   C1091     1.0  0.00415  0.45792  0.57872  1.0000
  C   C1092     1.0  0.08221  0.43486  0.73534  1.0000
  H   H897      1.0  0.01253  0.59247  0.56230  1.0000
  C   C1093     1.0  0.01245  0.48959  0.73033  1.0000
  H   H898      1.0  0.01339  0.55284  0.65563  1.0000
  C   C1094     1.0  0.03955  0.49466  0.73147  1.0000
  C   C1095     1.0  0.01381  0.62165  0.50198  1.0000
  C   C1096     1.0  0.08333  0.32851  0.52235  1.0000
  C   C1097     1.0  0.00559  0.54401  0.64162  1.0000
  H   H899      1.0  0.09494  0.58303  0.72601  1.0000
  H   H900      1.0  0.00011  0.57851  0.64734  1.0000
  C   C1098     1.0  0.11823  0.45019  0.72643  1.0000
  C   C1099     1.0  0.13280  0.44181  0.72321  1.0000
  C   C1100     1.0  0.01952  0.35220  0.51428  1.0000
  H   H901      1.0  0.02117  0.34282  0.61172  1.0000
  C   C1101     1.0  0.01265  0.37150  0.73054  1.0000
  H   H902      1.0  0.00614  0.43878  0.62334  1.0000
  C   C1102     1.0  0.05809  0.53070  0.72730  1.0000
  C   C1103     1.0  0.00505  0.48357  0.57570  1.0000
  C   C1104     1.0  0.07258  0.54889  0.72378  1.0000
  C   C1105     1.0  0.07003  0.35373  0.51463  1.0000
  S   S150      1.0  0.99924  0.49705  0.59906  1.0000
  C   C1106     1.0  0.00091  0.45636  0.59401  1.0000
  C   C1107     1.0  0.05752  0.34868  0.51514  1.0000
  C   C1108     1.0  0.00667  0.55533  0.64746  1.0000
  H   H903      1.0  0.13867  0.43614  0.73205  1.0000
  C   C1109     1.0  0.03606  0.32748  0.55050  1.0000
  H   H904      1.0  0.00762  0.35464  0.55033  1.0000
  C   C1110     1.0  0.02721  0.32670  0.56479  1.0000
  C   C1111     1.0  0.00634  0.34795  0.59683  1.0000
  C   C1112     1.0  0.00991  0.34365  0.61074  1.0000
  C   C1113     1.0  0.00234  0.42373  0.64426  1.0000
  C   C1114     1.0  0.00680  0.39744  0.71892  1.0000
  H   H905      1.0  0.11285  0.45091  0.73773  1.0000
  H   H906      1.0  0.07293  0.44403  0.73759  1.0000
  H   H907      1.0  0.00187  0.37145  0.51004  1.0000
  C   C1115     1.0  0.00641  0.47148  0.56958  1.0000
  C   C1116     1.0  0.00201  0.47487  0.53083  1.0000
  S   S151      1.0  0.00490  0.44326  0.57079  1.0000
  H   H908      1.0  0.06755  0.38292  0.72792  1.0000
  H   H909      1.0  0.00586  0.56697  0.50279  1.0000
  H   H910      1.0  0.00555  0.49679  0.52743  1.0000
  H   H911      1.0  0.04676  0.33026  0.54831  1.0000
  Fe  Fe76      1.0  0.00187  0.39078  0.58218  1.0000
  H   H912      1.0  0.03828  0.32976  0.48995  1.0000
  C   C1117     1.0  0.99908  0.56984  0.64277  1.0000
  C   C1118     1.0  0.02200  0.47889  0.73877  1.0000
  H   H913      1.0  0.02413  0.45772  0.78256  1.0000
  Fe  Fe77      1.0  0.06515  0.49003  0.76210  1.0000
  S   S152      1.0  0.07240  0.47025  0.77947  1.0000
  S   S153      1.0  0.04148  0.50371  0.76350  1.0000
  H   H914      1.0  0.08464  0.51549  0.90658  1.0000
  H   H915      1.0  0.19893  0.61540  0.95842  1.0000
  H   H916      1.0  0.02183  0.41720  0.79435  1.0000
  H   H917      1.0  0.04076  0.56163  0.94513  1.0000
  Fe  Fe78      1.0  0.09146  0.48062  0.77728  1.0000
  S   S154      1.0  0.10372  0.47843  0.79519  1.0000
  C   C1119     1.0  0.34119  0.59384  0.84355  1.0000
  S   S155      1.0  0.08321  0.50113  0.76135  1.0000
  Fe  Fe79      1.0  0.11755  0.51815  0.84716  1.0000
  S   S156      1.0  0.11364  0.50477  0.87039  1.0000
  S   S157      1.0  0.10062  0.52473  0.83262  1.0000
  Fe  Fe80      1.0  0.14746  0.52222  0.84894  1.0000
  S   S158      1.0  0.14646  0.50867  0.87197  1.0000
  S   S159      1.0  0.16642  0.53305  0.83575  1.0000
  Fe  Fe81      1.0  0.13782  0.49338  0.86427  1.0000
  S   S160      1.0  0.14380  0.46851  0.87089  1.0000
  Fe  Fe82      1.0  0.12256  0.52106  0.87630  1.0000
  S   S161      1.0  0.11344  0.53173  0.89614  1.0000
  S   S162      1.0  0.14115  0.50563  0.84066  1.0000
  S   S163      1.0  0.12417  0.53571  0.85366  1.0000
  P   P36       1.0  0.11799  0.58392  0.85937  1.0000
  C   C1120     1.0  0.03078  0.42297  0.79027  1.0000
  Fe  Fe83      1.0  0.30251  0.58419  0.91173  1.0000
  S   S164      1.0  0.31314  0.59862  0.89137  1.0000
  S   S165      1.0  0.29839  0.56214  0.91251  1.0000
  H   H918      1.0  0.38031  0.57632  0.84292  1.0000
  Fe  Fe84      1.0  0.29210  0.61575  0.89630  1.0000
  H   H919      1.0  0.04299  0.47305  0.74557  1.0000
  S   S166      1.0  0.31292  0.59019  0.92686  1.0000
  S   S167      1.0  0.28093  0.60098  0.91562  1.0000
  Fe  Fe85      1.0  0.23192  0.56403  0.87259  1.0000
  S   S168      1.0  0.21594  0.58606  0.87152  1.0000
  S   S169      1.0  0.23741  0.55186  0.89433  1.0000
  Fe  Fe86      1.0  0.23731  0.56569  0.83997  1.0000
  S   S170      1.0  0.22174  0.58803  0.83617  1.0000
  S   S171      1.0  0.24991  0.55590  0.82014  1.0000
  Fe  Fe87      1.0  0.23260  0.59345  0.85145  1.0000
  C   C1121     1.0  0.27629  0.52714  0.88373  1.0000
  Fe  Fe88      1.0  0.20672  0.57837  0.85663  1.0000
  S   S172      1.0  0.18199  0.58041  0.86013  1.0000
  S   S173      1.0  0.24938  0.57186  0.85358  1.0000
  S   S174      1.0  0.22148  0.55561  0.85939  1.0000
  C   C1122     1.0  0.32140  0.58948  0.95895  1.0000
  S   S175      1.0  0.21912  0.58188  0.96266  1.0000
  H   H920      1.0  0.40659  0.57077  0.82996  1.0000
  H   H921      1.0  0.00056  0.39018  0.75628  1.0000
  H   H922      1.0  0.39582  0.32718  0.97138  1.0000
  H   H923      1.0  0.25277  0.57407  0.95684  1.0000
  C   C1123     1.0  0.00201  0.38602  0.79113  1.0000
  H   H924      1.0  0.03902  0.38145  0.77533  1.0000
  Fe  Fe89      1.0  0.19638  0.58092  0.96125  1.0000
  S   S176      1.0  0.18781  0.58404  0.94080  1.0000
  C   C1124     1.0  0.27668  0.55791  0.98015  1.0000
  C   C1125     1.0  0.27933  0.52260  0.96448  1.0000
  Fe  Fe90      1.0  0.42806  0.35123  0.90562  1.0000
  S   S177      1.0  0.40821  0.34690  0.92336  1.0000
  S   S178      1.0  0.42758  0.35557  0.88149  1.0000
  Fe  Fe91      1.0  0.44641  0.34982  0.92766  1.0000
  S   S179      1.0  0.42812  0.34466  0.94737  1.0000
  S   S180      1.0  0.46756  0.35498  0.92922  1.0000
  C   C1126     1.0  0.39064  0.41149  0.97028  1.0000
  C   C1127     1.0  0.37840  0.34400  0.96241  1.0000
  Fe  Fe92      1.0  0.41289  0.36231  0.93424  1.0000
  S   S181      1.0  0.39420  0.37751  0.94676  1.0000
  C   C1128     1.0  0.33695  0.58488  0.95574  1.0000
  S   S182      1.0  0.43130  0.36853  0.91533  1.0000
  Fe  Fe93      1.0  0.33910  0.48389  0.92823  1.0000
  S   S183      1.0  0.33894  0.47537  0.90892  1.0000
  S   S184      1.0  0.34769  0.50402  0.92597  1.0000
  Fe  Fe94      1.0  0.32667  0.45902  0.95065  1.0000
  S   S185      1.0  0.32561  0.44777  0.93337  1.0000
  H   H925      1.0  0.29547  0.45078  0.96706  1.0000
  Fe  Fe95      1.0  0.34797  0.45303  0.92189  1.0000
  S   S186      1.0  0.36705  0.43888  0.90877  1.0000
  Fe  Fe96      1.0  0.31673  0.47085  0.92159  1.0000
  S   S187      1.0  0.29699  0.47822  0.91089  1.0000
  S   S188      1.0  0.35002  0.46190  0.94025  1.0000
  S   S189      1.0  0.31590  0.48169  0.93984  1.0000
  C   C1129     1.0  0.17192  0.43194  0.92446  1.0000
  H   H926      1.0  0.06706  0.40378  0.76984  1.0000
  Fe  Fe97      1.0  0.24351  0.47684  0.84558  1.0000
  S   S190      1.0  0.25069  0.45220  0.84783  1.0000
  S   S191      1.0  0.24781  0.49044  0.82253  1.0000
  Fe  Fe98      1.0  0.23270  0.47400  0.87909  1.0000
  S   S192      1.0  0.23827  0.44926  0.88297  1.0000
  S   S193      1.0  0.22411  0.48449  0.89906  1.0000
  Fe  Fe99      1.0  0.25973  0.45237  0.86710  1.0000
  S   S194      1.0  0.28212  0.44116  0.87354  1.0000
  Fe  Fe100     1.0  0.22838  0.45253  0.86351  1.0000
  S   S195      1.0  0.21278  0.43859  0.86395  1.0000
  S   S196      1.0  0.25420  0.47709  0.86333  1.0000
  S   S197      1.0  0.22104  0.47719  0.86074  1.0000
  H   H927      1.0  0.27435  0.43532  0.93537  1.0000
  H   H928      1.0  0.04394  0.39696  0.74028  1.0000
  C   C1130     1.0  0.47164  0.62099  0.96428  1.0000
  C   C1131     1.0  0.19954  0.62366  0.94831  1.0000
  S   S198      1.0  0.24332  0.43965  0.95548  1.0000
  C   C1132     1.0  0.16384  0.38853  0.98562  1.0000
  H   H929      1.0  0.02374  0.47996  0.80777  1.0000
  C   C1133     1.0  0.04723  0.53762  0.92620  1.0000
  C   C1134     1.0  0.16166  0.45843  0.97404  1.0000
  H   H930      1.0  0.48217  0.64749  0.91919  1.0000
  C   C1135     1.0  0.09316  0.43431  0.79739  1.0000
  H   H931      1.0  0.04679  0.44369  0.80217  1.0000
  C   C1136     1.0  0.26546  0.65636  0.93562  1.0000
  C   C1137     1.0  0.03947  0.49376  0.80219  1.0000
  H   H932      1.0  0.20060  0.65001  0.88387  1.0000
  C   C1138     1.0  0.32248  0.41372  0.97847  1.0000
  S   S199      1.0  0.11048  0.49108  0.96002  1.0000
  H   H933      1.0  0.03854  0.45940  0.82328  1.0000
  C   C1139     1.0  0.10244  0.46853  0.84603  1.0000
  C   C1140     1.0  0.05272  0.48801  0.97068  1.0000
  S   S200      1.0  0.44473  0.33301  0.91635  1.0000
  C   C1141     1.0  0.17972  0.42034  0.91728  1.0000
  C   C1142     1.0  0.26325  0.56947  0.96044  1.0000
  C   C1143     1.0  0.33298  0.41575  0.96523  1.0000
  P   P37       1.0  0.03643  0.41356  0.76366  1.0000
  H   H934      1.0  0.34596  0.56898  0.92753  1.0000
  C   C1144     1.0  0.35360  0.63358  0.93355  1.0000
  H   H935      1.0  0.11065  0.47171  0.84966  1.0000
  H   H936      1.0  0.08546  0.48810  0.84972  1.0000
  C   C1145     1.0  0.08821  0.47776  0.84609  1.0000
  H   H937      1.0  0.09056  0.41555  0.79116  1.0000
  C   C1146     1.0  0.41615  0.61892  0.96383  1.0000
  H   H938      1.0  0.03303  0.50267  0.79524  1.0000
  C   C1147     1.0  0.22931  0.47231  0.91506  1.0000
  C   C1148     1.0  0.22288  0.47563  0.92907  1.0000
  C   C1149     1.0  0.22668  0.46547  0.94179  1.0000
  C   C1150     1.0  0.23710  0.45216  0.94039  1.0000
  C   C1151     1.0  0.24347  0.44890  0.92649  1.0000
  C   C1152     1.0  0.23990  0.45910  0.91391  1.0000
  H   H939      1.0  0.21547  0.48620  0.93008  1.0000
  H   H940      1.0  0.22194  0.46803  0.95258  1.0000
  H   H941      1.0  0.25139  0.43856  0.92545  1.0000
  H   H942      1.0  0.24571  0.45680  0.90335  1.0000
  C   C1153     1.0  0.29367  0.46747  0.90049  1.0000
  C   C1154     1.0  0.27958  0.47114  0.89712  1.0000
  C   C1155     1.0  0.27608  0.46282  0.88927  1.0000
  C   C1156     1.0  0.28683  0.45128  0.88377  1.0000
  C   C1157     1.0  0.30116  0.44772  0.88682  1.0000
  C   C1158     1.0  0.30452  0.45566  0.89538  1.0000
  H   H943      1.0  0.27115  0.48028  0.90091  1.0000
  H   H944      1.0  0.26491  0.46532  0.88765  1.0000
  H   H945      1.0  0.30955  0.43870  0.88277  1.0000
  H   H946      1.0  0.31548  0.45275  0.89791  1.0000
  C   C1159     1.0  0.20737  0.41320  0.96326  1.0000
  C   C1160     1.0  0.02846  0.53455  0.97301  1.0000
  H   H947      1.0  0.16129  0.61558  0.95981  1.0000
  C   C1161     1.0  0.20251  0.64502  0.92219  1.0000
  H   H948      1.0  0.08239  0.64249  0.85783  1.0000
  H   H949      1.0  0.36299  0.58390  0.92833  1.0000
  H   H950      1.0  0.27342  0.46700  0.82466  1.0000
  C   C1162     1.0  0.36474  0.41310  0.98286  1.0000
  C   C1163     1.0  0.38630  0.39423  0.93597  1.0000
  C   C1164     1.0  0.39193  0.39782  0.92076  1.0000
  C   C1165     1.0  0.38616  0.41169  0.91250  1.0000
  C   C1166     1.0  0.37459  0.42188  0.91937  1.0000
  C   C1167     1.0  0.36900  0.41833  0.93457  1.0000
  C   C1168     1.0  0.37474  0.40445  0.94283  1.0000
  H   H951      1.0  0.40080  0.38996  0.91538  1.0000
  H   H952      1.0  0.39051  0.41444  0.90073  1.0000
  H   H953      1.0  0.36021  0.42626  0.93992  1.0000
  H   H954      1.0  0.37032  0.40168  0.95457  1.0000
  C   C1169     1.0  0.42980  0.34045  0.87345  1.0000
  C   C1170     1.0  0.48096  0.60707  0.96265  1.0000
  H   H955      1.0  0.16421  0.44118  0.91923  1.0000
  H   H956      1.0  0.49571  0.64255  0.94351  1.0000
  H   H957      1.0  0.04211  0.44224  0.74492  1.0000
  C   C1171     1.0  0.43262  0.34270  0.85806  1.0000
  H   H958      1.0  0.26812  0.64613  0.85333  1.0000
  C   C1172     1.0  0.36182  0.63508  0.91899  1.0000
  H   H959      1.0  0.09058  0.39006  0.75699  1.0000
  H   H960      1.0  0.43330  0.35360  0.85138  1.0000
  C   C1173     1.0  0.11203  0.51850  0.75064  1.0000
  H   H961      1.0  0.33783  0.59222  0.83435  1.0000
  H   H962      1.0  0.31355  0.33677  0.96287  1.0000
  C   C1174     1.0  0.42891  0.32631  0.88199  1.0000
  H   H963      1.0  0.03661  0.54361  0.93147  1.0000
  C   C1175     1.0  0.48548  0.33357  0.84253  1.0000
  C   C1176     1.0  0.06435  0.48217  0.97828  1.0000
  H   H964      1.0  0.19346  0.64164  0.95953  1.0000
  C   C1177     1.0  0.15270  0.53839  0.98746  1.0000
  C   C1178     1.0  0.49656  0.33240  0.84999  1.0000
  C   C1179     1.0  0.08029  0.39135  0.75361  1.0000
  H   H965      1.0  0.37015  0.44701  0.96376  1.0000
  H   H966      1.0  0.02327  0.45696  0.87200  1.0000
  H   H967      1.0  0.09268  0.45308  0.80551  1.0000
  C   C1180     1.0  0.23588  0.64030  0.89010  1.0000
  Fe  Fe101     1.0  0.21786  0.56191  0.98101  1.0000
  H   H968      1.0  0.16128  0.55264  0.96736  1.0000
  S   S201      1.0  0.23681  0.54203  0.98278  1.0000
  H   H969      1.0  0.05759  0.50455  0.79749  1.0000
  C   C1181     1.0  0.22307  0.55937  0.90791  1.0000
  C   C1182     1.0  0.20847  0.56502  0.90568  1.0000
  C   C1183     1.0  0.19751  0.57245  0.91590  1.0000
  C   C1184     1.0  0.20110  0.57396  0.92848  1.0000
  C   C1185     1.0  0.21549  0.56775  0.93098  1.0000
  C   C1186     1.0  0.22645  0.56065  0.92064  1.0000
  H   H970      1.0  0.20566  0.56377  0.89602  1.0000
  H   H971      1.0  0.18633  0.57706  0.91398  1.0000
  H   H972      1.0  0.21837  0.56871  0.94067  1.0000
  H   H973      1.0  0.23773  0.55691  0.92215  1.0000
  C   C1187     1.0  0.24874  0.53779  0.82108  1.0000
  C   C1188     1.0  0.24219  0.52924  0.83419  1.0000
  C   C1189     1.0  0.24211  0.51455  0.83482  1.0000
  C   C1190     1.0  0.24815  0.50857  0.82218  1.0000
  C   C1191     1.0  0.25448  0.51717  0.80902  1.0000
  C   C1192     1.0  0.25492  0.53170  0.80852  1.0000
  H   H974      1.0  0.23750  0.53378  0.84393  1.0000
  H   H975      1.0  0.23722  0.50791  0.84501  1.0000
  H   H976      1.0  0.25911  0.51255  0.79924  1.0000
  H   H977      1.0  0.25995  0.53827  0.79836  1.0000
  C   C1193     1.0  0.31175  0.54609  0.91736  1.0000
  C   C1194     1.0  0.30982  0.53252  0.91650  1.0000
  C   C1195     1.0  0.32083  0.51960  0.91921  1.0000
  C   C1196     1.0  0.33381  0.52020  0.92284  1.0000
  C   C1197     1.0  0.33562  0.53373  0.92403  1.0000
  C   C1198     1.0  0.32450  0.54669  0.92141  1.0000
  H   H978      1.0  0.29994  0.53203  0.91341  1.0000
  H   H979      1.0  0.31939  0.50922  0.91821  1.0000
  H   H980      1.0  0.34558  0.53418  0.92700  1.0000
  H   H981      1.0  0.32579  0.55713  0.92239  1.0000
  H   H982      1.0  0.26429  0.52867  0.88556  1.0000
  C   C1199     1.0  0.26612  0.61183  0.87419  1.0000
  C   C1200     1.0  0.25704  0.60825  0.86689  1.0000
  H   H983      1.0  0.34060  0.41220  0.94316  1.0000
  C   C1201     1.0  0.43727  0.61326  0.94403  1.0000
  H   H984      1.0  0.42628  0.55621  0.84383  1.0000
  H   H985      1.0  0.26988  0.60403  0.88359  1.0000
  H   H986      1.0  0.25422  0.59758  0.87033  1.0000
  H   H987      1.0  0.41948  0.54717  0.87092  1.0000
  H   H988      1.0  0.44167  0.61095  0.93306  1.0000
  H   H989      1.0  0.43661  0.33289  0.83935  1.0000
  C   C1202     1.0  0.03786  0.54110  0.96049  1.0000
  H   H990      1.0  0.23289  0.60588  0.95398  1.0000
  H   H991      1.0  0.25966  0.60521  0.94265  1.0000
  C   C1203     1.0  0.11433  0.51986  0.91345  1.0000
  C   C1204     1.0  0.11583  0.52527  0.92497  1.0000
  C   C1205     1.0  0.11508  0.51641  0.93928  1.0000
  C   C1206     1.0  0.11244  0.50225  0.94215  1.0000
  C   C1207     1.0  0.11099  0.49689  0.93061  1.0000
  C   C1208     1.0  0.11232  0.50550  0.91621  1.0000
  H   H992      1.0  0.11752  0.53634  0.92280  1.0000
  H   H993      1.0  0.11622  0.52062  0.94812  1.0000
  H   H994      1.0  0.10860  0.48610  0.93287  1.0000
  H   H995      1.0  0.11118  0.50124  0.90738  1.0000
  C   C1209     1.0  0.16288  0.46055  0.87022  1.0000
  C   C1210     1.0  0.16774  0.44513  0.87368  1.0000
  C   C1211     1.0  0.18305  0.43853  0.87194  1.0000
  C   C1212     1.0  0.19360  0.44730  0.86670  1.0000
  C   C1213     1.0  0.18866  0.46274  0.86361  1.0000
  C   C1214     1.0  0.17332  0.46936  0.86554  1.0000
  H   H996      1.0  0.15968  0.43828  0.87733  1.0000
  H   H997      1.0  0.18676  0.42660  0.87436  1.0000
  H   H998      1.0  0.19660  0.46960  0.85924  1.0000
  H   H999      1.0  0.16958  0.48126  0.86304  1.0000
  C   C1215     1.0  0.17119  0.54530  0.84338  1.0000
  C   C1216     1.0  0.16148  0.55105  0.85528  1.0000
  C   C1217     1.0  0.16501  0.56167  0.86046  1.0000
  C   C1218     1.0  0.17832  0.56641  0.85399  1.0000
  C   C1219     1.0  0.18827  0.56030  0.84240  1.0000
  C   C1220     1.0  0.18461  0.54992  0.83699  1.0000
  H   H1000     1.0  0.15110  0.54757  0.86019  1.0000
  H   H1001     1.0  0.15747  0.56634  0.86944  1.0000
  H   H1002     1.0  0.11703  0.57186  0.92781  1.0000
  C   C1221     1.0  0.12887  0.56259  0.88244  1.0000
  C   C1222     1.0  0.10293  0.49200  0.80473  1.0000
  C   C1223     1.0  0.09205  0.50527  0.80415  1.0000
  C   C1224     1.0  0.09148  0.51534  0.81264  1.0000
  C   C1225     1.0  0.10179  0.51221  0.82168  1.0000
  C   C1226     1.0  0.11279  0.49906  0.82199  1.0000
  C   C1227     1.0  0.11335  0.48903  0.81356  1.0000
  H   H1003     1.0  0.08400  0.50767  0.79734  1.0000
  H   H1004     1.0  0.08294  0.52550  0.81233  1.0000
  H   H1005     1.0  0.12076  0.49647  0.82891  1.0000
  H   H1006     1.0  0.12177  0.47877  0.81408  1.0000
  C   C1228     1.0  0.28168  0.44155  0.98748  1.0000
  H   H1007     1.0  0.38231  0.58540  0.88241  1.0000
  C   C1229     1.0  0.26283  0.52051  0.85959  1.0000
  H   H1008     1.0  0.34373  0.59304  0.95140  1.0000
  H   H1009     1.0  0.36531  0.62961  0.89782  1.0000
  H   H1010     1.0  0.44080  0.33960  0.98024  1.0000
  H   H1011     1.0  0.38113  0.59193  0.90582  1.0000
  C   C1230     1.0  0.05617  0.44772  0.84782  1.0000
  H   H1012     1.0  0.10667  0.58059  0.83536  1.0000
  H   H1013     1.0  0.35309  0.59998  0.87637  1.0000
  C   C1231     1.0  0.16615  0.51668  0.80568  1.0000
  C   C1232     1.0  0.48429  0.34139  0.92682  1.0000
  C   C1233     1.0  0.09953  0.60720  0.91549  1.0000
  C   C1234     1.0  0.12000  0.56038  0.97593  1.0000
  H   H1014     1.0  0.30481  0.53474  0.95460  1.0000
  C   C1235     1.0  0.02767  0.49330  0.77071  1.0000
  C   C1236     1.0  0.03185  0.47790  0.77439  1.0000
  C   C1237     1.0  0.02092  0.46961  0.78020  1.0000
  H   H1015     1.0  0.37034  0.51557  0.84476  1.0000
  H   H1016     1.0  0.18806  0.49377  0.77672  1.0000
  H   H1017     1.0  0.04351  0.47235  0.77253  1.0000
  C   C1238     1.0  0.08056  0.38551  0.74173  1.0000
  C   C1239     1.0  0.06197  0.57313  0.74370  1.0000
  H   H1018     1.0  0.27909  0.65400  0.89947  1.0000
  H   H1019     1.0  0.37062  0.64105  0.91549  1.0000
  S   S202      1.0  0.18390  0.59502  0.97776  1.0000
  C   C1240     1.0  0.48955  0.65580  0.97597  1.0000
  P   P38       1.0  0.30790  0.55044  0.97576  1.0000
  C   C1241     1.0  0.19655  0.63854  0.94889  1.0000
  H   H1020     1.0  0.09287  0.61360  0.90744  1.0000
  C   C1242     1.0  0.47702  0.63379  0.95723  1.0000
  S   S203      1.0  0.09065  0.43593  0.76039  1.0000
  C   C1243     1.0  0.25555  0.63223  0.85042  1.0000
  C   C1244     1.0  0.21846  0.41413  0.95022  1.0000
  H   H1021     1.0  0.32133  0.64914  0.91202  1.0000
  C   C1245     1.0  0.05311  0.42769  0.86928  1.0000
  H   H1022     1.0  0.17045  0.58081  0.81353  1.0000
  S   S204      1.0  0.11205  0.52256  0.97945  1.0000
  C   C1246     1.0  0.21200  0.65048  0.88296  1.0000
  C   C1247     1.0  0.07139  0.50580  0.97049  1.0000
  H   H1023     1.0  0.12045  0.50888  0.74776  1.0000
  H   H1024     1.0  0.03171  0.52309  0.97838  1.0000
  H   H1025     1.0  0.31972  0.64437  0.96616  1.0000
  P   P39       1.0  0.45301  0.62218  0.97553  1.0000
  C   C1248     1.0  0.06873  0.43005  0.82062  1.0000
  H   H1026     1.0  0.35131  0.32478  0.92659  1.0000
  H   H1027     1.0  0.31564  0.50946  0.95064  1.0000
  C   C1249     1.0  0.01242  0.50035  0.77291  1.0000
  C   C1250     1.0  0.06160  0.43352  0.85574  1.0000
  H   H1028     1.0  0.02646  0.43005  0.81073  1.0000
  H   H1029     1.0  0.38782  0.46688  0.95353  1.0000
  C   C1251     1.0  0.20543  0.52917  0.90731  1.0000
  C   C1252     1.0  0.21428  0.52542  0.89418  1.0000
  C   C1253     1.0  0.22923  0.51822  0.89352  1.0000
  C   C1254     1.0  0.23542  0.51465  0.90600  1.0000
  C   C1255     1.0  0.22651  0.51789  0.91950  1.0000
  C   C1256     1.0  0.21149  0.52556  0.91983  1.0000
  P   P40       1.0  0.23417  0.51346  0.93601  1.0000
  C   C1257     1.0  0.21860  0.51396  0.95176  1.0000
  C   C1258     1.0  0.24694  0.49563  0.93978  1.0000
  C   C1259     1.0  0.25177  0.48573  0.93020  1.0000
  C   C1260     1.0  0.26156  0.47207  0.93380  1.0000
  C   C1261     1.0  0.26636  0.46801  0.94706  1.0000
  C   C1262     1.0  0.26155  0.47771  0.95669  1.0000
  C   C1263     1.0  0.25207  0.49152  0.95299  1.0000
  C   C1264     1.0  0.20952  0.52752  0.95485  1.0000
  C   C1265     1.0  0.19657  0.52778  0.96599  1.0000
  H   H1030     1.0  0.30066  0.56302  0.94663  1.0000
  H   H1031     1.0  0.34046  0.54766  0.96541  1.0000
  C   C1266     1.0  0.21459  0.50075  0.96018  1.0000
  C   C1267     1.0  0.24531  0.52633  0.93448  1.0000
  C   C1268     1.0  0.25601  0.52932  0.92151  1.0000
  C   C1269     1.0  0.26567  0.53826  0.92041  1.0000
  C   C1270     1.0  0.26466  0.54435  0.93231  1.0000
  C   C1271     1.0  0.25393  0.54160  0.94522  1.0000
  C   C1272     1.0  0.24449  0.53238  0.94647  1.0000
  H   H1032     1.0  0.19391  0.53505  0.90771  1.0000
  H   H1033     1.0  0.20960  0.52817  0.88447  1.0000
  H   H1034     1.0  0.23589  0.51518  0.88335  1.0000
  H   H1035     1.0  0.24714  0.50947  0.90493  1.0000
  H   H1036     1.0  0.20430  0.52896  0.92963  1.0000
  H   H1037     1.0  0.24774  0.48809  0.92025  1.0000
  H   H1038     1.0  0.26510  0.46439  0.92648  1.0000
  H   H1039     1.0  0.27359  0.45724  0.94995  1.0000
  S   S205      1.0  0.32216  0.45252  0.97548  1.0000
  H   H1040     1.0  0.24846  0.49891  0.96059  1.0000
  H   H1041     1.0  0.21216  0.53790  0.94834  1.0000
  H   H1042     1.0  0.18935  0.53819  0.96811  1.0000
  H   H1043     1.0  0.15003  0.46240  0.97883  1.0000
  C   C1273     1.0  0.13986  0.59059  0.96731  1.0000
  H   H1044     1.0  0.22129  0.49015  0.95807  1.0000
  H   H1045     1.0  0.25666  0.52500  0.91214  1.0000
  H   H1046     1.0  0.27365  0.54074  0.91020  1.0000
  H   H1047     1.0  0.27208  0.55131  0.93146  1.0000
  H   H1048     1.0  0.25302  0.54649  0.95436  1.0000
  H   H1049     1.0  0.23663  0.53003  0.95677  1.0000
  C   C1274     1.0  0.18549  0.50275  0.94005  1.0000
  C   C1275     1.0  0.17273  0.50666  0.95063  1.0000
  C   C1276     1.0  0.15923  0.50397  0.95031  1.0000
  C   C1277     1.0  0.15862  0.49672  0.93981  1.0000
  C   C1278     1.0  0.17167  0.49203  0.92964  1.0000
  C   C1279     1.0  0.18486  0.49584  0.92934  1.0000
  P   P41       1.0  0.17155  0.48312  0.91552  1.0000
  C   C1280     1.0  0.15478  0.47672  0.91869  1.0000
  C   C1281     1.0  0.17463  0.49711  0.89902  1.0000
  C   C1282     1.0  0.16388  0.51046  0.89716  1.0000
  C   C1283     1.0  0.16742  0.52260  0.88618  1.0000
  C   C1284     1.0  0.18175  0.52157  0.87722  1.0000
  C   C1285     1.0  0.19247  0.50832  0.87905  1.0000
  C   C1286     1.0  0.18888  0.49608  0.88974  1.0000
  C   C1287     1.0  0.14858  0.47745  0.90683  1.0000
  C   C1288     1.0  0.13654  0.47097  0.90919  1.0000
  C   C1289     1.0  0.13080  0.46353  0.92330  1.0000
  C   C1290     1.0  0.13695  0.46273  0.93517  1.0000
  C   C1291     1.0  0.14901  0.46916  0.93285  1.0000
  C   C1292     1.0  0.18631  0.46666  0.91459  1.0000
  C   C1293     1.0  0.19522  0.46109  0.92514  1.0000
  C   C1294     1.0  0.20674  0.44848  0.92409  1.0000
  C   C1295     1.0  0.20933  0.44117  0.91266  1.0000
  C   C1296     1.0  0.20030  0.44644  0.90231  1.0000
  C   C1297     1.0  0.18881  0.45914  0.90323  1.0000
  H   H1050     1.0  0.19582  0.50523  0.94007  1.0000
  H   H1051     1.0  0.14920  0.50775  0.95809  1.0000
  H   H1052     1.0  0.14796  0.49507  0.93958  1.0000
  H   H1053     1.0  0.19466  0.49342  0.92073  1.0000
  H   H1054     1.0  0.15289  0.51156  0.90438  1.0000
  H   H1055     1.0  0.15912  0.53285  0.88464  1.0000
  H   H1056     1.0  0.18460  0.53102  0.86889  1.0000
  H   H1057     1.0  0.20368  0.50752  0.87232  1.0000
  H   H1058     1.0  0.19751  0.48608  0.89114  1.0000
  H   H1059     1.0  0.15325  0.48268  0.89573  1.0000
  H   H1060     1.0  0.13167  0.47170  0.90004  1.0000
  H   H1061     1.0  0.12141  0.45862  0.92507  1.0000
  H   H1062     1.0  0.13229  0.45727  0.94619  1.0000
  H   H1063     1.0  0.15391  0.46810  0.94209  1.0000
  H   H1064     1.0  0.19357  0.46656  0.93403  1.0000
  H   H1065     1.0  0.21394  0.44466  0.93192  1.0000
  H   H1066     1.0  0.21849  0.43158  0.91165  1.0000
  H   H1067     1.0  0.20230  0.44071  0.89352  1.0000
  H   H1068     1.0  0.18200  0.46318  0.89501  1.0000
  C   C1298     1.0  0.44304  0.40985  0.93763  1.0000
  C   C1299     1.0  0.43910  0.40027  0.93153  1.0000
  C   C1300     1.0  0.42414  0.40187  0.93146  1.0000
  C   C1301     1.0  0.41313  0.41286  0.93759  1.0000
  C   C1302     1.0  0.41689  0.42235  0.94399  1.0000
  C   C1303     1.0  0.43200  0.42087  0.94384  1.0000
  P   P42       1.0  0.40222  0.43574  0.95283  1.0000
  H   H1069     1.0  0.25940  0.64056  0.90534  1.0000
  C   C1304     1.0  0.39449  0.45105  0.93933  1.0000
  C   C1305     1.0  0.38817  0.46509  0.94281  1.0000
  C   C1306     1.0  0.38181  0.47688  0.93261  1.0000
  C   C1307     1.0  0.38154  0.47475  0.91892  1.0000
  C   C1308     1.0  0.38766  0.46082  0.91542  1.0000
  C   C1309     1.0  0.39408  0.44900  0.92557  1.0000
  C   C1310     1.0  0.02946  0.42581  0.74786  1.0000
  H   H1070     1.0  0.41459  0.61406  0.94384  1.0000
  C   C1311     1.0  0.00577  0.47652  0.78290  1.0000
  H   H1071     1.0  0.13512  0.58284  0.97662  1.0000
  H   H1072     1.0  0.40179  0.40470  0.96777  1.0000
  Fe  Fe102     1.0  0.42499  0.32970  0.93484  1.0000
  H   H1073     1.0  0.45832  0.34822  0.87652  1.0000
  C   C1312     1.0  0.02297  0.40254  0.77384  1.0000
  C   C1313     1.0  0.48412  0.32666  0.92806  1.0000
  C   C1314     1.0  0.42198  0.61509  0.95007  1.0000
  S   S206      1.0  0.39274  0.65094  0.95116  1.0000
  C   C1315     1.0  0.07368  0.49104  0.97813  1.0000
  H   H1074     1.0  0.44759  0.39153  0.92695  1.0000
  H   H1075     1.0  0.42096  0.39446  0.92687  1.0000
  H   H1076     1.0  0.40159  0.41377  0.93762  1.0000
  H   H1077     1.0  0.35472  0.33815  0.94509  1.0000
  C   C1316     1.0  0.16120  0.56011  0.98646  1.0000
  H   H1078     1.0  0.37661  0.48760  0.93545  1.0000
  H   H1079     1.0  0.37613  0.48378  0.91125  1.0000
  H   H1080     1.0  0.38701  0.45902  0.90500  1.0000
  H   H1081     1.0  0.39833  0.43829  0.92266  1.0000
  H   H1082     1.0  0.24733  0.64680  0.94988  1.0000
  C   C1317     1.0  0.22131  0.63916  0.89119  1.0000
  H   H1083     1.0  0.16429  0.59892  0.82949  1.0000
  C   C1318     1.0  0.18470  0.42016  0.94479  1.0000
  C   C1319     1.0  0.18173  0.43851  0.96584  1.0000
  C   C1320     1.0  0.05041  0.50275  0.96299  1.0000
  C   C1321     1.0  0.01478  0.54296  0.97916  1.0000
  C   C1322     1.0  0.10727  0.51998  0.76533  1.0000
  C   C1323     1.0  0.20174  0.50109  0.97140  1.0000
  C   C1324     1.0  0.16656  0.44409  0.97149  1.0000
  C   C1325     1.0  0.29419  0.41798  0.93738  1.0000
  C   C1326     1.0  0.28298  0.42713  0.93011  1.0000
  C   C1327     1.0  0.28296  0.42588  0.91601  1.0000
  C   C1328     1.0  0.29411  0.41547  0.90915  1.0000
  H   H1084     1.0  0.29402  0.41942  0.94818  1.0000
  C   C1329     1.0  0.01967  0.56461  0.96056  1.0000
  H   H1085     1.0  0.27449  0.43317  0.91019  1.0000
  H   H1086     1.0  0.29415  0.41482  0.89807  1.0000
  H   H1087     1.0  0.08441  0.54915  0.88143  1.0000
  H   H1088     1.0  0.33207  0.50305  0.82886  1.0000
  C   C1330     1.0  0.29742  0.58049  0.87479  1.0000
  C   C1331     1.0  0.30548  0.40746  0.93056  1.0000
  H   H1089     1.0  0.34142  0.42169  0.96409  1.0000
  H   H1090     1.0  0.19880  0.49087  0.97801  1.0000
  H   H1091     1.0  0.10028  0.55335  0.93767  1.0000
  H   H1092     1.0  0.31369  0.57414  0.83494  1.0000
  C   C1332     1.0  0.29034  0.55753  0.96985  1.0000
  H   H1093     1.0  0.31883  0.52240  0.87843  1.0000
  H   H1094     1.0  0.14140  0.60054  0.84900  1.0000
  C   C1333     1.0  0.08924  0.63136  0.85812  1.0000
  C   C1334     1.0  0.10543  0.57316  0.85892  1.0000
  P   P43       1.0  0.06741  0.45520  0.83056  1.0000
  H   H1095     1.0  0.28040  0.48783  0.82900  1.0000
  C   C1335     1.0  0.35481  0.53656  0.84625  1.0000
  S   S207      1.0  0.43005  0.64764  0.92120  1.0000
  S   S208      1.0  0.35704  0.64136  0.94658  1.0000
  C   C1336     1.0  0.03345  0.55626  0.95446  1.0000
  C   C1337     1.0  0.03349  0.43011  0.79979  1.0000
  C   C1338     1.0  0.30536  0.40631  0.91636  1.0000
  C   C1339     1.0  0.28428  0.51600  0.89320  1.0000
  H   H1096     1.0  0.43012  0.46749  0.96150  1.0000
  C   C1340     1.0  0.35878  0.62860  0.90901  1.0000
  C   C1341     1.0  0.09100  0.55072  0.94646  1.0000
  C   C1342     1.0  0.10192  0.57375  0.84549  1.0000
  C   C1343     1.0  0.07417  0.52162  0.91208  1.0000
  H   H1097     1.0  0.25996  0.50120  0.87691  1.0000
  H   H1098     1.0  0.08080  0.51603  0.93286  1.0000
  H   H1099     1.0  0.32918  0.61669  0.84143  1.0000
  H   H1100     1.0  0.35353  0.57137  0.84869  1.0000
  C   C1344     1.0  0.20922  0.51597  0.82135  1.0000
  C   C1345     1.0  0.20425  0.51268  0.83667  1.0000
  C   C1346     1.0  0.19448  0.50320  0.84304  1.0000
  C   C1347     1.0  0.18993  0.49679  0.83417  1.0000
  C   C1348     1.0  0.19519  0.49967  0.81886  1.0000
  C   C1349     1.0  0.20455  0.50967  0.81242  1.0000
  P   P44       1.0  0.18915  0.49116  0.80767  1.0000
  C   C1350     1.0  0.18687  0.47304  0.81840  1.0000
  C   C1351     1.0  0.17149  0.50217  0.80335  1.0000
  C   C1352     1.0  0.16246  0.49592  0.79862  1.0000
  C   C1353     1.0  0.14812  0.50386  0.79680  1.0000
  C   C1354     1.0  0.32118  0.40322  0.95452  1.0000
  C   C1355     1.0  0.17272  0.47090  0.82653  1.0000
  C   C1356     1.0  0.17100  0.45698  0.83499  1.0000
  C   C1357     1.0  0.18344  0.44517  0.83580  1.0000
  C   C1358     1.0  0.19762  0.44730  0.82825  1.0000
  C   C1359     1.0  0.19935  0.46116  0.81955  1.0000
  H   H1101     1.0  0.21669  0.52344  0.81644  1.0000
  H   H1102     1.0  0.20773  0.51772  0.84354  1.0000
  H   H1103     1.0  0.19018  0.50094  0.85482  1.0000
  H   H1104     1.0  0.18216  0.48973  0.83924  1.0000
  C   C1360     1.0  0.30805  0.50157  0.80914  1.0000
  H   H1105     1.0  0.16630  0.48470  0.79685  1.0000
  H   H1106     1.0  0.14100  0.49881  0.79363  1.0000
  H   H1107     1.0  0.16300  0.48001  0.82672  1.0000
  H   H1108     1.0  0.16009  0.45551  0.84143  1.0000
  H   H1109     1.0  0.18217  0.43452  0.84279  1.0000
  H   H1110     1.0  0.20734  0.43833  0.82953  1.0000
  H   H1111     1.0  0.21049  0.46259  0.81412  1.0000
  H   H1112     1.0  0.22192  0.48362  0.80218  1.0000
  H   H1113     1.0  0.24326  0.63696  0.93048  1.0000
  H   H1114     1.0  0.48958  0.33920  0.96057  1.0000
  C   C1361     1.0  0.30876  0.37169  0.94169  1.0000
  C   C1362     1.0  0.16610  0.55234  0.93131  1.0000
  C   C1363     1.0  0.16071  0.54052  0.93074  1.0000
  C   C1364     1.0  0.14567  0.54031  0.93652  1.0000
  C   C1365     1.0  0.06292  0.52915  0.90429  1.0000
  H   H1115     1.0  0.28468  0.48859  0.95758  1.0000
  C   C1366     1.0  0.07737  0.55020  0.97170  1.0000
  H   H1116     1.0  0.34708  0.56226  0.90433  1.0000
  H   H1117     1.0  0.17788  0.55225  0.92730  1.0000
  H   H1118     1.0  0.16825  0.53139  0.92606  1.0000
  H   H1119     1.0  0.14158  0.53096  0.93640  1.0000
  C   C1367     1.0  0.31295  0.52763  0.96083  1.0000
  H   H1120     1.0  0.47599  0.35515  0.88655  1.0000
  Fe  Fe103     1.0  0.29198  0.60805  0.92937  1.0000
  C   C1368     1.0  0.09281  0.42950  0.74427  1.0000
  H   H1121     1.0  0.00433  0.42149  0.77479  1.0000
  C   C1369     1.0  0.26077  0.64533  0.91370  1.0000
  H   H1122     1.0  0.19337  0.61749  0.86529  1.0000
  C   C1370     1.0  0.45805  0.32645  0.96642  1.0000
  H   H1123     1.0  0.30578  0.62920  0.96033  1.0000
  C   C1371     1.0  0.05362  0.43824  0.78078  1.0000
  C   C1372     1.0  0.09571  0.45144  0.83598  1.0000
  H   H1124     1.0  0.45847  0.61418  0.94654  1.0000
  C   C1373     1.0  0.19961  0.49085  0.77759  1.0000
  C   C1374     1.0  0.30121  0.54926  0.83781  1.0000
  C   C1375     1.0  0.28906  0.55560  0.81271  1.0000
  C   C1376     1.0  0.09600  0.53210  0.76906  1.0000
  H   H1125     1.0  0.01650  0.41127  0.74636  1.0000
  C   C1377     1.0  0.22582  0.48534  0.76567  1.0000
  C   C1378     1.0  0.18044  0.61056  0.88698  1.0000
  C   C1379     1.0  0.10806  0.61333  0.84565  1.0000
  C   C1380     1.0  0.10457  0.59190  0.91682  1.0000
  H   H1126     1.0  0.14062  0.59040  0.89698  1.0000
  C   C1381     1.0  0.34233  0.62565  0.93798  1.0000
  C   C1382     1.0  0.08141  0.46070  0.83591  1.0000
  H   H1127     1.0  0.09881  0.44115  0.83224  1.0000
  C   C1383     1.0  0.08650  0.42263  0.79913  1.0000
  C   C1384     1.0  0.14791  0.59940  0.96977  1.0000
  H   H1128     1.0  0.45466  0.40859  0.93769  1.0000
  C   C1385     1.0  0.09830  0.56491  0.87198  1.0000
  H   H1129     1.0  0.32186  0.48414  0.88582  1.0000
  C   C1386     1.0  0.49163  0.63265  0.94894  1.0000
  C   C1387     1.0  0.19185  0.61675  0.87703  1.0000
  H   H1130     1.0  0.47406  0.33374  0.84859  1.0000
  H   H1131     1.0  0.25344  0.59021  0.92963  1.0000
  C   C1388     1.0  0.13965  0.56773  0.89999  1.0000
  H   H1132     1.0  0.25133  0.64029  0.84138  1.0000
  S   S209      1.0  0.28233  0.61328  0.95194  1.0000
  C   C1389     1.0  0.08909  0.55619  0.87140  1.0000
  P   P45       1.0  0.05623  0.53086  0.95318  1.0000
  C   C1390     1.0  0.03421  0.48096  0.80932  1.0000
  C   C1391     1.0  0.28371  0.53630  0.87186  1.0000
  C   C1392     1.0  0.14273  0.51814  0.79957  1.0000
  C   C1393     1.0  0.14365  0.59286  0.84188  1.0000
  H   H1133     1.0  0.35579  0.56624  0.95552  1.0000
  C   C1394     1.0  0.09927  0.62770  0.84535  1.0000
  C   C1395     1.0  0.30045  0.59230  0.86317  1.0000
  C   C1396     1.0  0.05628  0.47060  0.81992  1.0000
  C   C1397     1.0  0.38752  0.42681  0.96441  1.0000
  H   H1134     1.0  0.27864  0.50859  0.90217  1.0000
  C   C1398     1.0  0.33382  0.51150  0.80564  1.0000
  C   C1399     1.0  0.33575  0.54232  0.88424  1.0000
  C   C1400     1.0  0.34485  0.52805  0.88614  1.0000
  C   C1401     1.0  0.36024  0.52608  0.88418  1.0000
  C   C1402     1.0  0.36660  0.53836  0.88022  1.0000
  C   C1403     1.0  0.35756  0.55276  0.87818  1.0000
  C   C1404     1.0  0.34203  0.55464  0.88040  1.0000
  P   P46       1.0  0.36546  0.56868  0.87445  1.0000
  C   C1405     1.0  0.36501  0.57300  0.89170  1.0000
  C   C1406     1.0  0.38468  0.56470  0.86455  1.0000
  C   C1407     1.0  0.39594  0.55652  0.87231  1.0000
  C   C1408     1.0  0.41086  0.55344  0.86485  1.0000
  C   C1409     1.0  0.41469  0.55854  0.84959  1.0000
  C   C1410     1.0  0.40359  0.56672  0.84178  1.0000
  C   C1411     1.0  0.38864  0.56982  0.84921  1.0000
  C   C1412     1.0  0.37465  0.58136  0.89227  1.0000
  C   C1413     1.0  0.37407  0.58503  0.90553  1.0000
  C   C1414     1.0  0.36381  0.58050  0.91826  1.0000
  C   C1415     1.0  0.35418  0.57220  0.91777  1.0000
  C   C1416     1.0  0.35478  0.56846  0.90455  1.0000
  C   C1417     1.0  0.35449  0.58410  0.86361  1.0000
  C   C1418     1.0  0.34989  0.59808  0.86724  1.0000
  H   H1135     1.0  0.03826  0.46746  0.84832  1.0000
  H   H1136     1.0  0.12678  0.55452  0.87782  1.0000
  C   C1419     1.0  0.35009  0.58207  0.85167  1.0000
  H   H1137     1.0  0.32375  0.54385  0.88631  1.0000
  H   H1138     1.0  0.33994  0.51849  0.88970  1.0000
  H   H1139     1.0  0.36715  0.51498  0.88622  1.0000
  H   H1140     1.0  0.37850  0.53651  0.87913  1.0000
  H   H1141     1.0  0.33467  0.56557  0.87963  1.0000
  H   H1142     1.0  0.39317  0.55254  0.88416  1.0000
  C   C1420     1.0  0.27206  0.65302  0.91042  1.0000
  C   C1421     1.0  0.15637  0.56420  0.93722  1.0000
  C   C1422     1.0  0.31436  0.49911  0.82141  1.0000
  C   C1423     1.0  0.18679  0.46212  0.96474  1.0000
  C   C1424     1.0  0.22679  0.40281  0.97745  1.0000
  C   C1425     1.0  0.13597  0.55200  0.94272  1.0000
  H   H1143     1.0  0.16096  0.57311  0.93760  1.0000
  H   H1144     1.0  0.24330  0.63165  0.89622  1.0000
  H   H1145     1.0  0.12446  0.55142  0.94747  1.0000
  S   S210      1.0  0.30107  0.62479  0.91044  1.0000
  H   H1146     1.0  0.20831  0.51256  0.80058  1.0000
  C   C1426     1.0  0.11565  0.57405  0.96666  1.0000
  C   C1427     1.0  0.14113  0.56425  0.94279  1.0000
  H   H1147     1.0  0.19458  0.46920  0.96209  1.0000
  H   H1148     1.0  0.17327  0.51219  0.95878  1.0000
  Fe  Fe104     1.0  0.08627  0.46033  0.76004  1.0000
  C   C1428     1.0  0.21862  0.48515  0.79184  1.0000
  C   C1429     1.0  0.36683  0.34701  0.95501  1.0000
  H   H1149     1.0  0.26855  0.53749  0.84078  1.0000
  H   H1150     1.0  0.47000  0.64470  0.95796  1.0000
  H   H1151     1.0  0.31406  0.39848  0.91075  1.0000
  H   H1152     1.0  0.09073  0.56482  0.83444  1.0000
  H   H1153     1.0  0.07985  0.54886  0.85729  1.0000
  H   H1154     1.0  0.07242  0.42699  0.85146  1.0000
  Fe  Fe105     1.0  0.32129  0.60659  0.90696  1.0000
  C   C1430     1.0  0.07767  0.47379  0.84121  1.0000
  C   C1431     1.0  0.31933  0.56380  0.96707  1.0000
  C   C1432     1.0  0.20200  0.62094  0.88223  1.0000
  C   C1433     1.0  0.13844  0.59147  0.95295  1.0000
  H   H1155     1.0  0.29794  0.49811  0.81020  1.0000
  H   H1156     1.0  0.26335  0.62213  0.97800  1.0000
  H   H1157     1.0  0.19590  0.39956  0.91827  1.0000
  C   C1434     1.0  0.30635  0.56380  0.85780  1.0000
  C   C1435     1.0  0.10192  0.58350  0.97133  1.0000
  P   P47       1.0  0.12822  0.57999  0.94963  1.0000
  H   H1158     1.0  0.24943  0.40092  0.96494  1.0000
  C   C1436     1.0  0.09270  0.56502  0.84494  1.0000
  C   C1437     1.0  0.26689  0.50570  0.86667  1.0000
  H   H1159     1.0  0.30273  0.37853  0.93329  1.0000
  H   H1160     1.0  0.27920  0.53397  0.95878  1.0000
  H   H1161     1.0  0.35518  0.41910  0.89716  1.0000
  H   H1162     1.0  0.29769  0.55739  0.88138  1.0000
  H   H1163     1.0  0.11558  0.61063  0.83559  1.0000
  H   H1164     1.0  0.25269  0.52771  0.86429  1.0000
  H   H1165     1.0  0.17048  0.60367  0.90992  1.0000
  C   C1438     1.0  0.33503  0.50892  0.97558  1.0000
  C   C1439     1.0  0.36337  0.33551  0.95126  1.0000
  C   C1440     1.0  0.15341  0.60996  0.94360  1.0000
  C   C1441     1.0  0.44415  0.65422  0.92434  1.0000
  C   C1442     1.0  0.33239  0.41047  0.95331  1.0000
  H   H1166     1.0  0.33179  0.41919  0.91599  1.0000
  H   H1167     1.0  0.37469  0.39588  0.89589  1.0000
  C   C1443     1.0  0.14537  0.60115  0.94108  1.0000
  C   C1444     1.0  0.04492  0.43775  0.79503  1.0000
  P   P48       1.0  0.32054  0.39595  0.93935  1.0000
  C   C1445     1.0  0.33773  0.39574  0.92556  1.0000
  C   C1446     1.0  0.34008  0.40888  0.91546  1.0000
  C   C1447     1.0  0.35330  0.40886  0.90471  1.0000
  C   C1448     1.0  0.36431  0.39579  0.90403  1.0000
  C   C1449     1.0  0.36212  0.38271  0.91411  1.0000
  C   C1450     1.0  0.34884  0.38264  0.92478  1.0000
  H   H1168     1.0  0.17469  0.39543  0.96315  1.0000
  H   H1169     1.0  0.37084  0.37267  0.91372  1.0000
  H   H1170     1.0  0.34738  0.37237  0.93236  1.0000
  H   H1171     1.0  0.19213  0.54560  0.82771  1.0000
  C   C1451     1.0  0.08647  0.55607  0.85786  1.0000
  C   C1452     1.0  0.04263  0.46936  0.81807  1.0000
  H   H1172     1.0  0.09847  0.59431  0.96459  1.0000
  H   H1173     1.0  0.15914  0.61707  0.93441  1.0000
  C   C1453     1.0  0.26334  0.61347  0.95963  1.0000
  C   C1454     1.0  0.40968  0.44266  0.96426  1.0000
  H   H1174     1.0  0.14934  0.59832  0.98085  1.0000
  C   C1455     1.0  0.06721  0.54367  0.96924  1.0000
  H   H1175     1.0  0.27143  0.57125  0.82338  1.0000
  H   H1176     1.0  0.14486  0.60162  0.92988  1.0000
  H   H1177     1.0  0.29131  0.52124  0.82960  1.0000
  C   C1456     1.0  0.28313  0.46497  0.82928  1.0000
  C   C1457     1.0  0.45930  0.64742  0.92009  1.0000
  C   C1458     1.0  0.28218  0.49709  0.96385  1.0000
  C   C1459     1.0  0.33029  0.50396  0.96568  1.0000
  H   H1178     1.0  0.30001  0.35285  0.94348  1.0000
  H   H1179     1.0  0.10188  0.58639  0.90978  1.0000
  C   C1460     1.0  0.23956  0.60914  0.95939  1.0000
  C   C1461     1.0  0.44767  0.32865  0.97944  1.0000
  C   C1462     1.0  0.08766  0.44384  0.80727  1.0000
  C   C1463     1.0  0.30720  0.35709  0.94744  1.0000
  C   C1464     1.0  0.31791  0.37733  0.94690  1.0000
  H   H1180     1.0  0.10011  0.56477  0.88262  1.0000
  C   C1465     1.0  0.01696  0.37890  0.78688  1.0000
  H   H1181     1.0  0.06467  0.52874  0.89278  1.0000
  C   C1466     1.0  0.03924  0.43608  0.87508  1.0000
  C   C1467     1.0  0.27186  0.52608  0.84636  1.0000
  H   H1182     1.0  0.30164  0.39597  0.96894  1.0000
  C   C1468     1.0  0.06173  0.48327  0.81226  1.0000
  C   C1469     1.0  0.32521  0.48183  0.87485  1.0000
  H   H1183     1.0  0.40424  0.62069  0.96833  1.0000
  C   C1470     1.0  0.31053  0.40136  0.96783  1.0000
  H   H1184     1.0  0.27722  0.54478  0.86470  1.0000
  C   C1471     1.0  0.22973  0.48340  0.77914  1.0000
  C   C1472     1.0  0.28197  0.51172  0.95645  1.0000
  H   H1185     1.0  0.26106  0.57279  0.91269  1.0000
  H   H1186     1.0  0.20636  0.60769  0.93462  1.0000
  C   C1473     1.0  0.11707  0.59060  0.93616  1.0000
  H   H1187     1.0  0.11419  0.61159  0.94200  1.0000
  H   H1188     1.0  0.27328  0.44103  0.98220  1.0000
  P   P49       1.0  0.21410  0.62412  0.90421  1.0000
  C   C1474     1.0  0.23305  0.61395  0.97269  1.0000
  H   H1189     1.0  0.16805  0.47849  0.97293  1.0000
  H   H1190     1.0  0.32997  0.61387  0.93132  1.0000
  H   H1191     1.0  0.18778  0.61167  0.91915  1.0000
  H   H1192     1.0  0.25235  0.65337  0.88008  1.0000
  H   H1193     1.0  0.36091  0.35836  0.95185  1.0000
  C   C1475     1.0  0.03393  0.45037  0.86742  1.0000
  C   C1476     1.0  0.32561  0.36810  0.95778  1.0000
  C   C1477     1.0  0.06908  0.54022  0.95550  1.0000
  C   C1478     1.0  0.18982  0.40852  0.92390  1.0000
  C   C1479     1.0  0.27987  0.49648  0.86041  1.0000
  H   H1194     1.0  0.30417  0.49358  0.86965  1.0000
  C   C1480     1.0  0.25139  0.61864  0.85525  1.0000
  C   C1481     1.0  0.48767  0.33262  0.89329  1.0000
  C   C1482     1.0  0.17894  0.60896  0.90215  1.0000
  C   C1483     1.0  0.26321  0.56389  0.97542  1.0000
  C   C1484     1.0  0.24797  0.59246  0.92055  1.0000
  C   C1485     1.0  0.25216  0.58256  0.91114  1.0000
  C   C1486     1.0  0.20391  0.61937  0.93475  1.0000
  C   C1487     1.0  0.11172  0.60596  0.93493  1.0000
  H   H1195     1.0  0.30811  0.59925  0.83981  1.0000
  C   C1488     1.0  0.42383  0.45898  0.96654  1.0000
  C   C1489     1.0  0.04242  0.45624  0.85390  1.0000
  H   H1196     1.0  0.42071  0.62489  0.98174  1.0000
  C   C1490     1.0  0.29958  0.51453  0.89128  1.0000
  H   H1197     1.0  0.30565  0.50619  0.89895  1.0000
  C   C1491     1.0  0.31261  0.57901  0.96455  1.0000
  C   C1492     1.0  0.31483  0.34803  0.95834  1.0000
  H   H1198     1.0  0.33285  0.37219  0.96186  1.0000
  C   C1493     1.0  0.17177  0.46745  0.97070  1.0000
  C   C1494     1.0  0.28484  0.51685  0.84009  1.0000
  H   H1199     1.0  0.28278  0.48497  0.86583  1.0000
  C   C1495     1.0  0.18887  0.61347  0.90737  1.0000
  C   C1496     1.0  0.24476  0.58522  0.89973  1.0000
  H   H1200     1.0  0.35427  0.46296  0.85277  1.0000
  H   H1201     1.0  0.24788  0.57745  0.89253  1.0000
  C   C1497     1.0  0.11327  0.58364  0.92711  1.0000
  C   C1498     1.0  0.34078  0.60976  0.85929  1.0000
  H   H1202     1.0  0.13766  0.54603  0.89990  1.0000
  C   C1499     1.0  0.19784  0.64925  0.93582  1.0000
  C   C1500     1.0  0.17440  0.43188  0.93814  1.0000
  H   H1203     1.0  0.06900  0.41157  0.81188  1.0000
  H   H1204     1.0  0.29799  0.60334  0.86524  1.0000
  C   C1501     1.0  0.32407  0.35351  0.96347  1.0000
  H   H1205     1.0  0.00912  0.51229  0.76995  1.0000
  H   H1206     1.0  0.30806  0.53940  0.80469  1.0000
  H   H1207     1.0  0.11730  0.44837  0.84074  1.0000
  H   H1208     1.0  0.31901  0.53391  0.82650  1.0000
  H   H1209     1.0  0.34698  0.46866  0.87773  1.0000
  H   H1210     1.0  0.17316  0.60652  0.88292  1.0000
  C   C1502     1.0  0.23703  0.51280  0.98610  1.0000
  C   C1503     1.0  0.23681  0.60531  0.91820  1.0000
  H   H1211     1.0  0.23418  0.61307  0.92531  1.0000
  S   S211      1.0  0.23878  0.61553  0.84659  1.0000
  C   C1504     1.0  0.13542  0.55770  0.89476  1.0000
  Fe  Fe106     1.0  0.20673  0.59432  0.98053  1.0000
  H   H1212     1.0  0.43338  0.64928  0.96224  1.0000
  S   S212      1.0  0.15059  0.52633  0.97782  1.0000
  C   C1505     1.0  0.12568  0.57767  0.87579  1.0000
  H   H1213     1.0  0.24206  0.41093  0.94080  1.0000
  C   C1506     1.0  0.29923  0.53440  0.86941  1.0000
  C   C1507     1.0  0.28905  0.50203  0.84721  1.0000
  C   C1508     1.0  0.30629  0.58995  0.84884  1.0000
  C   C1509     1.0  0.19280  0.51459  0.97441  1.0000
  H   H1214     1.0  0.32509  0.32868  0.92515  1.0000
  C   C1510     1.0  0.34723  0.62100  0.91339  1.0000
  H   H1215     1.0  0.29245  0.58244  0.88583  1.0000
  C   C1511     1.0  0.30701  0.52374  0.87953  1.0000
  C   C1512     1.0  0.30862  0.54202  0.82608  1.0000
  H   H1216     1.0  0.33001  0.34649  0.97190  1.0000
  C   C1513     1.0  0.15854  0.55062  0.97929  1.0000
  C   C1514     1.0  0.20345  0.48891  0.79118  1.0000
  C   C1515     1.0  0.30253  0.54519  0.81359  1.0000
  C   C1516     1.0  0.30939  0.57574  0.84616  1.0000
  C   C1517     1.0  0.31504  0.48708  0.86557  1.0000
  C   C1518     1.0  0.22910  0.60792  0.90689  1.0000
  C   C1519     1.0  0.23315  0.59774  0.89771  1.0000
  H   H1217     1.0  0.13060  0.55311  0.97267  1.0000
  H   H1218     1.0  0.01632  0.57629  0.95585  1.0000
  C   C1520     1.0  0.20584  0.62998  0.92155  1.0000
  H   H1219     1.0  0.10231  0.43628  0.78809  1.0000
  C   C1521     1.0  0.05327  0.49487  0.80355  1.0000
  H   H1220     1.0  0.13153  0.56464  0.83743  1.0000
  C   C1522     1.0  0.30040  0.56627  0.87218  1.0000
  H   H1221     1.0  0.22753  0.59949  0.88885  1.0000
  H   H1222     1.0  0.29379  0.63869  0.93906  1.0000
  C   C1523     1.0  0.25176  0.64324  0.92785  1.0000
  P   P50       1.0  0.30907  0.54586  0.85383  1.0000
  S   S213      1.0  0.10587  0.46887  0.75946  1.0000
  C   C1524     1.0  0.20042  0.61960  0.89745  1.0000
  Fe  Fe107     1.0  0.11383  0.49919  0.97845  1.0000
  C   C1525     1.0  0.12988  0.58771  0.88119  1.0000
  C   C1526     1.0  0.10306  0.61422  0.92458  1.0000
  H   H1223     1.0  0.33692  0.62038  0.86253  1.0000
  C   C1527     1.0  0.01034  0.55796  0.97291  1.0000
  H   H1224     1.0  0.05641  0.56411  0.74623  1.0000
  C   C1528     1.0  0.37925  0.40467  0.97937  1.0000
  H   H1225     1.0  0.43533  0.42798  0.94868  1.0000
  H   H1226     1.0  0.11206  0.51154  0.77386  1.0000
  C   C1529     1.0  0.26506  0.63555  0.85722  1.0000
  H   H1227     1.0  0.06236  0.44430  0.77709  1.0000
  H   H1228     1.0  0.12820  0.59930  0.87585  1.0000
  H   H1229     1.0  0.09221  0.53312  0.78049  1.0000
  C   C1530     1.0  0.29118  0.45050  0.83329  1.0000
  C   C1531     1.0  0.44101  0.61901  0.96563  1.0000
  C   C1532     1.0  0.33639  0.60765  0.84746  1.0000
  H   H1230     1.0  0.04143  0.50712  0.95706  1.0000
  H   H1231     1.0  0.28402  0.55776  0.80330  1.0000
  H   H1232     1.0  0.14535  0.56383  0.90909  1.0000
  C   C1533     1.0  0.13791  0.57288  0.83530  1.0000
  C   C1534     1.0  0.13695  0.58271  0.89317  1.0000
  C   C1535     1.0  0.17707  0.40843  0.97718  1.0000
  C   C1536     1.0  0.15660  0.59207  0.83073  1.0000
  S   S214      1.0  0.34342  0.61320  0.90064  1.0000
  C   C1537     1.0  0.03950  0.42338  0.77583  1.0000
  H   H1233     1.0  0.11289  0.41333  0.74816  1.0000
  H   H1234     1.0  0.33695  0.55569  0.84873  1.0000
  C   C1538     1.0  0.04942  0.53706  0.91136  1.0000
  C   C1539     1.0  0.28790  0.56001  0.83660  1.0000
  H   H1235     1.0  0.08072  0.55194  0.76129  1.0000
  C   C1540     1.0  0.08926  0.55372  0.96031  1.0000
  C   C1541     1.0  0.21077  0.48906  0.76490  1.0000
  C   C1542     1.0  0.30348  0.44785  0.83956  1.0000
  C   C1543     1.0  0.05100  0.43107  0.77124  1.0000
  C   C1544     1.0  0.10698  0.60256  0.85882  1.0000
  C   C1545     1.0  0.13410  0.58335  0.84420  1.0000
  C   C1546     1.0  0.32859  0.53660  0.85015  1.0000
  H   H1236     1.0  0.13141  0.52407  0.79870  1.0000
  H   H1237     1.0  0.31702  0.45711  0.84712  1.0000
  C   C1547     1.0  0.31890  0.48363  0.85153  1.0000
  C   C1548     1.0  0.33979  0.54412  0.84827  1.0000
  H   H1238     1.0  0.20366  0.44355  0.95838  1.0000
  C   C1549     1.0  0.19186  0.44760  0.96255  1.0000
  H   H1239     1.0  0.34378  0.51540  0.80429  1.0000
  H   H1240     1.0  0.05733  0.41670  0.87531  1.0000
  C   C1550     1.0  0.07435  0.42044  0.81078  1.0000
  H   H1241     1.0  0.15389  0.56383  0.81756  1.0000
  H   H1242     1.0  0.32412  0.51547  0.85136  1.0000
  C   C1551     1.0  0.05364  0.40186  0.75580  1.0000
  H   H1243     1.0  0.49364  0.33160  0.86179  1.0000
  C   C1552     1.0  0.25469  0.60891  0.95286  1.0000
  C   C1553     1.0  0.36161  0.42836  0.97729  1.0000
  C   C1554     1.0  0.32851  0.52315  0.97833  1.0000
  C   C1555     1.0  0.07546  0.44177  0.81899  1.0000
  H   H1244     1.0  0.10018  0.63599  0.83517  1.0000
  C   C1556     1.0  0.33264  0.52148  0.84978  1.0000
  H   H1245     1.0  0.49233  0.37595  0.86945  1.0000
  H   H1246     1.0  0.28215  0.56606  0.84528  1.0000
  C   C1557     1.0  0.15072  0.57233  0.82398  1.0000
  P   P51       1.0  0.30575  0.48984  0.83944  1.0000
  C   C1558     1.0  0.33932  0.47312  0.87028  1.0000
  C   C1559     1.0  0.28188  0.56314  0.82412  1.0000
  H   H1247     1.0  0.19858  0.56390  0.83729  1.0000
  C   C1560     1.0  0.05957  0.51182  0.96304  1.0000
  H   H1248     1.0  0.36340  0.54233  0.84512  1.0000
  H   H1249     1.0  0.09724  0.55852  0.96231  1.0000
  C   C1561     1.0  0.32761  0.51363  0.79346  1.0000
  C   C1562     1.0  0.42178  0.45324  0.98175  1.0000
  C   C1563     1.0  0.27917  0.49340  0.97928  1.0000
  C   C1564     1.0  0.28726  0.47679  0.83163  1.0000
  C   C1565     1.0  0.34763  0.51394  0.84783  1.0000
  C   C1566     1.0  0.43450  0.33096  0.85126  1.0000
  C   C1567     1.0  0.08794  0.62061  0.87120  1.0000
  H   H1250     1.0  0.06665  0.48100  0.84148  1.0000
  H   H1251     1.0  0.30056  0.58288  0.96701  1.0000
  H   H1252     1.0  0.25265  0.56418  0.98335  1.0000
  H   H1253     1.0  0.30969  0.51057  0.78586  1.0000
  H   H1254     1.0  0.05891  0.42857  0.82916  1.0000
  C   C1568     1.0  0.38651  0.32950  0.96609  1.0000
  C   C1569     1.0  0.41785  0.45369  0.95781  1.0000
  H   H1255     1.0  0.17806  0.42064  0.90649  1.0000
  C   C1570     1.0  0.15181  0.52460  0.80386  1.0000
  H   H1256     1.0  0.45926  0.33569  0.95716  1.0000
  C   C1571     1.0  0.48919  0.33416  0.82735  1.0000
  H   H1257     1.0  0.08282  0.54151  0.93329  1.0000
  C   C1572     1.0  0.47663  0.34361  0.88719  1.0000
  H   H1258     1.0  0.33930  0.64524  0.88891  1.0000
  C   C1573     1.0  0.27678  0.56907  0.95013  1.0000
  C   C1574     1.0  0.35872  0.52147  0.84609  1.0000
  C   C1575     1.0  0.31467  0.50877  0.79524  1.0000
  C   C1576     1.0  0.32718  0.50437  0.81957  1.0000
  C   C1577     1.0  0.02745  0.38713  0.77835  1.0000
  H   H1259     1.0  0.20772  0.49057  0.75446  1.0000
  H   H1260     1.0  0.24138  0.48058  0.77979  1.0000
  C   C1578     1.0  0.09674  0.60623  0.87155  1.0000
  C   C1579     1.0  0.17216  0.39733  0.97421  1.0000
  H   H1261     1.0  0.35062  0.50220  0.84791  1.0000
  C   C1580     1.0  0.30782  0.45965  0.84172  1.0000
  C   C1581     1.0  0.34339  0.46988  0.85624  1.0000
  C   C1582     1.0  0.33327  0.47517  0.84687  1.0000
  H   H1262     1.0  0.09553  0.59793  0.88168  1.0000
  H   H1263     1.0  0.48058  0.33497  0.82163  1.0000
  C   C1583     1.0  0.29989  0.47428  0.83755  1.0000
  H   H1264     1.0  0.24814  0.51180  0.97928  1.0000
  H   H1265     1.0  0.33219  0.52676  0.98617  1.0000
  C   C1584     1.0  0.23774  0.40390  0.96445  1.0000
  H   H1266     1.0  0.23444  0.48398  0.75583  1.0000
  H   H1267     1.0  0.04063  0.54271  0.90535  1.0000
  C   C1585     1.0  0.15467  0.60910  0.95793  1.0000
  C   C1586     1.0  0.27017  0.62554  0.86931  1.0000
  C   C1587     1.0  0.33891  0.61967  0.92787  1.0000
  C   C1588     1.0  0.00790  0.40958  0.77801  1.0000
  H   H1268     1.0  0.21137  0.62475  0.87435  1.0000
  C   C1589     1.0  0.37291  0.43520  0.96805  1.0000
  C   C1590     1.0  0.10619  0.45540  0.84095  1.0000
  H   H1269     1.0  0.03267  0.43157  0.88557  1.0000
  H   H1270     1.0  0.38131  0.35296  0.96499  1.0000
  H   H1271     1.0  0.33622  0.62412  0.94931  1.0000
  H   H1272     1.0  0.33648  0.47235  0.83611  1.0000
  C   C1591     1.0  0.25675  0.61850  0.97277  1.0000
  H   H1273     1.0  0.46233  0.63792  0.91507  1.0000
  C   C1592     1.0  0.19220  0.40833  0.93766  1.0000
  H   H1274     1.0  0.09909  0.62608  0.92363  1.0000
  C   C1593     1.0  0.05863  0.53032  0.93403  1.0000
  C   C1594     1.0  0.07198  0.52203  0.92694  1.0000
  H   H1275     1.0  0.42645  0.45732  0.98850  1.0000
  H   H1276     1.0  0.08001  0.62339  0.88103  1.0000
  C   C1595     1.0  0.16010  0.58185  0.82175  1.0000
  H   H1277     1.0  0.33274  0.51915  0.78266  1.0000
  H   H1278     1.0  0.30925  0.43657  0.84335  1.0000
  H   H1279     1.0  0.41965  0.45813  0.94601  1.0000
  H   H1280     1.0  0.20000  0.39905  0.94268  1.0000
  H   H1281     1.0  0.17283  0.52177  0.80938  1.0000
  S   S215      1.0  0.28115  0.63111  0.87802  1.0000
  H   H1282     1.0  0.28395  0.51459  0.94449  1.0000
  C   C1596     1.0  0.21168  0.40762  0.97690  1.0000
  H   H1283     1.0  0.16009  0.37998  0.98328  1.0000
  H   H1284     1.0  0.05824  0.43126  0.76041  1.0000
  C   C1597     1.0  0.31385  0.64883  0.95717  1.0000
  H   H1285     1.0  0.07264  0.48410  0.81270  1.0000
  C   C1598     1.0  0.08949  0.54275  0.75811  1.0000
  H   H1286     1.0  0.28756  0.44133  0.83203  1.0000
  C   C1599     1.0  0.08101  0.54392  0.94405  1.0000
  S   S216      1.0  0.20975  0.45537  0.98723  1.0000
  P   P52       1.0  0.18782  0.41993  0.96259  1.0000
  H   H1287     1.0  0.21553  0.41870  0.93959  1.0000
  C   C1600     1.0  0.00143  0.49196  0.77906  1.0000
  C   C1601     1.0  0.23357  0.40954  0.95083  1.0000
  H   H1288     1.0  0.14758  0.53555  0.80630  1.0000
  C   C1602     1.0  0.30612  0.64026  0.95384  1.0000
  H   H1289     1.0  0.07618  0.55222  0.98256  1.0000
  H   H1290     1.0  0.47693  0.59706  0.96782  1.0000
  H   H1291     1.0  0.16842  0.44112  0.94332  1.0000
  H   H1292     1.0  0.04297  0.58694  0.75527  1.0000
  C   C1603     1.0  0.32829  0.65228  0.88850  1.0000
  H   H1293     1.0  0.27683  0.57334  0.93851  1.0000
  C   C1604     1.0  0.33497  0.55927  0.96366  1.0000
  H   H1294     1.0  0.15851  0.43734  0.97408  1.0000
  C   C1605     1.0  0.44678  0.61520  0.95175  1.0000
  H   H1295     1.0  0.26507  0.47445  0.96710  1.0000
  C   C1606     1.0  0.42556  0.62117  0.97144  1.0000
  C   C1607     1.0  0.24104  0.65262  0.88096  1.0000
  H   H1296     1.0  0.31607  0.60117  0.95697  1.0000
  C   C1608     1.0  0.29429  0.44699  0.97888  1.0000
  C   C1609     1.0  0.43633  0.65139  0.97145  1.0000
  C   C1610     1.0  0.29920  0.64572  0.94181  1.0000
  Fe  Fe108     1.0  0.23340  0.44557  0.97751  1.0000
  H   H1297     1.0  0.33527  0.49296  0.96345  1.0000
  C   C1611     1.0  0.44566  0.64034  0.97988  1.0000
  H   H1298     1.0  0.05797  0.54110  0.97814  1.0000
  H   H1299     1.0  0.04557  0.48108  0.97068  1.0000
  C   C1612     1.0  0.29028  0.56318  0.95480  1.0000
  H   H1300     1.0  0.20350  0.40728  0.98720  1.0000
  H   H1301     1.0  0.35034  0.43489  0.97998  1.0000
  S   S217      1.0  0.19660  0.55960  0.97764  1.0000
  H   H1302     1.0  0.23001  0.39876  0.98804  1.0000
  C   C1613     1.0  0.31717  0.53253  0.97119  1.0000
  H   H1303     1.0  0.18295  0.51483  0.98329  1.0000
  C   C1614     1.0  0.31115  0.40668  0.97973  1.0000
  C   C1615     1.0  0.49801  0.34542  0.92357  1.0000
  S   S218      1.0  0.13588  0.49050  0.98503  1.0000
  C   C1616     1.0  0.46649  0.33968  0.88179  1.0000
  H   H1304     1.0  0.07905  0.51229  0.97025  1.0000
  C   C1617     1.0  0.24164  0.61887  0.97920  1.0000
  Fe  Fe109     1.0  0.13301  0.51339  0.98818  1.0000
  S   S219      1.0  0.24302  0.45814  0.98759  1.0000
  S   S220      1.0  0.21417  0.61425  0.98128  1.0000
  H   H1305     1.0  0.16574  0.56951  0.98000  1.0000
  C   C1618     1.0  0.31922  0.51329  0.95839  1.0000
  C   C1619     1.0  0.34373  0.56978  0.95806  1.0000
  C   C1620     1.0  0.06687  0.39937  0.76074  1.0000
  C   C1621     1.0  0.40775  0.43688  0.97952  1.0000
  H   H1306     1.0  0.99976  0.56443  0.97781  1.0000
  H   H1307     1.0  0.20380  0.65350  0.91226  1.0000
  H   H1308     1.0  0.02047  0.36699  0.79025  1.0000
  C   C1622     1.0  0.09257  0.57908  0.98489  1.0000
  C   C1623     1.0  0.03454  0.43880  0.74074  1.0000
  Fe  Fe110     1.0  0.37360  0.65605  0.94001  1.0000
  C   C1624     1.0  0.30553  0.44708  0.98561  1.0000
  H   H1309     1.0  0.08297  0.48640  0.98365  1.0000
  C   C1625     1.0  0.25405  0.64883  0.93878  1.0000
  H   H1310     1.0  0.34373  0.50171  0.98113  1.0000
  C   C1626     1.0  0.31801  0.65455  0.90161  1.0000
  C   C1627     1.0  0.05395  0.39547  0.74421  1.0000
  H   H1311     1.0  0.40168  0.42824  0.98475  1.0000
  C   C1628     1.0  0.47056  0.65287  0.92236  1.0000
  H   H1312     1.0  0.33223  0.65674  0.86480  1.0000
  C   C1629     1.0  0.10473  0.41759  0.74128  1.0000
  C   C1630     1.0  0.27696  0.51888  0.97987  1.0000
  C   C1631     1.0  0.49216  0.64117  0.98389  1.0000
  H   H1313     1.0  0.48397  0.63471  0.98593  1.0000
  H   H1314     1.0  0.38166  0.39278  0.98345  1.0000
  H   H1315     1.0  0.01911  0.46868  0.74517  1.0000
  H   H1316     1.0  0.06628  0.47071  0.98413  1.0000
  H   H1317     1.0  0.05536  0.60779  0.74984  1.0000
  C   C1632     1.0  0.05433  0.58605  0.74889  1.0000
  H   H1318     1.0  0.49591  0.33571  0.89691  1.0000
  C   C1633     1.0  0.49553  0.60601  0.95421  1.0000
  H   H1319     1.0  0.27566  0.52746  0.98560  1.0000
  S   S221      1.0  0.07767  0.47930  0.74279  1.0000
  C   C1634     1.0  0.06131  0.59778  0.74583  1.0000
  C   C1635     1.0  0.02004  0.42157  0.74160  1.0000
  Fe  Fe111     1.0  0.09637  0.48862  0.74360  1.0000
  C   C1636     1.0  0.09433  0.54138  0.74329  1.0000
  C   C1637     1.0  0.27634  0.50432  0.98747  1.0000
  C   C1638     1.0  0.41376  0.44219  0.98822  1.0000
  H   H1320     1.0  0.27935  0.48197  0.98475  1.0000
  H   H1321     1.0  0.23647  0.49007  0.98814  1.0000
  H   H1322     1.0  0.32292  0.41792  0.98765  1.0000
  C   C1639     1.0  0.03562  0.48133  0.73910  1.0000
  C   C1640     1.0  0.10555  0.52910  0.73968  1.0000
  H   H1323     1.0  0.49819  0.35681  0.92266  1.0000
  H   H1324     1.0  0.40208  0.32608  0.90286  1.0000
  H   H1325     1.0  0.08198  0.58635  0.98845  1.0000
  H   H1326     1.0  0.42686  0.32457  0.89385  1.0000
  C   C1641     1.0  0.46687  0.32476  0.88323  1.0000
  H   H1327     1.0  0.45398  0.96516  0.10556  1.0000
  C   C1642     1.0  0.44216  0.96863  0.10551  1.0000
  Fe  Fe112     1.0  0.46892  0.82222  0.01897  1.0000
  S   S222      1.0  0.48469  0.82514  0.03109  1.0000
  C   C1643     1.0  0.37766  0.80801  0.01118  1.0000
  Fe  Fe113     1.0  0.44456  0.81793  0.04639  1.0000
  S   S223      1.0  0.45799  0.82059  0.06092  1.0000
  S   S224      1.0  0.42139  0.81379  0.05603  1.0000
  Fe  Fe114     1.0  0.46431  0.83936  0.04283  1.0000
  S   S225      1.0  0.46218  0.86063  0.04990  1.0000
  Fe  Fe115     1.0  0.47727  0.80617  0.04839  1.0000
  H   H1328     1.0  0.48151  0.97458  0.13012  1.0000
  S   S226      1.0  0.44907  0.83805  0.02919  1.0000
  S   S227      1.0  0.46336  0.80205  0.03542  1.0000
  C   C1644     1.0  0.48359  0.87531  0.07226  1.0000
  H   H1329     1.0  0.49364  0.98053  0.10144  1.0000
  S   S228      1.0  0.46295  0.87911  0.13508  1.0000
  H   H1330     1.0  0.47171  0.87890  0.19884  1.0000
  H   H1331     1.0  0.47533  0.78385  0.12468  1.0000
  H   H1332     1.0  0.45675  0.84602  0.08329  1.0000
  C   C1645     1.0  0.46116  0.85216  0.10131  1.0000
  H   H1333     1.0  0.41627  0.92755  0.12169  1.0000
  C   C1646     1.0  0.44409  0.65787  0.99458  1.0000
  C   C1647     1.0  0.41942  0.97322  0.16126  1.0000
  H   H1334     1.0  0.39700  0.91698  0.14117  1.0000
  C   C1648     1.0  0.38862  0.98732  0.21765  1.0000
  S   S229      1.0  0.45905  0.91108  0.19418  1.0000
  S   S230      1.0  0.42366  0.90068  0.19334  1.0000
  C   C1649     1.0  0.47672  0.75065  0.01231  1.0000
  Fe  Fe116     1.0  0.40587  0.75051  0.02702  1.0000
  S   S231      1.0  0.42971  0.74216  0.01643  1.0000
  S   S232      1.0  0.39808  0.76274  0.04564  1.0000
  Fe  Fe117     1.0  0.39386  0.73444  0.01053  1.0000
  S   S233      1.0  0.41687  0.72457  0.99916  1.0000
  S   S234      1.0  0.37366  0.73093  0.00521  1.0000
  Fe  Fe118     1.0  0.42313  0.72051  0.02091  1.0000
  S   S235      1.0  0.43406  0.69830  0.03269  1.0000
  Fe  Fe119     1.0  0.42069  0.74717  0.99587  1.0000
  C   C1650     1.0  0.46465  0.84426  0.09016  1.0000
  S   S236      1.0  0.39975  0.72854  0.03267  1.0000
  S   S237      1.0  0.39727  0.75744  0.00616  1.0000
  S   S238      1.0  0.48461  0.88465  0.21905  1.0000
  C   C1651     1.0  0.48034  0.73568  0.06167  1.0000
  C   C1652     1.0  0.39074  0.70466  0.99812  1.0000
  H   H1335     1.0  0.44788  0.69692  0.07932  1.0000
  H   H1336     1.0  0.39636  0.67779  0.02459  1.0000
  H   H1337     1.0  0.45402  0.77550  0.03999  1.0000
  C   C1653     1.0  0.48687  0.74148  0.06962  1.0000
  H   H1338     1.0  0.34915  0.83541  0.01743  1.0000
  C   C1654     1.0  0.42546  0.93366  0.13678  1.0000
  C   C1655     1.0  0.47917  0.93188  0.13646  1.0000
  H   H1339     1.0  0.48292  0.95938  0.22196  1.0000
  H   H1340     1.0  0.48301  0.74369  0.00449  1.0000
  H   H1341     1.0  0.40355  0.69902  0.10029  1.0000
  C   C1656     1.0  0.49485  0.95681  0.22114  1.0000
  H   H1342     1.0  0.44440  0.98941  0.09087  1.0000
  C   C1657     1.0  0.48537  0.78511  0.11634  1.0000
  C   C1658     1.0  0.33844  0.68842  0.09169  1.0000
  H   H1343     1.0  0.45157  0.67673  0.05159  1.0000
  H   H1344     1.0  0.41229  0.92771  0.17407  1.0000
  H   H1345     1.0  0.36919  0.77508  0.03006  1.0000
  C   C1659     1.0  0.40442  0.92188  0.14406  1.0000
  H   H1346     1.0  0.38632  0.85441  0.99109  1.0000
  H   H1347     1.0  0.45538  0.83371  0.20132  1.0000
  H   H1348     1.0  0.35131  0.69157  0.06962  1.0000
  C   C1660     1.0  0.46260  0.95289  0.14596  1.0000
  C   C1661     1.0  0.39858  0.70786  0.09217  1.0000
  H   H1349     1.0  0.41558  0.98554  0.19768  1.0000
  H   H1350     1.0  0.45924  0.97553  0.20901  1.0000
  C   C1662     1.0  0.45235  0.88558  0.15108  1.0000
  C   C1663     1.0  0.45492  0.89743  0.15503  1.0000
  C   C1664     1.0  0.44609  0.90228  0.16790  1.0000
  C   C1665     1.0  0.43478  0.89520  0.17691  1.0000
  C   C1666     1.0  0.43201  0.88365  0.17265  1.0000
  C   C1667     1.0  0.44075  0.87886  0.15981  1.0000
  H   H1351     1.0  0.46363  0.90288  0.14813  1.0000
  H   H1352     1.0  0.44779  0.91175  0.17056  1.0000
  H   H1353     1.0  0.42320  0.87825  0.17939  1.0000
  H   H1354     1.0  0.43859  0.86982  0.15670  1.0000
  H   H1355     1.0  0.45573  0.98473  0.12634  1.0000
  C   C1668     1.0  0.40407  0.98362  0.23519  1.0000
  C   C1669     1.0  0.47640  0.86337  0.05672  1.0000
  C   C1670     1.0  0.47257  0.87295  0.06657  1.0000
  H   H1356     1.0  0.43470  0.98616  0.16041  1.0000
  C   C1671     1.0  0.46833  0.86899  0.19928  1.0000
  H   H1357     1.0  0.49451  0.84926  0.04460  1.0000
  S   S239      1.0  0.45926  0.92381  0.22211  1.0000
  H   H1358     1.0  0.46099  0.87828  0.07005  1.0000
  H   H1359     1.0  0.48055  0.88237  0.08012  1.0000
  C   C1672     1.0  0.48064  0.99094  0.14187  1.0000
  C   C1673     1.0  0.36878  0.84403  0.00593  1.0000
  C   C1674     1.0  0.41596  0.79918  0.05264  1.0000
  C   C1675     1.0  0.42395  0.79169  0.04124  1.0000
  C   C1676     1.0  0.41878  0.78034  0.03883  1.0000
  C   C1677     1.0  0.40561  0.77654  0.04788  1.0000
  C   C1678     1.0  0.39783  0.78395  0.05933  1.0000
  C   C1679     1.0  0.40287  0.79527  0.06159  1.0000
  H   H1360     1.0  0.43395  0.79483  0.03420  1.0000
  H   H1361     1.0  0.42496  0.77453  0.03010  1.0000
  H   H1362     1.0  0.38773  0.78103  0.06644  1.0000
  H   H1363     1.0  0.39661  0.80101  0.07038  1.0000
  C   C1680     1.0  0.48153  0.69246  0.03756  1.0000
  C   C1681     1.0  0.47280  0.68259  0.04644  1.0000
  C   C1682     1.0  0.45811  0.68469  0.04507  1.0000
  C   C1683     1.0  0.45194  0.69693  0.03515  1.0000
  C   C1684     1.0  0.46043  0.70720  0.02670  1.0000
  C   C1685     1.0  0.47539  0.70476  0.02764  1.0000
  C   C1686     1.0  0.40541  0.98164  0.14191  1.0000
  H   H1364     1.0  0.47717  0.88460  0.17098  1.0000
  H   H1365     1.0  0.45572  0.71655  0.01894  1.0000
  H   H1366     1.0  0.48230  0.71210  0.02039  1.0000
  H   H1367     1.0  0.46061  0.78667  0.01352  1.0000
  H   H1368     1.0  0.46266  0.71518  0.07616  1.0000
  H   H1369     1.0  0.47810  0.91075  0.16209  1.0000
  C   C1687     1.0  0.45402  0.98154  0.21778  1.0000
  C   C1688     1.0  0.43625  0.97030  0.19133  1.0000
  H   H1370     1.0  0.42221  0.96533  0.17108  1.0000
  C   C1689     1.0  0.47244  0.76593  0.00735  1.0000
  C   C1690     1.0  0.36955  0.79243  0.04001  1.0000
  H   H1371     1.0  0.46450  0.72683  0.99408  1.0000
  C   C1691     1.0  0.46021  0.99027  0.13193  1.0000
  C   C1692     1.0  0.37804  0.71596  0.99638  1.0000
  Fe  Fe120     1.0  0.48512  0.88495  0.12333  1.0000
  H   H1372     1.0  0.48394  0.66747  0.02002  1.0000
  H   H1373     1.0  0.39782  0.70502  0.00496  1.0000
  H   H1374     1.0  0.46959  0.97967  0.17533  1.0000
  C   C1693     1.0  0.37990  0.83991  0.05915  1.0000
  C   C1694     1.0  0.36634  0.84999  0.06244  1.0000
  C   C1695     1.0  0.35664  0.85485  0.05266  1.0000
  C   C1696     1.0  0.36052  0.84969  0.03954  1.0000
  C   C1697     1.0  0.37419  0.83964  0.03614  1.0000
  C   C1698     1.0  0.38379  0.83474  0.04609  1.0000
  P   P53       1.0  0.37966  0.83269  0.01938  1.0000
  C   C1699     1.0  0.39927  0.83255  0.01287  1.0000
  C   C1700     1.0  0.37646  0.81434  0.02307  1.0000
  C   C1701     1.0  0.37241  0.80644  0.03755  1.0000
  H   H1375     1.0  0.41472  0.77737  0.00680  1.0000
  C   C1702     1.0  0.46920  0.68282  0.00652  1.0000
  C   C1703     1.0  0.45395  0.71794  0.07002  1.0000
  C   C1704     1.0  0.47308  0.74434  0.02733  1.0000
  C   C1705     1.0  0.40995  0.81915  0.01237  1.0000
  C   C1706     1.0  0.42515  0.81904  0.00897  1.0000
  C   C1707     1.0  0.42979  0.83220  0.00589  1.0000
  C   C1708     1.0  0.41928  0.84556  0.00646  1.0000
  C   C1709     1.0  0.40406  0.84572  0.01018  1.0000
  C   C1710     1.0  0.43925  0.98142  0.22517  1.0000
  C   C1711     1.0  0.46056  0.76848  0.03245  1.0000
  H   H1376     1.0  0.47613  0.95917  0.07838  1.0000
  H   H1377     1.0  0.47329  0.98998  0.21558  1.0000
  Fe  Fe121     1.0  0.46346  0.90171  0.21677  1.0000
  C   C1712     1.0  0.34856  0.69492  0.08004  1.0000
  H   H1378     1.0  0.38756  0.83614  0.06661  1.0000
  H   H1379     1.0  0.36340  0.85406  0.07254  1.0000
  H   H1380     1.0  0.34615  0.86271  0.05521  1.0000
  H   H1381     1.0  0.35293  0.85369  0.03208  1.0000
  H   H1382     1.0  0.39438  0.82696  0.04373  1.0000
  H   H1383     1.0  0.37170  0.81088  0.04696  1.0000
  C   C1713     1.0  0.47477  0.98435  0.13420  1.0000
  H   H1384     1.0  0.41083  0.68067  0.04102  1.0000
  H   H1385     1.0  0.44408  0.90877  0.12512  1.0000
  C   C1714     1.0  0.43463  0.78553  0.99671  1.0000
  H   H1386     1.0  0.40667  0.80871  0.01521  1.0000
  H   H1387     1.0  0.43341  0.80872  0.00918  1.0000
  H   H1388     1.0  0.44155  0.83192  0.00357  1.0000
  H   H1389     1.0  0.42301  0.85569  0.00445  1.0000
  H   H1390     1.0  0.39604  0.85607  0.01130  1.0000
  H   H1391     1.0  0.48115  0.75125  0.07396  1.0000
  C   C1715     1.0  0.41187  0.97794  0.10460  1.0000
  C   C1716     1.0  0.37478  0.79401  0.01367  1.0000
  C   C1717     1.0  0.45148  0.96860  0.18509  1.0000
  C   C1718     1.0  0.42869  0.77043  0.08281  1.0000
  C   C1719     1.0  0.45210  0.90487  0.10313  1.0000
  C   C1720     1.0  0.45690  0.91096  0.08823  1.0000
  C   C1721     1.0  0.45740  0.92589  0.08381  1.0000
  C   C1722     1.0  0.45266  0.93486  0.09422  1.0000
  C   C1723     1.0  0.44726  0.92895  0.10915  1.0000
  C   C1724     1.0  0.44749  0.91377  0.11359  1.0000
  C   C1725     1.0  0.40325  0.92192  0.15883  1.0000
  H   H1392     1.0  0.46880  0.85625  0.11857  1.0000
  C   C1726     1.0  0.48281  0.95849  0.08606  1.0000
  S   S240      1.0  0.44031  0.89859  0.22738  1.0000
  C   C1727     1.0  0.48638  0.92209  0.23882  1.0000
  C   C1728     1.0  0.44544  0.70764  0.07204  1.0000
  C   C1729     1.0  0.41298  0.92799  0.16258  1.0000
  C   C1730     1.0  0.42413  0.93370  0.15167  1.0000
  H   H1393     1.0  0.49233  0.77352  0.03889  1.0000
  S   S241      1.0  0.42844  0.93270  0.20946  1.0000
  H   H1394     1.0  0.48359  0.71743  0.05108  1.0000
  C   C1731     1.0  0.45341  0.86827  0.20512  1.0000
  H   H1395     1.0  0.47557  0.77080  0.99571  1.0000
  C   C1732     1.0  0.45464  0.94161  0.13061  1.0000
  C   C1733     1.0  0.45199  0.95263  0.13861  1.0000
  C   C1734     1.0  0.43255  0.95911  0.11314  1.0000
  H   H1396     1.0  0.42758  0.70296  0.06566  1.0000
  C   C1735     1.0  0.40887  0.97154  0.15465  1.0000
  C   C1736     1.0  0.46839  0.93129  0.12944  1.0000
  H   H1397     1.0  0.45229  0.89315  0.10666  1.0000
  H   H1398     1.0  0.46061  0.90403  0.08015  1.0000
  H   H1399     1.0  0.45322  0.94635  0.09052  1.0000
  C   C1737     1.0  0.37489  0.85352  0.99326  1.0000
  H   H1400     1.0  0.41089  0.72315  0.09291  1.0000
  H   H1401     1.0  0.46159  0.93048  0.07232  1.0000
  H   H1402     1.0  0.43186  0.93769  0.15509  1.0000
  H   H1403     1.0  0.40339  0.96238  0.15941  1.0000
  H   H1404     1.0  0.41720  0.77055  0.08845  1.0000
  H   H1405     1.0  0.44086  0.77786  0.00458  1.0000
  H   H1406     1.0  0.39895  0.69623  0.05926  1.0000
  H   H1407     1.0  0.33808  0.70595  0.11807  1.0000
  H   H1408     1.0  0.44153  0.96077  0.13948  1.0000
  C   C1738     1.0  0.48413  0.97152  0.08897  1.0000
  H   H1409     1.0  0.39504  0.91695  0.16744  1.0000
  C   C1739     1.0  0.47148  0.85009  0.10994  1.0000
  Fe  Fe122     1.0  0.43553  0.90979  0.20484  1.0000
  H   H1410     1.0  0.48179  0.80820  0.11590  1.0000
  C   C1740     1.0  0.48905  0.79893  0.11128  1.0000
  C   C1741     1.0  0.41541  0.92781  0.13307  1.0000
  P   P54       1.0  0.44011  0.94065  0.12253  1.0000
  S   S242      1.0  0.46279  0.95102  0.18399  1.0000
  H   H1411     1.0  0.49150  0.76236  0.11420  1.0000
  H   H1412     1.0  0.49288  0.83846  0.11452  1.0000
  H   H1413     1.0  0.45555  0.75301  0.99608  1.0000
  C   C1742     1.0  0.49600  0.90888  0.20366  1.0000
  C   C1743     1.0  0.43959  0.73500  0.05262  1.0000
  C   C1744     1.0  0.48305  0.67621  0.01027  1.0000
  H   H1414     1.0  0.40970  0.95674  0.11829  1.0000
  C   C1745     1.0  0.45901  0.84353  0.20082  1.0000
  H   H1415     1.0  0.46889  0.77176  0.06050  1.0000
  H   H1416     1.0  0.44539  0.87769  0.20882  1.0000
  H   H1417     1.0  0.40140  0.95056  0.23089  1.0000
  H   H1418     1.0  0.37588  0.78910  0.00443  1.0000
  C   C1746     1.0  0.41734  0.96386  0.11262  1.0000
  C   C1747     1.0  0.39648  0.73275  0.07741  1.0000
  C   C1748     1.0  0.40269  0.72145  0.08807  1.0000
  C   C1749     1.0  0.38815  0.70563  0.08572  1.0000
  C   C1750     1.0  0.38174  0.71702  0.07512  1.0000
  C   C1751     1.0  0.38612  0.73055  0.07089  1.0000
  P   P55       1.0  0.36812  0.71405  0.06704  1.0000
  C   C1752     1.0  0.37710  0.70231  0.05375  1.0000
  C   C1753     1.0  0.35498  0.70551  0.08198  1.0000
  S   S243      1.0  0.48921  0.90057  0.10128  1.0000
  C   C1754     1.0  0.35111  0.70940  0.09582  1.0000
  C   C1755     1.0  0.36907  0.70073  0.04424  1.0000
  C   C1756     1.0  0.37597  0.69182  0.03388  1.0000
  C   C1757     1.0  0.35795  0.73183  0.05849  1.0000
  C   C1758     1.0  0.34775  0.74140  0.06725  1.0000
  C   C1759     1.0  0.34024  0.75534  0.06067  1.0000
  C   C1760     1.0  0.34288  0.75986  0.04530  1.0000
  C   C1761     1.0  0.35309  0.75047  0.03651  1.0000
  C   C1762     1.0  0.36064  0.73659  0.04307  1.0000
  H   H1419     1.0  0.39990  0.74320  0.07400  1.0000
  H   H1420     1.0  0.38512  0.69502  0.08895  1.0000
  H   H1421     1.0  0.38165  0.73941  0.06248  1.0000
  H   H1422     1.0  0.49004  0.93461  0.08997  1.0000
  H   H1423     1.0  0.35592  0.71748  0.09767  1.0000
  H   H1424     1.0  0.35755  0.70666  0.04459  1.0000
  C   C1763     1.0  0.47864  0.85716  0.19369  1.0000
  H   H1425     1.0  0.34569  0.73823  0.07915  1.0000
  H   H1426     1.0  0.33241  0.76267  0.06749  1.0000
  H   H1427     1.0  0.33709  0.77064  0.04017  1.0000
  H   H1428     1.0  0.35528  0.75389  0.02456  1.0000
  H   H1429     1.0  0.36864  0.72971  0.03597  1.0000
  C   C1764     1.0  0.45778  0.98098  0.18015  1.0000
  C   C1765     1.0  0.46411  0.77482  0.01739  1.0000
  C   C1766     1.0  0.33465  0.69240  0.10538  1.0000
  H   H1430     1.0  0.43706  0.85530  0.21006  1.0000
  H   H1431     1.0  0.42842  0.79109  0.08764  1.0000
  C   C1767     1.0  0.43399  0.71103  0.06441  1.0000
  Fe  Fe123     1.0  0.45269  0.93305  0.20030  1.0000
  C   C1768     1.0  0.43094  0.72477  0.05489  1.0000
  C   C1769     1.0  0.39907  0.68600  0.04216  1.0000
  H   H1432     1.0  0.47083  0.92275  0.12323  1.0000
  C   C1770     1.0  0.48758  0.90283  0.16579  1.0000
  H   H1433     1.0  0.36695  0.78610  0.05117  1.0000
  C   C1771     1.0  0.39221  0.69489  0.05256  1.0000
  C   C1772     1.0  0.46792  0.69471  0.99446  1.0000
  C   C1773     1.0  0.37081  0.78619  0.02809  1.0000
  H   H1434     1.0  0.45450  0.79112  0.07422  1.0000
  C   C1774     1.0  0.46552  0.75324  0.03762  1.0000
  C   C1775     1.0  0.45136  0.73153  0.05996  1.0000
  C   C1776     1.0  0.45788  0.77092  0.06711  1.0000
  P   P56       1.0  0.46221  0.74499  0.05717  1.0000
  C   C1777     1.0  0.39950  0.96246  0.22942  1.0000
  H   H1435     1.0  0.47635  0.73254  0.03090  1.0000
  H   H1436     1.0  0.43706  0.74561  0.04518  1.0000
  C   C1778     1.0  0.45177  0.75909  0.06766  1.0000
  C   C1779     1.0  0.44963  0.78213  0.07466  1.0000
  H   H1437     1.0  0.45054  0.86001  0.10316  1.0000
  H   H1438     1.0  0.42199  0.72742  0.04910  1.0000
  H   H1439     1.0  0.45930  0.67917  0.01333  1.0000
  C   C1780     1.0  0.43705  0.75897  0.07557  1.0000
  C   C1781     1.0  0.44871  0.85562  0.20579  1.0000
  C   C1782     1.0  0.43499  0.78199  0.08237  1.0000
  C   C1783     1.0  0.39077  0.97199  0.21964  1.0000
  C   C1784     1.0  0.35402  0.84283  0.00786  1.0000
  H   H1440     1.0  0.43129  0.96087  0.19493  1.0000
  C   C1785     1.0  0.48530  0.84013  0.10740  1.0000
  H   H1441     1.0  0.43180  0.75029  0.07591  1.0000
  H   H1442     1.0  0.47756  0.67305  0.05407  1.0000
  C   C1786     1.0  0.41985  0.78521  0.99794  1.0000
  H   H1443     1.0  0.48545  0.84951  0.14175  1.0000
  H   H1444     1.0  0.48172  0.83488  0.19083  1.0000
  H   H1445     1.0  0.45696  0.69997  0.99208  1.0000
  S   S244      1.0  0.47423  0.81863  0.99566  1.0000
  H   H1446     1.0  0.46026  0.96100  0.15267  1.0000
  C   C1787     1.0  0.47394  0.84426  0.19485  1.0000
  H   H1447     1.0  0.44714  0.66048  0.00346  1.0000
  C   C1788     1.0  0.49326  0.84584  0.14901  1.0000
  Fe  Fe124     1.0  0.43562  0.92172  0.23103  1.0000
  C   C1789     1.0  0.48835  0.72255  0.05681  1.0000
  H   H1448     1.0  0.40345  0.68352  0.99348  1.0000
  H   H1449     1.0  0.38102  0.81385  0.00000  1.0000
  H   H1450     1.0  0.46229  0.84991  0.99478  1.0000
  C   C1790     1.0  0.39391  0.69246  0.99162  1.0000
  H   H1451     1.0  0.38586  0.96748  0.21346  1.0000
  H   H1452     1.0  0.49758  0.97333  0.05622  1.0000
  H   H1453     1.0  0.48101  0.82876  0.07854  1.0000
  S   S245      1.0  0.47550  0.98895  0.07972  1.0000
  H   H1454     1.0  0.48264  0.86351  0.16043  1.0000
  H   H1455     1.0  0.39720  0.98034  0.13683  1.0000
  H   H1456     1.0  0.36985  0.69101  0.02627  1.0000
  H   H1457     1.0  0.44294  0.94755  0.23469  1.0000
  C   C1791     1.0  0.47624  0.94257  0.14481  1.0000
  P   P57       1.0  0.49759  0.85853  0.18444  1.0000
  C   C1792     1.0  0.42654  0.98499  0.15513  1.0000
  C   C1793     1.0  0.34099  0.70288  0.10744  1.0000
  C   C1794     1.0  0.43248  0.98899  0.23674  1.0000
  C   C1795     1.0  0.48702  0.88795  0.17104  1.0000
  H   H1458     1.0  0.48478  0.91486  0.20308  1.0000
  C   C1796     1.0  0.47858  0.83454  0.08738  1.0000
  C   C1797     1.0  0.49457  0.69272  0.98929  1.0000
  C   C1798     1.0  0.39095  0.68441  0.03288  1.0000
  C   C1799     1.0  0.42734  0.98428  0.19286  1.0000
  C   C1800     1.0  0.40606  0.96825  0.23720  1.0000
  H   H1459     1.0  0.40015  0.98154  0.10419  1.0000
  H   H1460     1.0  0.49041  0.78345  0.01303  1.0000
  H   H1461     1.0  0.32681  0.68734  0.11439  1.0000
  H   H1462     1.0  0.33355  0.68027  0.09009  1.0000
  H   H1463     1.0  0.48978  0.92390  0.13558  1.0000
  H   H1464     1.0  0.48446  0.94284  0.15050  1.0000
  C   C1801     1.0  0.46203  0.98943  0.22166  1.0000
  C   C1802     1.0  0.48909  0.83244  0.09592  1.0000
  H   H1465     1.0  0.49168  0.85187  0.21685  1.0000
  H   H1466     1.0  0.33409  0.85016  0.99903  1.0000
  C   C1803     1.0  0.49140  0.85652  0.05229  1.0000
  C   C1804     1.0  0.43672  0.98250  0.09723  1.0000
  C   C1805     1.0  0.34546  0.85114  0.99746  1.0000
  C   C1806     1.0  0.49175  0.85385  0.15964  1.0000
  H   H1467     1.0  0.48061  0.93252  0.23306  1.0000
  C   C1807     1.0  0.42158  0.98725  0.09688  1.0000
  C   C1808     1.0  0.49566  0.68134  0.00179  1.0000
  C   C1809     1.0  0.49271  0.97058  0.09895  1.0000
  S   S246      1.0  0.49204  0.78810  0.06183  1.0000
  C   C1810     1.0  0.49065  0.94460  0.09262  1.0000
  H   H1468     1.0  0.43322  0.97549  0.22172  1.0000
  H   H1469     1.0  0.49189  0.98629  0.14373  1.0000
  C   C1811     1.0  0.49449  0.77300  0.11047  1.0000
  C   C1812     1.0  0.49883  0.87764  0.17673  1.0000
  C   C1813     1.0  0.49862  0.86880  0.06750  1.0000
  S   S247      1.0  0.11210  0.84383  0.41300  1.0000
  C   C1814     1.0  0.29373  0.92829  0.45630  1.0000
  C   C1815     1.0  0.06967  0.77526  0.48275  1.0000
  S   S248      1.0  0.42482  0.92766  0.25335  1.0000
  H   H1470     1.0  0.05712  0.69835  0.37665  1.0000
  S   S249      1.0  0.12119  0.96718  0.46017  1.0000
  C   C1816     1.0  0.36308  0.84141  0.41685  1.0000
  C   C1817     1.0  0.17594  0.96291  0.47983  1.0000
  C   C1818     1.0  0.08405  0.68282  0.41672  1.0000
  H   H1471     1.0  0.00463  0.66970  0.43335  1.0000
  Fe  Fe125     1.0  0.09163  0.80267  0.40941  1.0000
  S   S250      1.0  0.09900  0.80594  0.42832  1.0000
  S   S251      1.0  0.10644  0.78343  0.39934  1.0000
  Fe  Fe126     1.0  0.06600  0.82986  0.41061  1.0000
  S   S252      1.0  0.08971  0.82644  0.39772  1.0000
  S   S253      1.0  0.06743  0.80574  0.42065  1.0000
  S   S254      1.0  0.16353  0.88114  0.44307  1.0000
  H   H1472     1.0  0.01758  0.67303  0.48457  1.0000
  H   H1473     1.0  0.09579  0.72790  0.38898  1.0000
  S   S255      1.0  0.19587  0.84627  0.43682  1.0000
  H   H1474     1.0  0.02071  0.86092  0.38965  1.0000
  Fe  Fe127     1.0  0.35741  0.94843  0.43417  1.0000
  S   S256      1.0  0.37223  0.93783  0.41557  1.0000
  S   S257      1.0  0.35669  0.93585  0.45764  1.0000
  Fe  Fe128     1.0  0.34704  0.97736  0.41397  1.0000
  S   S258      1.0  0.36058  0.96922  0.39377  1.0000
  H   H1475     1.0  0.08659  0.68753  0.43630  1.0000
  Fe  Fe129     1.0  0.35276  0.94823  0.40459  1.0000
  S   S259      1.0  0.34850  0.93746  0.38861  1.0000
  Fe  Fe130     1.0  0.37890  0.95953  0.40628  1.0000
  S   S260      1.0  0.40290  0.96119  0.39674  1.0000
  S   S261      1.0  0.33730  0.95726  0.42388  1.0000
  S   S262      1.0  0.36586  0.96922  0.42593  1.0000
  H   H1476     1.0  0.38761  0.89070  0.39261  1.0000
  C   C1819     1.0  0.10182  0.70775  0.36630  1.0000
  S   S263      1.0  0.46056  0.95755  0.30877  1.0000
  Fe  Fe131     1.0  0.27418  0.86354  0.42295  1.0000
  S   S264      1.0  0.26797  0.86486  0.44678  1.0000
  S   S265      1.0  0.26294  0.85261  0.41258  1.0000
  Fe  Fe132     1.0  0.30093  0.87759  0.41656  1.0000
  S   S266      1.0  0.29666  0.88038  0.43969  1.0000
  S   S267      1.0  0.32173  0.88162  0.39984  1.0000
  Fe  Fe133     1.0  0.29259  0.85754  0.44608  1.0000
  H   H1477     1.0  0.20759  0.92952  0.46193  1.0000
  Fe  Fe134     1.0  0.27260  0.88746  0.43795  1.0000
  S   S268      1.0  0.25693  0.90682  0.44646  1.0000
  S   S269      1.0  0.29850  0.85413  0.42301  1.0000
  S   S270      1.0  0.27715  0.88679  0.41401  1.0000
  S   S271      1.0  0.16149  0.85092  0.46908  1.0000
  C   C1820     1.0  0.49089  0.92661  0.28137  1.0000
  H   H1478     1.0  0.49306  0.95047  0.24449  1.0000
  H   H1479     1.0  0.36785  0.87006  0.36196  1.0000
  C   C1821     1.0  0.03485  0.80700  0.34336  1.0000
  H   H1480     1.0  0.39053  0.86883  0.43377  1.0000
  H   H1481     1.0  0.13218  0.70348  0.41030  1.0000
  H   H1482     1.0  0.28899  0.81162  0.47759  1.0000
  C   C1822     1.0  0.01840  0.67003  0.39160  1.0000
  C   C1823     1.0  0.00247  0.78185  0.41815  1.0000
  H   H1483     1.0  0.00310  0.74926  0.33042  1.0000
  H   H1484     1.0  0.24853  0.83938  0.45093  1.0000
  C   C1824     1.0  0.30585  0.98445  0.43740  1.0000
  S   S272      1.0  0.28612  0.96135  0.41710  1.0000
  H   H1485     1.0  0.00037  0.68890  0.38838  1.0000
  C   C1825     1.0  0.01321  0.78721  0.47980  1.0000
  C   C1826     1.0  0.49659  0.83957  0.28049  1.0000
  Fe  Fe135     1.0  0.04208  0.74769  0.36680  1.0000
  S   S273      1.0  0.06199  0.72861  0.36771  1.0000
  S   S274      1.0  0.02472  0.74998  0.38760  1.0000
  Fe  Fe136     1.0  0.05247  0.75905  0.33419  1.0000
  S   S275      1.0  0.07333  0.74106  0.33284  1.0000
  S   S276      1.0  0.04916  0.77484  0.31292  1.0000
  Fe  Fe137     1.0  0.05814  0.72616  0.34672  1.0000
  S   S277      1.0  0.05914  0.70419  0.34182  1.0000
  Fe  Fe138     1.0  0.07471  0.74574  0.35404  1.0000
  S   S278      1.0  0.09642  0.74679  0.35846  1.0000
  S   S279      1.0  0.03717  0.74401  0.34678  1.0000
  S   S280      1.0  0.05502  0.76498  0.35420  1.0000
  S   S281      1.0  0.47676  0.98372  0.28671  1.0000
  H   H1486     1.0  0.10278  0.65864  0.37310  1.0000
  H   H1487     1.0  0.48389  0.92875  0.30406  1.0000
  C   C1827     1.0  0.03067  0.77931  0.31072  1.0000
  C   C1828     1.0  0.33820  0.97954  0.35273  1.0000
  H   H1488     1.0  0.35495  0.96408  0.36386  1.0000
  H   H1489     1.0  0.26750  0.98208  0.46070  1.0000
  H   H1490     1.0  0.10509  0.71586  0.34278  1.0000
  H   H1491     1.0  0.03701  0.78712  0.28726  1.0000
  C   C1829     1.0  0.39441  0.92860  0.28814  1.0000
  C   C1830     1.0  0.01381  0.69176  0.35523  1.0000
  C   C1831     1.0  0.01568  0.70380  0.35944  1.0000
  C   C1832     1.0  0.02963  0.70734  0.35568  1.0000
  C   C1833     1.0  0.04184  0.69907  0.34738  1.0000
  C   C1834     1.0  0.04011  0.68681  0.34331  1.0000
  C   C1835     1.0  0.02935  0.80923  0.38623  1.0000
  H   H1492     1.0  0.29322  0.98613  0.36892  1.0000
  H   H1493     1.0  0.03086  0.71652  0.35922  1.0000
  H   H1494     1.0  0.40475  0.96452  0.42767  1.0000
  S   S282      1.0  0.05340  0.70255  0.47932  1.0000
  C   C1836     1.0  0.26500  0.92201  0.43844  1.0000
  C   C1837     1.0  0.25773  0.93575  0.44202  1.0000
  C   C1838     1.0  0.26414  0.94800  0.43542  1.0000
  C   C1839     1.0  0.27788  0.94636  0.42543  1.0000
  C   C1840     1.0  0.28519  0.93259  0.42195  1.0000
  C   C1841     1.0  0.27862  0.92047  0.42825  1.0000
  H   H1495     1.0  0.24700  0.93693  0.44959  1.0000
  H   H1496     1.0  0.25851  0.95866  0.43810  1.0000
  H   H1497     1.0  0.29587  0.93133  0.41430  1.0000
  H   H1498     1.0  0.28415  0.90997  0.42522  1.0000
  C   C1842     1.0  0.45532  0.95119  0.26308  1.0000
  C   C1843     1.0  0.44679  0.94288  0.27483  1.0000
  C   C1844     1.0  0.43704  0.93589  0.27198  1.0000
  C   C1845     1.0  0.43592  0.93722  0.25741  1.0000
  H   H1499     1.0  0.33145  0.98870  0.38963  1.0000
  H   H1500     1.0  0.39267  0.96571  0.34855  1.0000
  H   H1501     1.0  0.44779  0.94176  0.28601  1.0000
  H   H1502     1.0  0.43061  0.92931  0.28100  1.0000
  C   C1846     1.0  0.00294  0.76021  0.43806  1.0000
  C   C1847     1.0  0.11454  0.85154  0.42664  1.0000
  C   C1848     1.0  0.40743  0.96438  0.37731  1.0000
  C   C1849     1.0  0.42134  0.96728  0.36937  1.0000
  C   C1850     1.0  0.42495  0.96954  0.35384  1.0000
  C   C1851     1.0  0.41458  0.96896  0.34630  1.0000
  C   C1852     1.0  0.40065  0.96636  0.35425  1.0000
  C   C1853     1.0  0.39720  0.96387  0.36966  1.0000
  H   H1503     1.0  0.42937  0.96764  0.37522  1.0000
  H   H1504     1.0  0.43577  0.97152  0.34776  1.0000
  H   H1505     1.0  0.38681  0.96098  0.37559  1.0000
  C   C1854     1.0  0.34151  0.92136  0.39361  1.0000
  C   C1855     1.0  0.34668  0.91182  0.38378  1.0000
  C   C1856     1.0  0.34050  0.89970  0.38608  1.0000
  C   C1857     1.0  0.32899  0.89694  0.39821  1.0000
  C   C1858     1.0  0.32380  0.90628  0.40836  1.0000
  C   C1859     1.0  0.33016  0.91850  0.40610  1.0000
  H   H1506     1.0  0.35536  0.91390  0.37413  1.0000
  H   H1507     1.0  0.34441  0.89262  0.37818  1.0000
  H   H1508     1.0  0.31483  0.90423  0.41776  1.0000
  H   H1509     1.0  0.32588  0.92601  0.41364  1.0000
  C   C1860     1.0  0.09168  0.71452  0.47947  1.0000
  H   H1510     1.0  0.03922  0.88937  0.38220  1.0000
  P   P58       1.0  0.01078  0.81270  0.36684  1.0000
  C   C1861     1.0  0.11904  0.82099  0.31096  1.0000
  C   C1862     1.0  0.09978  0.66004  0.40997  1.0000
  S   S283      1.0  0.45401  0.98981  0.31806  1.0000
  H   H1511     1.0  0.03717  0.82045  0.47309  1.0000
  Fe  Fe139     1.0  0.46163  0.97033  0.28553  1.0000
  P   P59       1.0  0.41293  0.99065  0.24528  1.0000
  H   H1512     1.0  0.04515  0.80643  0.39957  1.0000
  C   C1863     1.0  0.04075  0.80110  0.39371  1.0000
  H   H1513     1.0  0.02484  0.72311  0.32474  1.0000
  C   C1864     1.0  0.35177  0.83356  0.42257  1.0000
  C   C1865     1.0  0.20643  0.83405  0.48629  1.0000
  C   C1866     1.0  0.08842  0.67275  0.40733  1.0000
  C   C1867     1.0  0.01318  0.79008  0.29453  1.0000
  H   H1514     1.0  0.15322  0.82930  0.39961  1.0000
  C   C1868     1.0  0.16974  0.85440  0.41301  1.0000
  C   C1869     1.0  0.21433  0.84866  0.43053  1.0000
  C   C1870     1.0  0.22461  0.83899  0.42207  1.0000
  C   C1871     1.0  0.23940  0.84040  0.41672  1.0000
  C   C1872     1.0  0.24421  0.85134  0.41998  1.0000
  C   C1873     1.0  0.23400  0.86107  0.42853  1.0000
  C   C1874     1.0  0.21897  0.85985  0.43362  1.0000
  H   H1515     1.0  0.22107  0.83043  0.41951  1.0000
  H   H1516     1.0  0.24720  0.83293  0.41005  1.0000
  H   H1517     1.0  0.23759  0.86966  0.43097  1.0000
  H   H1518     1.0  0.21097  0.86761  0.43980  1.0000
  C   C1875     1.0  0.12954  0.86374  0.43423  1.0000
  C   C1876     1.0  0.12682  0.85793  0.42358  1.0000
  H   H1519     1.0  0.13920  0.86841  0.43179  1.0000
  H   H1520     1.0  0.13424  0.85845  0.41288  1.0000
  C   C1877     1.0  0.10224  0.77335  0.38875  1.0000
  C   C1878     1.0  0.11373  0.76210  0.38352  1.0000
  C   C1879     1.0  0.11162  0.75423  0.37431  1.0000
  C   C1880     1.0  0.09781  0.75708  0.37053  1.0000
  C   C1881     1.0  0.08600  0.76806  0.37610  1.0000
  C   C1882     1.0  0.08828  0.77630  0.38511  1.0000
  H   H1521     1.0  0.12449  0.75964  0.38638  1.0000
  H   H1522     1.0  0.12078  0.74579  0.37014  1.0000
  H   H1523     1.0  0.07529  0.77040  0.37318  1.0000
  H   H1524     1.0  0.07941  0.78503  0.38908  1.0000
  H   H1525     1.0  0.26041  0.90932  0.47675  1.0000
  H   H1526     1.0  0.02485  0.82077  0.38668  1.0000
  C   C1883     1.0  0.13612  0.95160  0.46012  1.0000
  C   C1884     1.0  0.15032  0.95241  0.46068  1.0000
  C   C1885     1.0  0.08512  0.79864  0.30660  1.0000
  S   S284      1.0  0.49480  0.96340  0.32008  1.0000
  C   C1886     1.0  0.14563  0.92576  0.45844  1.0000
  C   C1887     1.0  0.13376  0.93823  0.45918  1.0000
  H   H1527     1.0  0.15217  0.96274  0.46132  1.0000
  H   H1528     1.0  0.46681  0.91839  0.25544  1.0000
  H   H1529     1.0  0.12275  0.93757  0.45882  1.0000
  Fe  Fe140     1.0  0.09508  0.83004  0.41760  1.0000
  H   H1530     1.0  0.10064  0.77767  0.45714  1.0000
  H   H1531     1.0  0.09616  0.69842  0.38940  1.0000
  H   H1532     1.0  0.48131  0.83182  0.27319  1.0000
  H   H1533     1.0  0.00871  0.67480  0.29996  1.0000
  C   C1888     1.0  0.04469  0.71851  0.42555  1.0000
  C   C1889     1.0  0.02914  0.72287  0.42720  1.0000
  C   C1890     1.0  0.02291  0.73257  0.41552  1.0000
  C   C1891     1.0  0.03223  0.73834  0.40253  1.0000
  C   C1892     1.0  0.04766  0.73478  0.40146  1.0000
  C   C1893     1.0  0.05392  0.72450  0.41271  1.0000
  H   H1534     1.0  0.01093  0.73549  0.41649  1.0000
  H   H1535     1.0  0.05481  0.74011  0.39205  1.0000
  H   H1536     1.0  0.06590  0.72163  0.41168  1.0000
  C   C1894     1.0  0.01864  0.85095  0.39754  1.0000
  C   C1895     1.0  0.05705  0.83322  0.36566  1.0000
  C   C1896     1.0  0.37440  0.96722  0.32385  1.0000
  C   C1897     1.0  0.00448  0.84775  0.40099  1.0000
  H   H1537     1.0  0.38661  0.98186  0.26518  1.0000
  C   C1898     1.0  0.19764  0.79271  0.45173  1.0000
  C   C1899     1.0  0.12920  0.81145  0.44922  1.0000
  C   C1900     1.0  0.03773  0.68794  0.41782  1.0000
  C   C1901     1.0  0.33789  0.84013  0.43026  1.0000
  C   C1902     1.0  0.11983  0.77060  0.44056  1.0000
  Fe  Fe141     1.0  0.16814  0.89018  0.46017  1.0000
  S   S285      1.0  0.46765  0.96028  0.26567  1.0000
  C   C1903     1.0  0.14108  0.81860  0.44551  1.0000
  H   H1538     1.0  0.37670  0.94507  0.29721  1.0000
  P   P60       1.0  0.07922  0.67619  0.39224  1.0000
  H   H1539     1.0  0.34957  0.95304  0.31552  1.0000
  C   C1904     1.0  0.21285  0.81928  0.46326  1.0000
  H   H1540     1.0  0.47993  0.89472  0.26879  1.0000
  C   C1905     1.0  0.12276  0.78604  0.34370  1.0000
  C   C1906     1.0  0.24429  0.95240  0.47100  1.0000
  C   C1907     1.0  0.15790  0.83604  0.40358  1.0000
  C   C1908     1.0  0.27137  0.82749  0.44903  1.0000
  C   C1909     1.0  0.26815  0.95846  0.46780  1.0000
  H   H1541     1.0  0.16961  0.86835  0.39140  1.0000
  C   C1910     1.0  0.03197  0.84602  0.44182  1.0000
  H   H1542     1.0  0.01958  0.76635  0.45438  1.0000
  H   H1543     1.0  0.48252  0.92070  0.28216  1.0000
  C   C1911     1.0  0.25396  0.82984  0.47245  1.0000
  C   C1912     1.0  0.00713  0.68574  0.30197  1.0000
  C   C1913     1.0  0.05977  0.68462  0.39813  1.0000
  H   H1544     1.0  0.12883  0.80391  0.44293  1.0000
  C   C1914     1.0  0.28895  0.94744  0.48841  1.0000
  C   C1915     1.0  0.03020  0.69905  0.40799  1.0000
  H   H1545     1.0  0.30012  0.96423  0.43842  1.0000
  C   C1916     1.0  0.01720  0.84012  0.36229  1.0000
  C   C1917     1.0  0.08081  0.65895  0.38727  1.0000
  C   C1918     1.0  0.28021  0.89202  0.47409  1.0000
  H   H1546     1.0  0.22587  0.97081  0.46666  1.0000
  H   H1547     1.0  0.17330  0.94069  0.45985  1.0000
  H   H1548     1.0  0.01249  0.75121  0.28463  1.0000
  H   H1549     1.0  0.26398  0.93639  0.47533  1.0000
  H   H1550     1.0  0.38648  0.88888  0.44675  1.0000
  C   C1919     1.0  0.00586  0.83235  0.36606  1.0000
  H   H1551     1.0  0.11137  0.86023  0.31872  1.0000
  C   C1920     1.0  0.11405  0.79965  0.34696  1.0000
  H   H1552     1.0  0.08030  0.68195  0.36050  1.0000
  H   H1553     1.0  0.13229  0.81673  0.41676  1.0000
  C   C1921     1.0  0.01540  0.80059  0.47010  1.0000
  H   H1554     1.0  0.03747  0.89555  0.43595  1.0000
  C   C1922     1.0  0.08348  0.78427  0.31351  1.0000
  Fe  Fe142     1.0  0.47406  0.97247  0.31050  1.0000
  C   C1923     1.0  0.40990  0.98031  0.26406  1.0000
  P   P61       1.0  0.01853  0.87601  0.43587  1.0000
  C   C1924     1.0  0.00191  0.68189  0.41134  1.0000
  H   H1555     1.0  0.02529  0.78163  0.37280  1.0000
  C   C1925     1.0  0.16473  0.79041  0.41715  1.0000
  H   H1556     1.0  0.35706  0.84963  0.45347  1.0000
  C   C1926     1.0  0.38495  0.93501  0.29976  1.0000
  C   C1927     1.0  0.03220  0.80999  0.31836  1.0000
  H   H1557     1.0  0.00694  0.78716  0.40700  1.0000
  C   C1928     1.0  0.12342  0.84577  0.30366  1.0000
  C   C1929     1.0  0.04076  0.73529  0.31037  1.0000
  C   C1930     1.0  0.02415  0.85844  0.44792  1.0000
  H   H1558     1.0  0.04211  0.80420  0.35105  1.0000
  C   C1931     1.0  0.36057  0.85594  0.41877  1.0000
  H   H1559     1.0  0.04289  0.82290  0.44616  1.0000
  H   H1560     1.0  0.16900  0.83857  0.43341  1.0000
  H   H1561     1.0  0.32449  0.85962  0.43799  1.0000
  C   C1932     1.0  0.08310  0.81923  0.34828  1.0000
  H   H1562     1.0  0.04957  0.68030  0.33695  1.0000
  C   C1933     1.0  0.31507  0.93557  0.45859  1.0000
  C   C1934     1.0  0.32463  0.92387  0.45229  1.0000
  C   C1935     1.0  0.01656  0.73711  0.30553  1.0000
  Fe  Fe143     1.0  0.44074  0.97591  0.31410  1.0000
  C   C1936     1.0  0.19942  0.80172  0.43759  1.0000
  H   H1563     1.0  0.03236  0.68529  0.42935  1.0000
  H   H1564     1.0  0.07537  0.69279  0.41489  1.0000
  H   H1565     1.0  0.31915  0.90718  0.48128  1.0000
  H   H1566     1.0  0.00818  0.70233  0.32847  1.0000
  C   C1937     1.0  0.02076  0.65933  0.41685  1.0000
  C   C1938     1.0  0.30050  0.97177  0.44477  1.0000
  C   C1939     1.0  0.05242  0.68068  0.41291  1.0000
  C   C1940     1.0  0.01549  0.89086  0.44527  1.0000
  H   H1567     1.0  0.21522  0.81412  0.45395  1.0000
  H   H1568     1.0  0.03625  0.75916  0.27785  1.0000
  C   C1941     1.0  0.16126  0.84903  0.39401  1.0000
  H   H1569     1.0  0.21569  0.95189  0.46143  1.0000
  H   H1570     1.0  0.36091  0.87181  0.45903  1.0000
  H   H1571     1.0  0.31990  0.94293  0.46160  1.0000
  H   H1572     1.0  0.33659  0.92236  0.45056  1.0000
  H   H1573     1.0  0.32611  0.90516  0.44335  1.0000
  C   C1942     1.0  0.22118  0.88024  0.46247  1.0000
  H   H1574     1.0  0.02258  0.84200  0.48430  1.0000
  H   H1575     1.0  0.03718  0.80901  0.30703  1.0000
  C   C1943     1.0  0.44423  0.94582  0.24587  1.0000
  H   H1576     1.0  0.00152  0.69722  0.28100  1.0000
  C   C1944     1.0  0.03335  0.87788  0.41964  1.0000
  C   C1945     1.0  0.02511  0.84316  0.47243  1.0000
  C   C1946     1.0  0.05995  0.75439  0.48314  1.0000
  H   H1577     1.0  0.10853  0.82531  0.47936  1.0000
  C   C1947     1.0  0.02717  0.73101  0.31445  1.0000
  H   H1578     1.0  0.02478  0.67365  0.34420  1.0000
  H   H1579     1.0  0.36664  0.91154  0.44246  1.0000
  C   C1948     1.0  0.41848  0.96770  0.28671  1.0000
  H   H1580     1.0  0.17444  0.86142  0.41669  1.0000
  H   H1581     1.0  0.13682  0.76182  0.42328  1.0000
  Fe  Fe144     1.0  0.26944  0.98284  0.41371  1.0000
  C   C1949     1.0  0.34892  0.85512  0.46170  1.0000
  H   H1582     1.0  0.02876  0.83421  0.36068  1.0000
  H   H1583     1.0  0.02245  0.86142  0.35796  1.0000
  H   H1584     1.0  0.05477  0.78350  0.42295  1.0000
  H   H1585     1.0  0.10745  0.71535  0.36778  1.0000
  C   C1950     1.0  0.38176  0.87859  0.43175  1.0000
  P   P62       1.0  0.28761  0.95303  0.46923  1.0000
  P   P63       1.0  0.15681  0.81498  0.43034  1.0000
  H   H1586     1.0  0.00967  0.81658  0.31506  1.0000
  H   H1587     1.0  0.12974  0.83740  0.47347  1.0000
  C   C1951     1.0  0.01025  0.81496  0.33762  1.0000
  C   C1952     1.0  0.37085  0.86834  0.38377  1.0000
  H   H1588     1.0  0.12278  0.74519  0.42088  1.0000
  C   C1953     1.0  0.36833  0.90274  0.43675  1.0000
  C   C1954     1.0  0.01092  0.82637  0.27778  1.0000
  H   H1589     1.0  0.38169  0.96898  0.29125  1.0000
  H   H1590     1.0  0.07950  0.77804  0.30816  1.0000
  C   C1955     1.0  0.49077  0.98756  0.23990  1.0000
  C   C1956     1.0  0.23922  0.87956  0.47617  1.0000
  H   H1591     1.0  0.40720  0.82291  0.43919  1.0000
  C   C1957     1.0  0.40135  0.93493  0.33783  1.0000
  C   C1958     1.0  0.39287  0.85235  0.41408  1.0000
  H   H1592     1.0  0.05336  0.78260  0.45356  1.0000
  C   C1959     1.0  0.38634  0.92849  0.31439  1.0000
  H   H1593     1.0  0.39019  0.90122  0.36595  1.0000
  C   C1960     1.0  0.12182  0.71177  0.41009  1.0000
  C   C1961     1.0  0.38330  0.88603  0.38605  1.0000
  C   C1962     1.0  0.00398  0.78194  0.32073  1.0000
  H   H1594     1.0  0.35370  0.82240  0.42102  1.0000
  H   H1595     1.0  0.03584  0.76961  0.42638  1.0000
  C   C1963     1.0  0.32558  0.85686  0.47973  1.0000
  Fe  Fe145     1.0  0.01292  0.72556  0.48237  1.0000
  H   H1596     1.0  0.10673  0.66502  0.44094  1.0000
  C   C1964     1.0  0.30843  0.95117  0.38510  1.0000
  C   C1965     1.0  0.30637  0.96642  0.38008  1.0000
  C   C1966     1.0  0.29526  0.97416  0.37219  1.0000
  C   C1967     1.0  0.28601  0.96661  0.36959  1.0000
  C   C1968     1.0  0.28825  0.95113  0.37434  1.0000
  C   C1969     1.0  0.29947  0.94351  0.38227  1.0000
  P   P64       1.0  0.27552  0.94135  0.37239  1.0000
  C   C1970     1.0  0.26245  0.93853  0.38987  1.0000
  C   C1971     1.0  0.26511  0.95201  0.35836  1.0000
  C   C1972     1.0  0.24998  0.95198  0.36045  1.0000
  C   C1973     1.0  0.24196  0.96005  0.34953  1.0000
  C   C1974     1.0  0.24897  0.96817  0.33644  1.0000
  C   C1975     1.0  0.26406  0.96810  0.33419  1.0000
  C   C1976     1.0  0.27214  0.95998  0.34505  1.0000
  C   C1977     1.0  0.25710  0.92548  0.39524  1.0000
  C   C1978     1.0  0.24706  0.92348  0.40884  1.0000
  C   C1979     1.0  0.24175  0.93472  0.41680  1.0000
  C   C1980     1.0  0.24664  0.94791  0.41130  1.0000
  C   C1981     1.0  0.25705  0.94976  0.39797  1.0000
  C   C1982     1.0  0.28597  0.92390  0.36738  1.0000
  C   C1983     1.0  0.29064  0.91163  0.37823  1.0000
  C   C1984     1.0  0.29757  0.89784  0.37458  1.0000
  C   C1985     1.0  0.30041  0.89625  0.36003  1.0000
  C   C1986     1.0  0.29627  0.90848  0.34906  1.0000
  C   C1987     1.0  0.28903  0.92223  0.35271  1.0000
  H   H1597     1.0  0.31644  0.94546  0.39195  1.0000
  H   H1598     1.0  0.31292  0.97224  0.38304  1.0000
  C   C1988     1.0  0.45416  0.95239  0.24869  1.0000
  H   H1599     1.0  0.27675  0.97302  0.36450  1.0000
  H   H1600     1.0  0.30100  0.93176  0.38684  1.0000
  H   H1601     1.0  0.24431  0.94576  0.37050  1.0000
  H   H1602     1.0  0.23027  0.96004  0.35128  1.0000
  H   H1603     1.0  0.24271  0.97448  0.32803  1.0000
  H   H1604     1.0  0.26951  0.97436  0.32401  1.0000
  H   H1605     1.0  0.28387  0.95991  0.34308  1.0000
  H   H1606     1.0  0.26075  0.91674  0.38913  1.0000
  H   H1607     1.0  0.24356  0.91311  0.41341  1.0000
  H   H1608     1.0  0.23428  0.93298  0.42750  1.0000
  H   H1609     1.0  0.24263  0.95658  0.41756  1.0000
  H   H1610     1.0  0.26098  0.95991  0.39414  1.0000
  H   H1611     1.0  0.28858  0.91254  0.38963  1.0000
  H   H1612     1.0  0.30056  0.88828  0.38310  1.0000
  H   H1613     1.0  0.30574  0.88550  0.35733  1.0000
  H   H1614     1.0  0.29844  0.90723  0.33777  1.0000
  H   H1615     1.0  0.28570  0.93141  0.34404  1.0000
  C   C1989     1.0  0.22111  0.91029  0.39848  1.0000
  C   C1990     1.0  0.21384  0.89933  0.40765  1.0000
  C   C1991     1.0  0.20060  0.90322  0.41778  1.0000
  C   C1992     1.0  0.19468  0.91803  0.41880  1.0000
  C   C1993     1.0  0.20192  0.92914  0.40974  1.0000
  C   C1994     1.0  0.21524  0.92513  0.39956  1.0000
  P   P65       1.0  0.19523  0.94796  0.41254  1.0000
  C   C1995     1.0  0.17510  0.95329  0.41732  1.0000
  C   C1996     1.0  0.20218  0.94916  0.42781  1.0000
  C   C1997     1.0  0.20666  0.96188  0.42770  1.0000
  C   C1998     1.0  0.21165  0.96282  0.43970  1.0000
  H   H1616     1.0  0.30953  0.98658  0.42548  1.0000
  H   H1617     1.0  0.00621  0.71055  0.36549  1.0000
  C   C1999     1.0  0.20250  0.93754  0.44032  1.0000
  C   C2000     1.0  0.16821  0.96542  0.42413  1.0000
  C   C2001     1.0  0.00297  0.69837  0.29137  1.0000
  H   H1618     1.0  0.05323  0.80263  0.32515  1.0000
  C   C2002     1.0  0.15064  0.95099  0.41661  1.0000
  C   C2003     1.0  0.16621  0.94631  0.41328  1.0000
  C   C2004     1.0  0.20113  0.96086  0.39577  1.0000
  C   C2005     1.0  0.19112  0.96905  0.38657  1.0000
  C   C2006     1.0  0.18901  0.98275  0.46904  1.0000
  H   H1619     1.0  0.47664  0.85428  0.25344  1.0000
  C   C2007     1.0  0.21988  0.97400  0.37977  1.0000
  C   C2008     1.0  0.21563  0.96322  0.39203  1.0000
  H   H1620     1.0  0.23148  0.90721  0.39076  1.0000
  H   H1621     1.0  0.21854  0.88780  0.40703  1.0000
  H   H1622     1.0  0.19500  0.89474  0.42505  1.0000
  H   H1623     1.0  0.18455  0.92079  0.42688  1.0000
  H   H1624     1.0  0.22128  0.93334  0.39266  1.0000
  H   H1625     1.0  0.20626  0.97115  0.41842  1.0000
  H   H1626     1.0  0.21508  0.97270  0.43946  1.0000
  H   H1627     1.0  0.32854  0.92543  0.48755  1.0000
  C   C2009     1.0  0.40426  0.96537  0.29365  1.0000
  H   H1628     1.0  0.19877  0.92775  0.44100  1.0000
  H   H1629     1.0  0.17480  0.97115  0.42715  1.0000
  H   H1630     1.0  0.02532  0.82733  0.25619  1.0000
  C   C2010     1.0  0.29948  0.93788  0.46073  1.0000
  C   C2011     1.0  0.01837  0.77593  0.45875  1.0000
  H   H1631     1.0  0.17120  0.93728  0.40757  1.0000
  H   H1632     1.0  0.17987  0.96745  0.38904  1.0000
  H   H1633     1.0  0.01237  0.67747  0.32353  1.0000
  H   H1634     1.0  0.00588  0.70953  0.39078  1.0000
  H   H1635     1.0  0.23084  0.97630  0.37753  1.0000
  H   H1636     1.0  0.22345  0.95712  0.39894  1.0000
  C   C2012     1.0  0.05951  0.83748  0.35029  1.0000
  H   H1637     1.0  0.05144  0.84628  0.34511  1.0000
  H   H1638     1.0  0.04712  0.83878  0.37242  1.0000
  C   C2013     1.0  0.41937  0.84289  0.40515  1.0000
  C   C2014     1.0  0.40598  0.85307  0.40314  1.0000
  C   C2015     1.0  0.36179  0.89305  0.41928  1.0000
  C   C2016     1.0  0.35953  0.90433  0.42675  1.0000
  H   H1639     1.0  0.42944  0.84345  0.39664  1.0000
  H   H1640     1.0  0.40595  0.86143  0.39305  1.0000
  H   H1641     1.0  0.35499  0.89447  0.41147  1.0000
  H   H1642     1.0  0.35109  0.91444  0.42460  1.0000
  H   H1643     1.0  0.21680  0.85931  0.46351  1.0000
  C   C2017     1.0  0.02403  0.80241  0.37821  1.0000
  C   C2018     1.0  0.02734  0.82850  0.41454  1.0000
  C   C2019     1.0  0.22431  0.82315  0.46674  1.0000
  H   H1644     1.0  0.14552  0.77699  0.36803  1.0000
  C   C2020     1.0  0.39345  0.84148  0.42715  1.0000
  H   H1645     1.0  0.17701  0.97551  0.45745  1.0000
  C   C2021     1.0  0.00643  0.68115  0.39636  1.0000
  H   H1646     1.0  0.02168  0.66959  0.38001  1.0000
  C   C2022     1.0  0.09510  0.73326  0.40943  1.0000
  C   C2023     1.0  0.10204  0.73013  0.42139  1.0000
  C   C2024     1.0  0.11546  0.71935  0.42162  1.0000
  P   P66       1.0  0.09335  0.73887  0.43700  1.0000
  C   C2025     1.0  0.07472  0.74892  0.43502  1.0000
  C   C2026     1.0  0.09204  0.72414  0.45330  1.0000
  C   C2027     1.0  0.09056  0.71039  0.45224  1.0000
  C   C2028     1.0  0.08997  0.69875  0.46460  1.0000
  S   S286      1.0  0.44091  0.98778  0.29050  1.0000
  C   C2029     1.0  0.10177  0.66725  0.43148  1.0000
  C   C2030     1.0  0.09249  0.72612  0.46708  1.0000
  C   C2031     1.0  0.06359  0.74118  0.43743  1.0000
  C   C2032     1.0  0.04964  0.74867  0.43423  1.0000
  C   C2033     1.0  0.04655  0.76389  0.42903  1.0000
  C   C2034     1.0  0.10382  0.75127  0.43827  1.0000
  C   C2035     1.0  0.11798  0.75184  0.42915  1.0000
  C   C2036     1.0  0.02673  0.89841  0.44319  1.0000
  H   H1647     1.0  0.12592  0.77819  0.44129  1.0000
  C   C2037     1.0  0.10564  0.77029  0.44948  1.0000
  C   C2038     1.0  0.09766  0.76072  0.44829  1.0000
  H   H1648     1.0  0.08483  0.74162  0.40879  1.0000
  H   H1649     1.0  0.12090  0.71671  0.43082  1.0000
  H   H1650     1.0  0.08957  0.70875  0.44191  1.0000
  H   H1651     1.0  0.08848  0.68830  0.46375  1.0000
  H   H1652     1.0  0.18879  0.81521  0.42002  1.0000
  C   C2039     1.0  0.08791  0.68842  0.37655  1.0000
  C   C2040     1.0  0.27068  0.90355  0.48048  1.0000
  H   H1653     1.0  0.06575  0.72931  0.44139  1.0000
  H   H1654     1.0  0.04118  0.74268  0.43571  1.0000
  H   H1655     1.0  0.39579  0.98429  0.44191  1.0000
  H   H1656     1.0  0.13181  0.96642  0.42643  1.0000
  H   H1657     1.0  0.43246  0.97687  0.26681  1.0000
  C   C2041     1.0  0.48403  0.85339  0.26057  1.0000
  H   H1658     1.0  0.08661  0.76075  0.45512  1.0000
  H   H1659     1.0  0.21362  0.88644  0.45518  1.0000
  C   C2042     1.0  0.03726  0.70274  0.39318  1.0000
  Fe  Fe146     1.0  0.14595  0.87230  0.46158  1.0000
  C   C2043     1.0  0.33988  0.96186  0.46561  1.0000
  H   H1660     1.0  0.00646  0.73532  0.37895  1.0000
  C   C2044     1.0  0.38581  0.97057  0.46193  1.0000
  C   C2045     1.0  0.38283  0.95649  0.46827  1.0000
  C   C2046     1.0  0.38802  0.94535  0.46013  1.0000
  C   C2047     1.0  0.39600  0.94822  0.44556  1.0000
  C   C2048     1.0  0.39896  0.96221  0.43914  1.0000
  H   H1661     1.0  0.00578  0.84461  0.24336  1.0000
  C   C2049     1.0  0.38481  0.89203  0.37091  1.0000
  C   C2050     1.0  0.48672  0.84076  0.27163  1.0000
  C   C2051     1.0  0.37933  0.88624  0.36221  1.0000
  C   C2052     1.0  0.12862  0.79712  0.36499  1.0000
  P   P67       1.0  0.23542  0.83698  0.48239  1.0000
  C   C2053     1.0  0.11748  0.81392  0.46132  1.0000
  H   H1662     1.0  0.37611  0.95418  0.47931  1.0000
  H   H1663     1.0  0.38531  0.93464  0.46494  1.0000
  H   H1664     1.0  0.39950  0.93975  0.43908  1.0000
  H   H1665     1.0  0.32620  0.98185  0.47237  1.0000
  H   H1666     1.0  0.04874  0.73075  0.31749  1.0000
  C   C2054     1.0  0.35500  0.96110  0.31645  1.0000
  H   H1667     1.0  0.36521  0.85933  0.38851  1.0000
  C   C2055     1.0  0.35624  0.98670  0.31219  1.0000
  C   C2056     1.0  0.33427  0.92980  0.35402  1.0000
  C   C2057     1.0  0.33421  0.91611  0.35178  1.0000
  C   C2058     1.0  0.34647  0.90873  0.34267  1.0000
  C   C2059     1.0  0.35881  0.91503  0.33579  1.0000
  C   C2060     1.0  0.35898  0.92875  0.33809  1.0000
  C   C2061     1.0  0.34661  0.93607  0.34729  1.0000
  P   P68       1.0  0.37485  0.93706  0.32953  1.0000
  C   C2062     1.0  0.38613  0.93471  0.34269  1.0000
  H   H1668     1.0  0.08009  0.77052  0.42706  1.0000
  C   C2063     1.0  0.13411  0.77793  0.35124  1.0000
  C   C2064     1.0  0.40373  0.93086  0.36311  1.0000
  C   C2065     1.0  0.38852  0.93103  0.36800  1.0000
  C   C2066     1.0  0.37978  0.93296  0.35783  1.0000
  H   H1669     1.0  0.05429  0.74924  0.29439  1.0000
  C   C2067     1.0  0.01473  0.77485  0.47403  1.0000
  H   H1670     1.0  0.00500  0.69390  0.43718  1.0000
  C   C2068     1.0  0.00669  0.70129  0.31813  1.0000
  H   H1671     1.0  0.32498  0.93533  0.36141  1.0000
  H   H1672     1.0  0.32481  0.91108  0.35744  1.0000
  H   H1673     1.0  0.34642  0.89805  0.34105  1.0000
  H   H1674     1.0  0.36813  0.90914  0.32873  1.0000
  H   H1675     1.0  0.34660  0.94649  0.34953  1.0000
  H   H1676     1.0  0.41040  0.92988  0.37095  1.0000
  H   H1677     1.0  0.38339  0.93002  0.37966  1.0000
  H   H1678     1.0  0.36805  0.93324  0.36187  1.0000
  C   C2069     1.0  0.00059  0.71246  0.29419  1.0000
  C   C2070     1.0  0.00883  0.67051  0.42161  1.0000
  C   C2071     1.0  0.16644  0.84142  0.42258  1.0000
  H   H1679     1.0  0.27903  0.86168  0.47404  1.0000
  H   H1680     1.0  0.41247  0.91063  0.28197  1.0000
  H   H1681     1.0  0.12155  0.80997  0.30885  1.0000
  S   S287      1.0  0.30434  0.84019  0.46249  1.0000
  H   H1682     1.0  0.08229  0.80357  0.29591  1.0000
  H   H1683     1.0  0.23783  0.94408  0.47367  1.0000
  H   H1684     1.0  0.03153  0.71159  0.38563  1.0000
  H   H1685     1.0  0.15022  0.83331  0.45224  1.0000
  H   H1686     1.0  0.00843  0.92296  0.46543  1.0000
  H   H1687     1.0  0.48918  0.87435  0.24945  1.0000
  C   C2072     1.0  0.10614  0.83874  0.32652  1.0000
  C   C2073     1.0  0.16712  0.85823  0.39875  1.0000
  H   H1688     1.0  0.09868  0.84160  0.33655  1.0000
  C   C2074     1.0  0.26131  0.97352  0.46363  1.0000
  H   H1689     1.0  0.31031  0.95305  0.48437  1.0000
  H   H1690     1.0  0.01403  0.81033  0.47432  1.0000
  C   C2075     1.0  0.11340  0.84932  0.31648  1.0000
  C   C2076     1.0  0.02052  0.85687  0.46333  1.0000
  C   C2077     1.0  0.00209  0.71398  0.30778  1.0000
  S   S288      1.0  0.14914  0.88346  0.47791  1.0000
  Fe  Fe147     1.0  0.07461  0.81054  0.43878  1.0000
  C   C2078     1.0  0.37641  0.87405  0.39258  1.0000
  C   C2079     1.0  0.23761  0.96736  0.46697  1.0000
  C   C2080     1.0  0.05738  0.77172  0.42699  1.0000
  C   C2081     1.0  0.39698  0.91517  0.31723  1.0000
  C   C2082     1.0  0.02952  0.78721  0.37861  1.0000
  Fe  Fe148     1.0  0.04374  0.72465  0.48564  1.0000
  H   H1691     1.0  0.14050  0.76725  0.34897  1.0000
  C   C2083     1.0  0.14388  0.96296  0.42353  1.0000
  C   C2084     1.0  0.14123  0.82777  0.45456  1.0000
  C   C2085     1.0  0.42134  0.97519  0.27196  1.0000
  C   C2086     1.0  0.05747  0.77650  0.46339  1.0000
  H   H1692     1.0  0.12811  0.80089  0.40274  1.0000
  H   H1693     1.0  0.11966  0.70897  0.38939  1.0000
  C   C2087     1.0  0.18037  0.97383  0.46776  1.0000
  C   C2088     1.0  0.47861  0.91412  0.25145  1.0000
  C   C2089     1.0  0.15384  0.80312  0.42018  1.0000
  C   C2090     1.0  0.01367  0.85553  0.36045  1.0000
  C   C2091     1.0  0.22935  0.88756  0.46691  1.0000
  H   H1694     1.0  0.41467  0.89858  0.30776  1.0000
  H   H1695     1.0  0.40645  0.93694  0.32616  1.0000
  C   C2092     1.0  0.11474  0.71482  0.39833  1.0000
  H   H1696     1.0  0.02197  0.71842  0.43726  1.0000
  H   H1697     1.0  0.00090  0.79092  0.35743  1.0000
  C   C2093     1.0  0.07158  0.76429  0.42958  1.0000
  C   C2094     1.0  0.10134  0.72547  0.39808  1.0000
  C   C2095     1.0  0.28279  0.81962  0.45650  1.0000
  H   H1698     1.0  0.12089  0.78161  0.33535  1.0000
  H   H1699     1.0  0.01308  0.76438  0.48121  1.0000
  H   H1700     1.0  0.20714  0.78780  0.45692  1.0000
  H   H1701     1.0  0.21028  0.80391  0.43184  1.0000
  H   H1702     1.0  0.01435  0.86619  0.46835  1.0000
  H   H1703     1.0  0.03480  0.84698  0.42999  1.0000
  S   S289      1.0  0.12254  0.87123  0.46142  1.0000
  C   C2096     1.0  0.34051  0.87473  0.47541  1.0000
  H   H1704     1.0  0.24104  0.98953  0.46026  1.0000
  S   S290      1.0  0.01973  0.70410  0.47488  1.0000
  C   C2097     1.0  0.27994  0.81710  0.47189  1.0000
  H   H1705     1.0  0.43020  0.82412  0.41963  1.0000
  C   C2098     1.0  0.34646  0.86257  0.42621  1.0000
  H   H1706     1.0  0.01939  0.81870  0.28337  1.0000
  C   C2099     1.0  0.41981  0.83200  0.41810  1.0000
  H   H1707     1.0  0.36949  0.98251  0.36083  1.0000
  C   C2100     1.0  0.41011  0.93291  0.34801  1.0000
  H   H1708     1.0  0.37416  0.99037  0.31918  1.0000
  H   H1709     1.0  0.22821  0.89940  0.46301  1.0000
  C   C2101     1.0  0.40685  0.83132  0.42911  1.0000
  C   C2102     1.0  0.36877  0.98222  0.31847  1.0000
  C   C2103     1.0  0.09541  0.69810  0.37850  1.0000
  H   H1710     1.0  0.28196  0.92996  0.45709  1.0000
  C   C2104     1.0  0.03650  0.83237  0.45094  1.0000
  H   H1711     1.0  0.38042  0.89096  0.35052  1.0000
  S   S291      1.0  0.05281  0.70653  0.43984  1.0000
  C   C2105     1.0  0.04126  0.80636  0.32859  1.0000
  C   C2106     1.0  0.01924  0.81104  0.34802  1.0000
  H   H1712     1.0  0.14378  0.91553  0.45748  1.0000
  H   H1713     1.0  0.34249  0.88434  0.47762  1.0000
  H   H1714     1.0  0.09373  0.78109  0.34550  1.0000
  H   H1715     1.0  0.00786  0.74875  0.44235  1.0000
  H   H1716     1.0  0.42734  0.96364  0.29281  1.0000
  C   C2107     1.0  0.34833  0.94208  0.48518  1.0000
  Fe  Fe149     1.0  0.04022  0.71203  0.46166  1.0000
  H   H1717     1.0  0.39369  0.93386  0.27678  1.0000
  C   C2108     1.0  0.05990  0.87438  0.40854  1.0000
  C   C2109     1.0  0.16225  0.93999  0.45974  1.0000
  C   C2110     1.0  0.08660  0.68882  0.36227  1.0000
  H   H1718     1.0  0.42172  0.93359  0.34416  1.0000
  C   C2111     1.0  0.22290  0.86491  0.46728  1.0000
  C   C2112     1.0  0.12627  0.83160  0.30094  1.0000
  C   C2113     1.0  0.26565  0.82238  0.47984  1.0000
  C   C2114     1.0  0.29348  0.88446  0.47878  1.0000
  H   H1719     1.0  0.49438  0.88211  0.31643  1.0000
  C   C2115     1.0  0.10871  0.82458  0.32369  1.0000
  C   C2116     1.0  0.37233  0.87442  0.36864  1.0000
  H   H1720     1.0  0.39818  0.90984  0.32842  1.0000
  H   H1721     1.0  0.16924  0.95608  0.47873  1.0000
  C   C2117     1.0  0.37277  0.88002  0.42184  1.0000
  H   H1722     1.0  0.01901  0.70503  0.41196  1.0000
  H   H1723     1.0  0.33941  0.96613  0.45409  1.0000
  H   H1724     1.0  0.13420  0.82878  0.29111  1.0000
  H   H1725     1.0  0.09119  0.81785  0.30816  1.0000
  S   S292      1.0  0.07125  0.83514  0.42968  1.0000
  C   C2118     1.0  0.10453  0.85161  0.44029  1.0000
  C   C2119     1.0  0.01425  0.83123  0.26246  1.0000
  C   C2120     1.0  0.01910  0.80159  0.45487  1.0000
  C   C2121     1.0  0.03012  0.84127  0.40423  1.0000
  H   H1726     1.0  0.04517  0.76746  0.38629  1.0000
  H   H1727     1.0  0.37374  0.83615  0.41087  1.0000
  H   H1728     1.0  0.09494  0.84684  0.44273  1.0000
  S   S293      1.0  0.04791  0.84519  0.39921  1.0000
  C   C2122     1.0  0.25709  0.83276  0.45695  1.0000
  H   H1729     1.0  0.41291  0.96072  0.24465  1.0000
  H   H1730     1.0  0.01862  0.76136  0.41708  1.0000
  H   H1731     1.0  0.02074  0.81195  0.44747  1.0000
  C   C2123     1.0  0.35944  0.98590  0.35651  1.0000
  H   H1732     1.0  0.27709  0.88886  0.46562  1.0000
  C   C2124     1.0  0.20976  0.98233  0.37090  1.0000
  H   H1733     1.0  0.23545  0.82025  0.46031  1.0000
  C   C2125     1.0  0.00900  0.76724  0.42384  1.0000
  C   C2126     1.0  0.35107  0.86761  0.46481  1.0000
  C   C2127     1.0  0.02016  0.74686  0.29201  1.0000
  C   C2128     1.0  0.00918  0.68723  0.31527  1.0000
  H   H1734     1.0  0.13066  0.80129  0.37346  1.0000
  H   H1735     1.0  0.06551  0.81863  0.38428  1.0000
  C   C2129     1.0  0.04662  0.78613  0.39344  1.0000
  H   H1736     1.0  0.04932  0.75712  0.46521  1.0000
  C   C2130     1.0  0.06741  0.82182  0.37236  1.0000
  H   H1737     1.0  0.27367  0.82991  0.43707  1.0000
  C   C2131     1.0  0.40631  0.90872  0.30559  1.0000
  C   C2132     1.0  0.30332  0.91641  0.45031  1.0000
  C   C2133     1.0  0.02610  0.68309  0.34731  1.0000
  H   H1738     1.0  0.09906  0.85815  0.46123  1.0000
  C   C2134     1.0  0.00124  0.78847  0.30658  1.0000
  C   C2135     1.0  0.19133  0.90474  0.48853  1.0000
  C   C2136     1.0  0.33527  0.85460  0.43205  1.0000
  H   H1739     1.0  0.18753  0.98626  0.36738  1.0000
  H   H1740     1.0  0.03289  0.91574  0.44878  1.0000
  S   S294      1.0  0.17502  0.91145  0.45677  1.0000
  C   C2137     1.0  0.07246  0.83046  0.34161  1.0000
  H   H1741     1.0  0.07425  0.83389  0.32970  1.0000
  C   C2138     1.0  0.04078  0.77914  0.38621  1.0000
  H   H1742     1.0  0.05573  0.77984  0.39875  1.0000
  H   H1743     1.0  0.32906  0.83412  0.43475  1.0000
  C   C2139     1.0  0.05192  0.69539  0.38819  1.0000
  C   C2140     1.0  0.05502  0.76214  0.47009  1.0000
  H   H1744     1.0  0.38415  0.96406  0.32862  1.0000
  H   H1745     1.0  0.12909  0.85396  0.29593  1.0000
  C   C2141     1.0  0.11771  0.82319  0.47012  1.0000
  C   C2142     1.0  0.18715  0.80820  0.43095  1.0000
  S   S295      1.0  0.06667  0.80155  0.46307  1.0000
  H   H1746     1.0  0.08527  0.76694  0.33289  1.0000
  C   C2143     1.0  0.01330  0.82516  0.41774  1.0000
  Fe  Fe150     1.0  0.17938  0.86050  0.45187  1.0000
  H   H1747     1.0  0.14733  0.77847  0.39755  1.0000
  C   C2144     1.0  0.36762  0.95652  0.32279  1.0000
  C   C2145     1.0  0.02784  0.78564  0.29660  1.0000
  H   H1748     1.0  0.34393  0.87381  0.42764  1.0000
  C   C2146     1.0  0.05661  0.88030  0.39456  1.0000
  H   H1749     1.0  0.05814  0.67227  0.42078  1.0000
  H   H1750     1.0  0.11106  0.81595  0.35985  1.0000
  H   H1751     1.0  0.10814  0.80874  0.46381  1.0000
  C   C2147     1.0  0.21203  0.95113  0.45203  1.0000
  C   C2148     1.0  0.39388  0.97337  0.44727  1.0000
  C   C2149     1.0  0.13698  0.78343  0.36195  1.0000
  C   C2150     1.0  0.13839  0.79798  0.40669  1.0000
  C   C2151     1.0  0.14923  0.78533  0.40378  1.0000
  C   C2152     1.0  0.49164  0.93117  0.29367  1.0000
  C   C2153     1.0  0.11733  0.80529  0.35742  1.0000
  H   H1752     1.0  0.17505  0.78734  0.42099  1.0000
  C   C2154     1.0  0.33230  0.97074  0.47596  1.0000
  C   C2155     1.0  0.10055  0.70801  0.35214  1.0000
  C   C2156     1.0  0.16240  0.78154  0.40900  1.0000
  H   H1753     1.0  0.17084  0.77175  0.40671  1.0000
  P   P69       1.0  0.37555  0.86567  0.41192  1.0000
  H   H1754     1.0  0.03608  0.82105  0.41983  1.0000
  C   C2157     1.0  0.06484  0.78306  0.46975  1.0000
  C   C2158     1.0  0.08031  0.81470  0.36372  1.0000
  C   C2159     1.0  0.09165  0.78602  0.33453  1.0000
  H   H1755     1.0  0.01126  0.81506  0.42532  1.0000
  S   S296      1.0  0.03195  0.73469  0.46699  1.0000
  S   S297      1.0  0.18531  0.87016  0.46754  1.0000
  P   P70       1.0  0.09988  0.81067  0.33681  1.0000
  C   C2160     1.0  0.12966  0.82997  0.46683  1.0000
  H   H1756     1.0  0.08806  0.80577  0.36916  1.0000
  C   C2161     1.0  0.10688  0.85802  0.45073  1.0000
  C   C2162     1.0  0.02049  0.78929  0.44918  1.0000
  H   H1757     1.0  0.07144  0.87046  0.40968  1.0000
  H   H1758     1.0  0.05111  0.86841  0.43177  1.0000
  C   C2163     1.0  0.08669  0.77801  0.32747  1.0000
  C   C2164     1.0  0.11956  0.86384  0.44785  1.0000
  C   C2165     1.0  0.34777  0.94743  0.47025  1.0000
  H   H1759     1.0  0.41067  0.98062  0.46449  1.0000
  C   C2166     1.0  0.14073  0.80688  0.41474  1.0000
  C   C2167     1.0  0.24614  0.97790  0.46336  1.0000
  H   H1760     1.0  0.01104  0.79491  0.28357  1.0000
  H   H1761     1.0  0.38353  0.84089  0.43584  1.0000
  C   C2168     1.0  0.15992  0.92670  0.45851  1.0000
  C   C2169     1.0  0.09398  0.80019  0.32741  1.0000
  C   C2170     1.0  0.20744  0.93853  0.45233  1.0000
  C   C2171     1.0  0.17290  0.80593  0.43852  1.0000
  C   C2172     1.0  0.04833  0.87317  0.42103  1.0000
  H   H1762     1.0  0.06559  0.88094  0.38487  1.0000
  C   C2173     1.0  0.03323  0.83098  0.46620  1.0000
  C   C2174     1.0  0.25936  0.94799  0.47165  1.0000
  C   C2175     1.0  0.15268  0.97027  0.42711  1.0000
  H   H1763     1.0  0.15906  0.85208  0.38300  1.0000
  H   H1764     1.0  0.30054  0.87552  0.47361  1.0000
  C   C2176     1.0  0.37952  0.88994  0.43916  1.0000
  C   C2177     1.0  0.48606  0.90068  0.25889  1.0000
  C   C2178     1.0  0.09025  0.80664  0.31356  1.0000
  C   C2179     1.0  0.40507  0.91547  0.29105  1.0000
  C   C2180     1.0  0.02418  0.90992  0.45048  1.0000
  C   C2181     1.0  0.16038  0.83214  0.41803  1.0000
  H   H1765     1.0  0.02084  0.77281  0.33379  1.0000
  C   C2182     1.0  0.01875  0.77736  0.32281  1.0000
  H   H1766     1.0  0.09161  0.69901  0.33918  1.0000
  S   S298      1.0  0.41866  0.97076  0.32706  1.0000
  C   C2183     1.0  0.31875  0.91421  0.44825  1.0000
  C   C2184     1.0  0.09299  0.69852  0.35012  1.0000
  C   C2185     1.0  0.33612  0.84980  0.46910  1.0000
  P   P71       1.0  0.37805  0.98534  0.47196  1.0000
  H   H1767     1.0  0.29873  0.90907  0.44701  1.0000
  H   H1768     1.0  0.14736  0.97938  0.43269  1.0000
  C   C2186     1.0  0.49109  0.86489  0.25843  1.0000
  H   H1769     1.0  0.02311  0.79016  0.43736  1.0000
  C   C2187     1.0  0.09055  0.67996  0.42884  1.0000
  C   C2188     1.0  0.03373  0.75122  0.28802  1.0000
  H   H1770     1.0  0.33957  0.97962  0.30637  1.0000
  C   C2189     1.0  0.29546  0.96899  0.46015  1.0000
  H   H1771     1.0  0.14378  0.94528  0.41396  1.0000
  H   H1772     1.0  0.40227  0.95958  0.30507  1.0000
  C   C2190     1.0  0.01670  0.81424  0.32288  1.0000
  H   H1773     1.0  0.29400  0.81602  0.45034  1.0000
  C   C2191     1.0  0.04394  0.74558  0.29728  1.0000
  H   H1774     1.0  0.36507  0.98857  0.44639  1.0000
  H   H1775     1.0  0.09310  0.73662  0.46853  1.0000
  H   H1776     1.0  0.24876  0.85808  0.48792  1.0000
  H   H1777     1.0  0.33168  0.97149  0.35435  1.0000
  C   C2192     1.0  0.28238  0.85309  0.48315  1.0000
  C   C2193     1.0  0.39279  0.97054  0.28587  1.0000
  C   C2194     1.0  0.12597  0.76139  0.43040  1.0000
  C   C2195     1.0  0.17123  0.79669  0.45264  1.0000
  C   C2196     1.0  0.34932  0.97614  0.31121  1.0000
  H   H1778     1.0  0.16039  0.79468  0.45866  1.0000
  S   S299      1.0  0.14018  0.98994  0.47638  1.0000
  H   H1779     1.0  0.33423  0.84030  0.46653  1.0000
  C   C2197     1.0  0.09050  0.70082  0.47823  1.0000
  C   C2198     1.0  0.29551  0.97927  0.46802  1.0000
  H   H1780     1.0  0.29111  0.97773  0.47980  1.0000
  C   C2199     1.0  0.19509  0.82983  0.48299  1.0000
  C   C2200     1.0  0.18356  0.79014  0.45922  1.0000
  C   C2201     1.0  0.19544  0.97974  0.37420  1.0000
  C   C2202     1.0  0.22116  0.83081  0.47816  1.0000
  H   H1781     1.0  0.18216  0.78321  0.47021  1.0000
  H   H1782     1.0  0.49420  0.87299  0.29491  1.0000
  C   C2203     1.0  0.35128  0.97539  0.35813  1.0000
  H   H1783     1.0  0.00004  0.69253  0.46400  1.0000
  H   H1784     1.0  0.21337  0.90633  0.48848  1.0000
  C   C2204     1.0  0.24094  0.86422  0.48095  1.0000
  H   H1785     1.0  0.00409  0.85292  0.43514  1.0000
  H   H1786     1.0  0.19525  0.89509  0.48361  1.0000
  C   C2205     1.0  0.29437  0.84116  0.48049  1.0000
  C   C2206     1.0  0.19824  0.82264  0.47135  1.0000
  C   C2207     1.0  0.01041  0.91397  0.45987  1.0000
  H   H1787     1.0  0.01874  0.88731  0.40409  1.0000
  C   C2208     1.0  0.04174  0.88504  0.39306  1.0000
  C   C2209     1.0  0.03014  0.88382  0.40554  1.0000
  H   H1788     1.0  0.18931  0.82000  0.46836  1.0000
  Fe  Fe151     1.0  0.12509  0.98800  0.46315  1.0000
  C   C2210     1.0  0.39561  0.97788  0.27110  1.0000
  H   H1789     1.0  0.24571  0.88527  0.47940  1.0000
  H   H1790     1.0  0.49783  0.98970  0.29749  1.0000
  C   C2211     1.0  0.19320  0.98080  0.48235  1.0000
  C   C2212     1.0  0.23265  0.85683  0.47667  1.0000
  H   H1791     1.0  0.10551  0.88593  0.48675  1.0000
  Fe  Fe152     1.0  0.16602  0.86267  0.48401  1.0000
  C   C2213     1.0  0.00185  0.83478  0.41104  1.0000
  C   C2214     1.0  0.32770  0.86932  0.48305  1.0000
  H   H1792     1.0  0.35464  0.93100  0.48876  1.0000
  H   H1793     1.0  0.19968  0.98791  0.48340  1.0000
  C   C2215     1.0  0.02564  0.65917  0.40183  1.0000
  H   H1794     1.0  0.46083  0.95866  0.23968  1.0000
  H   H1795     1.0  0.49889  0.82966  0.28888  1.0000
  H   H1796     1.0  0.31571  0.85260  0.48538  1.0000
  C   C2216     1.0  0.00137  0.87674  0.43094  1.0000
  C   C2217     1.0  0.00172  0.89493  0.45484  1.0000
  S   S300      1.0  0.24649  0.99079  0.42669  1.0000
  H   H1797     1.0  0.21296  0.99096  0.36164  1.0000
  H   H1798     1.0  0.48679  0.97836  0.23932  1.0000
  H   H1799     1.0  0.07516  0.78031  0.48786  1.0000
  C   C2218     1.0  0.00324  0.84095  0.25526  1.0000
  C   C2219     1.0  0.99919  0.90647  0.46206  1.0000
  H   H1800     1.0  0.08946  0.69199  0.48793  1.0000
  H   H1801     1.0  0.29695  0.83545  0.54832  1.0000
  C   C2220     1.0  0.47354  0.98783  0.65660  1.0000
  Fe  Fe153     1.0  0.40859  0.95455  0.62303  1.0000
  C   C2221     1.0  0.18108  0.92981  0.50124  1.0000
  S   S301      1.0  0.38655  0.95619  0.63872  1.0000
  P   P72       1.0  0.45384  0.97518  0.68065  1.0000
  C   C2222     1.0  0.18007  0.96089  0.49326  1.0000
  S   S302      1.0  0.42160  0.93211  0.61859  1.0000
  C   C2223     1.0  0.38548  0.93097  0.67938  1.0000
  P   P73       1.0  0.35892  0.93473  0.67079  1.0000
  Fe  Fe154     1.0  0.33040  0.95536  0.55629  1.0000
  C   C2224     1.0  0.12408  0.92897  0.50590  1.0000
  S   S303      1.0  0.35171  0.95133  0.56457  1.0000
  Fe  Fe155     1.0  0.31000  0.93886  0.55045  1.0000
  S   S304      1.0  0.29652  0.95960  0.53860  1.0000
  S   S305      1.0  0.30827  0.91557  0.55179  1.0000
  Fe  Fe156     1.0  0.31861  0.96547  0.52772  1.0000
  C   C2225     1.0  0.25617  0.97655  0.50167  1.0000
  C   C2226     1.0  0.11101  0.88305  0.49595  1.0000
  H   H1802     1.0  0.20799  0.84485  0.58133  1.0000
  S   S306      1.0  0.33212  0.94403  0.53810  1.0000
  S   S307      1.0  0.30923  0.94846  0.56951  1.0000
  S   S308      1.0  0.44654  0.91492  0.68471  1.0000
  S   S309      1.0  0.44339  0.88246  0.67195  1.0000
  Fe  Fe157     1.0  0.46816  0.90912  0.69188  1.0000
  S   S310      1.0  0.48816  0.91763  0.67761  1.0000
  Fe  Fe158     1.0  0.21916  0.87614  0.53928  1.0000
  S   S311      1.0  0.23304  0.87395  0.51684  1.0000
  S   S312      1.0  0.19725  0.86935  0.54848  1.0000
  Fe  Fe159     1.0  0.24213  0.88812  0.54714  1.0000
  S   S313      1.0  0.25782  0.88636  0.52538  1.0000
  S   S314      1.0  0.24628  0.89804  0.56404  1.0000
  Fe  Fe160     1.0  0.23718  0.89593  0.51611  1.0000
  H   H1803     1.0  0.13554  0.92334  0.50597  1.0000
  Fe  Fe161     1.0  0.25200  0.86463  0.52867  1.0000
  S   S315      1.0  0.26879  0.84318  0.52748  1.0000
  S   S316      1.0  0.22170  0.89886  0.53774  1.0000
  S   S317      1.0  0.23789  0.86551  0.55121  1.0000
  C   C2227     1.0  0.28540  0.87752  0.58117  1.0000
  H   H1804     1.0  0.08836  0.92448  0.51900  1.0000
  C   C2228     1.0  0.30303  0.94362  0.50717  1.0000
  C   C2229     1.0  0.23321  0.95154  0.58517  1.0000
  C   C2230     1.0  0.47144  0.98027  0.67143  1.0000
  P   P74       1.0  0.17461  0.94645  0.50859  1.0000
  S   S318      1.0  0.16563  0.85179  0.50794  1.0000
  S   S319      1.0  0.23009  0.96480  0.53292  1.0000
  H   H1805     1.0  0.47528  0.93147  0.70280  1.0000
  H   H1806     1.0  0.18574  0.96292  0.61313  1.0000
  H   H1807     1.0  0.49051  0.85329  0.71960  1.0000
  H   H1808     1.0  0.07118  0.75516  0.49938  1.0000
  C   C2231     1.0  0.14634  0.89924  0.55056  1.0000
  H   H1809     1.0  0.23930  0.79957  0.52866  1.0000
  C   C2232     1.0  0.43547  0.95105  0.66430  1.0000
  C   C2233     1.0  0.32227  0.90475  0.49182  1.0000
  C   C2234     1.0  0.49585  0.90228  0.72620  1.0000
  H   H1810     1.0  0.25435  0.86998  0.60627  1.0000
  H   H1811     1.0  0.32056  0.82863  0.53035  1.0000
  H   H1812     1.0  0.35262  0.96230  0.64815  1.0000
  C   C2235     1.0  0.37777  0.92044  0.73461  1.0000
  H   H1813     1.0  0.47194  0.93597  0.65161  1.0000
  H   H1814     1.0  0.32374  0.90270  0.67990  1.0000
  C   C2236     1.0  0.20360  0.96951  0.59529  1.0000
  H   H1815     1.0  0.13211  0.87259  0.52779  1.0000
  H   H1816     1.0  0.22837  0.81790  0.54478  1.0000
  C   C2237     1.0  0.27876  0.85667  0.57717  1.0000
  S   S320      1.0  0.39998  0.97291  0.60515  1.0000
  H   H1817     1.0  0.34318  0.94186  0.64667  1.0000
  H   H1818     1.0  0.23695  0.87582  0.58997  1.0000
  C   C2238     1.0  0.23346  0.93054  0.50732  1.0000
  H   H1819     1.0  0.22848  0.95444  0.56369  1.0000
  P   P75       1.0  0.11605  0.90378  0.52560  1.0000
  C   C2239     1.0  0.24412  0.95107  0.59266  1.0000
  C   C2240     1.0  0.27881  0.84271  0.50943  1.0000
  H   H1820     1.0  0.33372  0.98633  0.59799  1.0000
  H   H1821     1.0  0.42744  0.96672  0.67835  1.0000
  H   H1822     1.0  0.41620  0.93047  0.58132  1.0000
  C   C2241     1.0  0.49674  0.98065  0.67159  1.0000
  H   H1823     1.0  0.46469  0.99069  0.65064  1.0000
  H   H1824     1.0  0.29394  0.82203  0.51590  1.0000
  C   C2242     1.0  0.41370  0.98721  0.52661  1.0000
  C   C2243     1.0  0.40433  0.96355  0.55907  1.0000
  S   S321      1.0  0.32243  0.97662  0.50363  1.0000
  C   C2244     1.0  0.18925  0.86452  0.53648  1.0000
  C   C2245     1.0  0.17773  0.85703  0.54276  1.0000
  C   C2246     1.0  0.17074  0.85320  0.53380  1.0000
  C   C2247     1.0  0.17498  0.85705  0.51842  1.0000
  C   C2248     1.0  0.18649  0.86464  0.51198  1.0000
  C   C2249     1.0  0.19371  0.86830  0.52104  1.0000
  H   H1825     1.0  0.17418  0.85414  0.55464  1.0000
  H   H1826     1.0  0.16190  0.84732  0.53882  1.0000
  H   H1827     1.0  0.19808  0.87183  0.57885  1.0000
  H   H1828     1.0  0.20237  0.87439  0.51607  1.0000
  C   C2250     1.0  0.41527  0.94201  0.57579  1.0000
  C   C2251     1.0  0.24095  0.92707  0.51883  1.0000
  C   C2252     1.0  0.23987  0.93775  0.52656  1.0000
  C   C2253     1.0  0.23133  0.95199  0.52277  1.0000
  Fe  Fe162     1.0  0.40566  0.98782  0.61609  1.0000
  C   C2254     1.0  0.48087  0.89663  0.65056  1.0000
  H   H1829     1.0  0.24754  0.91614  0.52193  1.0000
  H   H1830     1.0  0.24542  0.93487  0.53570  1.0000
  H   H1831     1.0  0.40348  0.96583  0.69662  1.0000
  H   H1832     1.0  0.25304  0.96624  0.50307  1.0000
  C   C2255     1.0  0.43727  0.96046  0.67212  1.0000
  C   C2256     1.0  0.02613  0.76198  0.51418  1.0000
  C   C2257     1.0  0.21573  0.91791  0.63240  1.0000
  H   H1833     1.0  0.40553  0.92895  0.68656  1.0000
  C   C2258     1.0  0.37339  0.92475  0.68094  1.0000
  C   C2259     1.0  0.40594  0.94852  0.56573  1.0000
  C   C2260     1.0  0.26643  0.85780  0.58909  1.0000
  C   C2261     1.0  0.15464  0.94991  0.51510  1.0000
  H   H1834     1.0  0.40016  0.98367  0.71217  1.0000
  H   H1835     1.0  0.15014  0.97231  0.50235  1.0000
  C   C2262     1.0  0.29056  0.91205  0.55414  1.0000
  C   C2263     1.0  0.28913  0.90191  0.54686  1.0000
  C   C2264     1.0  0.27539  0.89807  0.54938  1.0000
  C   C2265     1.0  0.26308  0.90408  0.55944  1.0000
  C   C2266     1.0  0.26448  0.91432  0.56664  1.0000
  C   C2267     1.0  0.27815  0.91840  0.56389  1.0000
  H   H1836     1.0  0.29870  0.89688  0.53939  1.0000
  H   H1837     1.0  0.27453  0.88993  0.54409  1.0000
  H   H1838     1.0  0.25503  0.91899  0.57448  1.0000
  H   H1839     1.0  0.27926  0.92603  0.56971  1.0000
  Fe  Fe163     1.0  0.21229  0.98522  0.52939  1.0000
  C   C2268     1.0  0.35120  0.98011  0.65797  1.0000
  S   S322      1.0  0.31857  0.97733  0.54484  1.0000
  C   C2269     1.0  0.33155  0.93519  0.69090  1.0000
  C   C2270     1.0  0.29229  0.93706  0.51776  1.0000
  C   C2271     1.0  0.48604  0.93399  0.69769  1.0000
  H   H1840     1.0  0.21740  0.96679  0.50820  1.0000
  H   H1841     1.0  0.17091  0.89250  0.51897  1.0000
  H   H1842     1.0  0.17089  0.98846  0.61344  1.0000
  C   C2272     1.0  0.45233  0.95511  0.73031  1.0000
  C   C2273     1.0  0.35518  0.97220  0.60079  1.0000
  C   C2274     1.0  0.27479  0.85404  0.49766  1.0000
  C   C2275     1.0  0.34168  0.97143  0.58290  1.0000
  C   C2276     1.0  0.35301  0.95983  0.57818  1.0000
  C   C2277     1.0  0.36565  0.95475  0.58448  1.0000
  C   C2278     1.0  0.36682  0.96099  0.59564  1.0000
  C   C2279     1.0  0.26178  0.95496  0.56940  1.0000
  C   C2280     1.0  0.01768  0.81585  0.51700  1.0000
  H   H1843     1.0  0.37449  0.94579  0.58089  1.0000
  H   H1844     1.0  0.37657  0.95690  0.60049  1.0000
  C   C2281     1.0  0.43701  0.89660  0.65744  1.0000
  C   C2282     1.0  0.44047  0.89369  0.64327  1.0000
  C   C2283     1.0  0.43575  0.90470  0.63148  1.0000
  C   C2284     1.0  0.42735  0.91869  0.63375  1.0000
  C   C2285     1.0  0.42364  0.92162  0.64795  1.0000
  C   C2286     1.0  0.42848  0.91058  0.65976  1.0000
  H   H1845     1.0  0.44694  0.88292  0.64137  1.0000
  H   H1846     1.0  0.43858  0.90232  0.62057  1.0000
  H   H1847     1.0  0.41702  0.93234  0.64987  1.0000
  H   H1848     1.0  0.42533  0.91279  0.67071  1.0000
  C   C2287     1.0  0.22393  0.95569  0.51114  1.0000
  C   C2288     1.0  0.28818  0.86651  0.57324  1.0000
  H   H1849     1.0  0.44528  0.94819  0.70046  1.0000
  H   H1850     1.0  0.26955  0.81384  0.60573  1.0000
  C   C2289     1.0  0.41250  0.93645  0.72913  1.0000
  C   C2290     1.0  0.23593  0.81120  0.52383  1.0000
  C   C2291     1.0  0.21509  0.92945  0.58005  1.0000
  H   H1851     1.0  0.04035  0.74306  0.52525  1.0000
  H   H1852     1.0  0.26401  0.82103  0.49165  1.0000
  C   C2292     1.0  0.46228  0.94326  0.65682  1.0000
  H   H1853     1.0  0.35147  0.93866  0.62090  1.0000
  H   H1854     1.0  0.21562  0.91256  0.56905  1.0000
  C   C2293     1.0  0.33906  0.91666  0.67599  1.0000
  C   C2294     1.0  0.39587  0.90999  0.69689  1.0000
  C   C2295     1.0  0.31838  0.93033  0.69783  1.0000
  H   H1855     1.0  0.37126  0.96071  0.53380  1.0000
  C   C2296     1.0  0.32751  0.91516  0.49540  1.0000
  H   H1856     1.0  0.33215  0.97560  0.57781  1.0000
  H   H1857     1.0  0.27027  0.97439  0.64477  1.0000
  H   H1858     1.0  0.46124  0.97798  0.58003  1.0000
  H   H1859     1.0  0.31043  0.93556  0.70638  1.0000
  Fe  Fe164     1.0  0.39358  0.97229  0.64692  1.0000
  H   H1860     1.0  0.24589  0.82444  0.65712  1.0000
  C   C2297     1.0  0.32587  0.91183  0.68293  1.0000
  H   H1861     1.0  0.38638  0.94146  0.67192  1.0000
  C   C2298     1.0  0.35916  0.93423  0.62831  1.0000
  C   C2299     1.0  0.44857  0.95401  0.70676  1.0000
  C   C2300     1.0  0.29185  0.85808  0.53661  1.0000
  C   C2301     1.0  0.09759  0.92968  0.51320  1.0000
  C   C2302     1.0  0.09463  0.94401  0.50462  1.0000
  C   C2303     1.0  0.25837  0.95277  0.58476  1.0000
  H   H1862     1.0  0.22280  0.85276  0.50683  1.0000
  C   C2304     1.0  0.38414  0.90344  0.69816  1.0000
  C   C2305     1.0  0.11235  0.92213  0.51411  1.0000
  C   C2306     1.0  0.34058  0.95093  0.49553  1.0000
  C   C2307     1.0  0.25217  0.97684  0.61245  1.0000
  C   C2308     1.0  0.24321  0.97919  0.62611  1.0000
  H   H1863     1.0  0.25369  0.95717  0.54992  1.0000
  Fe  Fe165     1.0  0.45836  0.88603  0.71851  1.0000
  H   H1864     1.0  0.33358  0.94416  0.69425  1.0000
  H   H1865     1.0  0.11167  0.95718  0.52999  1.0000
  H   H1866     1.0  0.24225  0.80783  0.50158  1.0000
  C   C2309     1.0  0.09539  0.88928  0.54678  1.0000
  H   H1867     1.0  0.47529  0.95313  0.66469  1.0000
  H   H1868     1.0  0.18983  0.86766  0.50009  1.0000
  H   H1869     1.0  0.22704  0.92623  0.57936  1.0000
  H   H1870     1.0  0.27082  0.88756  0.59887  1.0000
  H   H1871     1.0  0.32367  0.87840  0.52359  1.0000
  H   H1872     1.0  0.36386  0.90561  0.69143  1.0000
  H   H1873     1.0  0.30536  0.91484  0.69928  1.0000
  H   H1874     1.0  0.22869  0.83699  0.61770  1.0000
  H   H1875     1.0  0.27032  0.81953  0.55277  1.0000
  H   H1876     1.0  0.28923  0.87957  0.52246  1.0000
  C   C2310     1.0  0.44797  0.94263  0.65642  1.0000
  C   C2311     1.0  0.10072  0.90231  0.54140  1.0000
  C   C2312     1.0  0.21478  0.94063  0.63915  1.0000
  C   C2313     1.0  0.07701  0.90019  0.56608  1.0000
  C   C2314     1.0  0.13298  0.90152  0.54607  1.0000
  C   C2315     1.0  0.16000  0.89605  0.54076  1.0000
  C   C2316     1.0  0.32473  0.88857  0.51557  1.0000
  P   P76       1.0  0.31394  0.87819  0.49695  1.0000
  C   C2317     1.0  0.26962  0.81530  0.59418  1.0000
  H   H1877     1.0  0.12287  0.97636  0.51114  1.0000
  H   H1878     1.0  0.25876  0.84091  0.56458  1.0000
  C   C2318     1.0  0.31553  0.91866  0.69383  1.0000
  H   H1879     1.0  0.27271  0.95655  0.56333  1.0000
  C   C2319     1.0  0.11024  0.89382  0.50353  1.0000
  C   C2320     1.0  0.40373  0.95070  0.72961  1.0000
  C   C2321     1.0  0.06736  0.76102  0.48931  1.0000
  C   C2322     1.0  0.47692  0.93899  0.61478  1.0000
  C   C2323     1.0  0.26541  0.97455  0.63581  1.0000
  C   C2324     1.0  0.00281  0.75811  0.51240  1.0000
  C   C2325     1.0  0.30260  0.98461  0.58991  1.0000
  H   H1880     1.0  0.29252  0.88534  0.57788  1.0000
  C   C2326     1.0  0.16031  0.89505  0.52650  1.0000
  H   H1881     1.0  0.21558  0.91950  0.65432  1.0000
  C   C2327     1.0  0.46801  0.95208  0.61904  1.0000
  C   C2328     1.0  0.45412  0.95817  0.61525  1.0000
  C   C2329     1.0  0.44893  0.95114  0.60743  1.0000
  C   C2330     1.0  0.45764  0.93798  0.60334  1.0000
  C   C2331     1.0  0.47165  0.93195  0.60692  1.0000
  C   C2332     1.0  0.14703  0.89713  0.52199  1.0000
  H   H1882     1.0  0.33200  0.89731  0.53011  1.0000
  C   C2333     1.0  0.11786  0.89024  0.51506  1.0000
  H   H1883     1.0  0.32841  0.84705  0.50833  1.0000
  H   H1884     1.0  0.49128  0.89512  0.72263  1.0000
  C   C2334     1.0  0.23680  0.95369  0.56973  1.0000
  H   H1885     1.0  0.39545  0.91652  0.62837  1.0000
  H   H1886     1.0  0.27024  0.82969  0.64244  1.0000
  C   C2335     1.0  0.35493  0.97353  0.68297  1.0000
  H   H1887     1.0  0.24715  0.97824  0.60317  1.0000
  H   H1888     1.0  0.47160  0.91411  0.63436  1.0000
  H   H1889     1.0  0.03893  0.82139  0.51337  1.0000
  S   S323      1.0  0.46711  0.87136  0.73851  1.0000
  H   H1890     1.0  0.26391  0.98353  0.54621  1.0000
  C   C2336     1.0  0.32098  0.89133  0.50180  1.0000
  H   H1891     1.0  0.47162  0.95758  0.62540  1.0000
  H   H1892     1.0  0.44729  0.96827  0.61853  1.0000
  H   H1893     1.0  0.43797  0.95571  0.60487  1.0000
  H   H1894     1.0  0.45334  0.93228  0.59774  1.0000
  C   C2337     1.0  0.26771  0.97320  0.61052  1.0000
  H   H1895     1.0  0.03428  0.76861  0.51153  1.0000
  C   C2338     1.0  0.12609  0.87569  0.51898  1.0000
  H   H1896     1.0  0.29749  0.86582  0.56384  1.0000
  H   H1897     1.0  0.38757  0.91977  0.65394  1.0000
  H   H1898     1.0  0.02254  0.72693  0.53126  1.0000
  C   C2339     1.0  0.02961  0.74744  0.52214  1.0000
  S   S324      1.0  0.03109  0.67403  0.50794  1.0000
  H   H1899     1.0  0.28119  0.79265  0.59364  1.0000
  H   H1900     1.0  0.39960  0.94201  0.56342  1.0000
  C   C2340     1.0  0.35665  0.95859  0.68315  1.0000
  H   H1901     1.0  0.38387  0.89262  0.70522  1.0000
  C   C2341     1.0  0.39746  0.97716  0.69356  1.0000
  C   C2342     1.0  0.17097  0.92371  0.49793  1.0000
  S   S325      1.0  0.47077  0.88470  0.69529  1.0000
  C   C2343     1.0  0.23354  0.83102  0.50214  1.0000
  C   C2344     1.0  0.35291  0.96518  0.65812  1.0000
  C   C2345     1.0  0.49854  0.98856  0.65705  1.0000
  Fe  Fe166     1.0  0.29743  0.96969  0.55661  1.0000
  C   C2346     1.0  0.09414  0.91423  0.54856  1.0000
  C   C2347     1.0  0.26378  0.86887  0.59705  1.0000
  C   C2348     1.0  0.21447  0.94830  0.62461  1.0000
  C   C2349     1.0  0.35454  0.93612  0.64289  1.0000
  S   S326      1.0  0.43599  0.88897  0.71327  1.0000
  H   H1902     1.0  0.39566  0.96584  0.51905  1.0000
  H   H1903     1.0  0.06784  0.89938  0.57559  1.0000
  C   C2350     1.0  0.27316  0.87875  0.59302  1.0000
  C   C2351     1.0  0.18154  0.98653  0.60576  1.0000
  H   H1904     1.0  0.49722  0.94575  0.58800  1.0000
  C   C2352     1.0  0.38639  0.96827  0.51370  1.0000
  C   C2353     1.0  0.25107  0.95532  0.56188  1.0000
  H   H1905     1.0  0.40457  0.90445  0.70307  1.0000
  H   H1906     1.0  0.26571  0.86344  0.49972  1.0000
  C   C2354     1.0  0.30059  0.84367  0.53885  1.0000
  H   H1907     1.0  0.47080  0.89239  0.65459  1.0000
  P   P77       1.0  0.49503  0.93119  0.61926  1.0000
  H   H1908     1.0  0.42435  0.95009  0.66460  1.0000
  H   H1909     1.0  0.14614  0.89984  0.56168  1.0000
  H   H1910     1.0  0.26675  0.95267  0.59042  1.0000
  H   H1911     1.0  0.33470  0.92071  0.51217  1.0000
  H   H1912     1.0  0.29349  0.93325  0.52907  1.0000
  H   H1913     1.0  0.34960  0.98840  0.64801  1.0000
  H   H1914     1.0  0.31257  0.94482  0.51036  1.0000
  C   C2355     1.0  0.22975  0.82150  0.53291  1.0000
  H   H1915     1.0  0.26661  0.91611  0.49702  1.0000
  C   C2356     1.0  0.34194  0.92846  0.67985  1.0000
  H   H1916     1.0  0.35924  0.95043  0.69287  1.0000
  C   C2357     1.0  0.20150  0.91107  0.49125  1.0000
  C   C2358     1.0  0.22512  0.83647  0.52669  1.0000
  C   C2359     1.0  0.42148  0.96553  0.57251  1.0000
  C   C2360     1.0  0.00623  0.74364  0.52051  1.0000
  C   C2361     1.0  0.31513  0.96277  0.65860  1.0000
  C   C2362     1.0  0.30443  0.95498  0.65973  1.0000
  C   C2363     1.0  0.29797  0.95701  0.64769  1.0000
  C   C2364     1.0  0.30203  0.96703  0.63452  1.0000
  H   H1917     1.0  0.31755  0.98119  0.62298  1.0000
  P   P78       1.0  0.29454  0.96882  0.61865  1.0000
  C   C2365     1.0  0.30158  0.94846  0.49249  1.0000
  C   C2366     1.0  0.30393  0.95220  0.61170  1.0000
  C   C2367     1.0  0.31956  0.94888  0.60740  1.0000
  C   C2368     1.0  0.32715  0.93610  0.60196  1.0000
  C   C2369     1.0  0.31921  0.92633  0.60113  1.0000
  C   C2370     1.0  0.30365  0.92934  0.60576  1.0000
  C   C2371     1.0  0.29601  0.94223  0.61104  1.0000
  H   H1918     1.0  0.35643  0.97672  0.69234  1.0000
  C   C2372     1.0  0.42305  0.95051  0.57914  1.0000
  C   C2373     1.0  0.35227  0.98428  0.67037  1.0000
  C   C2374     1.0  0.29610  0.86850  0.52400  1.0000
  H   H1919     1.0  0.38021  0.89837  0.73202  1.0000
  H   H1920     1.0  0.10386  0.90492  0.50020  1.0000
  H   H1921     1.0  0.16827  0.90663  0.48899  1.0000
  C   C2375     1.0  0.39561  0.98726  0.70236  1.0000
  H   H1922     1.0  0.10410  0.96195  0.49010  1.0000
  H   H1923     1.0  0.43488  0.98228  0.59407  1.0000
  S   S327      1.0  0.41954  0.98932  0.72704  1.0000
  H   H1924     1.0  0.09144  0.71634  0.49016  1.0000
  H   H1925     1.0  0.32014  0.96127  0.66788  1.0000
  H   H1926     1.0  0.30122  0.94730  0.66990  1.0000
  H   H1927     1.0  0.28993  0.95067  0.64859  1.0000
  H   H1928     1.0  0.39883  0.97635  0.49226  1.0000
  H   H1929     1.0  0.32587  0.95624  0.60816  1.0000
  H   H1930     1.0  0.33919  0.93394  0.59810  1.0000
  H   H1931     1.0  0.32509  0.91659  0.59661  1.0000
  H   H1932     1.0  0.29752  0.92184  0.60490  1.0000
  H   H1933     1.0  0.28399  0.94433  0.61454  1.0000
  C   C2376     1.0  0.10636  0.95086  0.49682  1.0000
  C   C2377     1.0  0.20881  0.98165  0.58556  1.0000
  C   C2378     1.0  0.13322  0.90059  0.53168  1.0000
  H   H1934     1.0  0.24287  0.98024  0.64825  1.0000
  H   H1935     1.0  0.27450  0.97180  0.59975  1.0000
  H   H1936     1.0  0.23117  0.98227  0.62751  1.0000
  C   C2379     1.0  0.45577  0.98859  0.58293  1.0000
  H   H1937     1.0  0.20364  0.84000  0.49511  1.0000
  C   C2380     1.0  0.29818  0.98506  0.60493  1.0000
  C   C2381     1.0  0.27989  0.93563  0.51381  1.0000
  C   C2382     1.0  0.21467  0.94083  0.61388  1.0000
  C   C2383     1.0  0.01252  0.76755  0.50952  1.0000
  H   H1938     1.0  0.35016  0.96588  0.52149  1.0000
  C   C2384     1.0  0.01448  0.66949  0.50819  1.0000
  H   H1939     1.0  0.49242  0.88061  0.66646  1.0000
  C   C2385     1.0  0.41233  0.97210  0.56220  1.0000
  Fe  Fe167     1.0  0.44824  0.89068  0.68955  1.0000
  C   C2386     1.0  0.20862  0.92147  0.57438  1.0000
  C   C2387     1.0  0.45159  0.96196  0.67166  1.0000
  C   C2388     1.0  0.46412  0.95291  0.66437  1.0000
  Fe  Fe168     1.0  0.43554  0.91310  0.70858  1.0000
  C   C2389     1.0  0.27810  0.94096  0.49924  1.0000
  H   H1940     1.0  0.17773  0.96958  0.54696  1.0000
  H   H1941     1.0  0.28142  0.86107  0.54429  1.0000
  H   H1942     1.0  0.18832  0.91910  0.57061  1.0000
  H   H1943     1.0  0.27157  0.93055  0.52212  1.0000
  S   S328      1.0  0.45700  0.91024  0.71535  1.0000
  H   H1944     1.0  0.21581  0.91948  0.60976  1.0000
  H   H1945     1.0  0.17040  0.89416  0.54422  1.0000
  H   H1946     1.0  0.44658  0.93511  0.65060  1.0000
  C   C2390     1.0  0.31960  0.97233  0.64534  1.0000
  C   C2391     1.0  0.33105  0.91245  0.50919  1.0000
  C   C2392     1.0  0.22687  0.84120  0.51138  1.0000
  C   C2393     1.0  0.44844  0.94786  0.72170  1.0000
  H   H1947     1.0  0.43645  0.98886  0.65743  1.0000
  C   C2394     1.0  0.18431  0.93709  0.58153  1.0000
  C   C2395     1.0  0.39649  0.92378  0.68753  1.0000
  C   C2396     1.0  0.08357  0.88826  0.55907  1.0000
  H   H1948     1.0  0.28117  0.84828  0.57084  1.0000
  C   C2397     1.0  0.49307  0.88995  0.65724  1.0000
  C   C2398     1.0  0.36469  0.93112  0.65232  1.0000
  C   C2399     1.0  0.03288  0.81481  0.51074  1.0000
  C   C2400     1.0  0.38393  0.92174  0.63249  1.0000
  C   C2401     1.0  0.45676  0.96842  0.72386  1.0000
  C   C2402     1.0  0.34266  0.97748  0.59428  1.0000
  S   S329      1.0  0.41345  0.92838  0.71463  1.0000
  Fe  Fe169     1.0  0.37821  0.97552  0.62162  1.0000
  S   S330      1.0  0.39307  0.96790  0.67118  1.0000
  C   C2403     1.0  0.37388  0.92712  0.62309  1.0000
  H   H1949     1.0  0.12257  0.90394  0.55389  1.0000
  C   C2404     1.0  0.12675  0.86495  0.51140  1.0000
  C   C2405     1.0  0.23767  0.81592  0.50850  1.0000
  H   H1950     1.0  0.10031  0.87989  0.54154  1.0000
  C   C2406     1.0  0.27626  0.80322  0.58736  1.0000
  C   C2407     1.0  0.27651  0.80473  0.57245  1.0000
  H   H1951     1.0  0.34105  0.94671  0.50700  1.0000
  H   H1952     1.0  0.47824  0.92166  0.60381  1.0000
  C   C2408     1.0  0.45310  0.96736  0.70014  1.0000
  C   C2409     1.0  0.08231  0.91317  0.56084  1.0000
  C   C2410     1.0  0.27431  0.90750  0.49173  1.0000
  C   C2411     1.0  0.45721  0.97449  0.70886  1.0000
  C   C2412     1.0  0.13283  0.94169  0.53136  1.0000
  H   H1953     1.0  0.07724  0.92242  0.56628  1.0000
  C   C2413     1.0  0.29078  0.83074  0.50677  1.0000
  H   H1954     1.0  0.18376  0.83243  0.48927  1.0000
  C   C2414     1.0  0.36255  0.97404  0.49996  1.0000
  C   C2415     1.0  0.14828  0.93908  0.52595  1.0000
  H   H1955     1.0  0.27398  0.83858  0.61541  1.0000
  C   C2416     1.0  0.35578  0.95424  0.67066  1.0000
  C   C2417     1.0  0.18188  0.94655  0.52402  1.0000
  C   C2418     1.0  0.17565  0.95845  0.53128  1.0000
  C   C2419     1.0  0.18230  0.96011  0.54180  1.0000
  C   C2420     1.0  0.19527  0.95001  0.54503  1.0000
  C   C2421     1.0  0.20100  0.93768  0.53855  1.0000
  C   C2422     1.0  0.19427  0.93582  0.52820  1.0000
  S   S331      1.0  0.41639  0.96924  0.63234  1.0000
  H   H1956     1.0  0.48231  0.97036  0.68994  1.0000
  C   C2423     1.0  0.49149  0.94266  0.70364  1.0000
  H   H1957     1.0  0.34703  0.91112  0.66767  1.0000
  H   H1958     1.0  0.01193  0.82324  0.52452  1.0000
  H   H1959     1.0  0.09818  0.92434  0.54467  1.0000
  H   H1960     1.0  0.23232  0.83300  0.58834  1.0000
  H   H1961     1.0  0.44123  0.97897  0.54874  1.0000
  S   S332      1.0  0.23431  0.91653  0.49856  1.0000
  H   H1962     1.0  0.21266  0.88719  0.58329  1.0000
  C   C2424     1.0  0.32960  0.89920  0.51928  1.0000
  H   H1963     1.0  0.12797  0.93332  0.53969  1.0000
  H   H1964     1.0  0.46757  0.98387  0.61045  1.0000
  H   H1965     1.0  0.28162  0.79538  0.56715  1.0000
  C   C2425     1.0  0.30901  0.86460  0.51341  1.0000
  H   H1966     1.0  0.15532  0.92864  0.53017  1.0000
  H   H1967     1.0  0.16607  0.96691  0.52832  1.0000
  H   H1968     1.0  0.42987  0.94554  0.58731  1.0000
  H   H1969     1.0  0.20099  0.95182  0.55244  1.0000
  H   H1970     1.0  0.21108  0.92989  0.54111  1.0000
  H   H1971     1.0  0.19914  0.92630  0.52322  1.0000
  H   H1972     1.0  0.20441  0.92907  0.49839  1.0000
  C   C2426     1.0  0.21537  0.92544  0.64305  1.0000
  C   C2427     1.0  0.37937  0.92364  0.64708  1.0000
  H   H1973     1.0  0.48481  0.94692  0.71324  1.0000
  C   C2428     1.0  0.37286  0.91082  0.69028  1.0000
  H   H1974     1.0  0.24163  0.94969  0.60451  1.0000
  H   H1975     1.0  0.21456  0.94647  0.64739  1.0000
  H   H1976     1.0  0.22005  0.84444  0.53373  1.0000
  H   H1977     1.0  0.22521  0.82810  0.64463  1.0000
  C   C2429     1.0  0.31809  0.85026  0.51602  1.0000
  H   H1978     1.0  0.07948  0.87818  0.56314  1.0000
  H   H1979     1.0  0.37757  0.92603  0.61167  1.0000
  H   H1980     1.0  0.13343  0.85384  0.51422  1.0000
  C   C2430     1.0  0.24832  0.98964  0.49415  1.0000
  C   C2431     1.0  0.26117  0.83140  0.63700  1.0000
  C   C2432     1.0  0.24746  0.82842  0.64527  1.0000
  C   C2433     1.0  0.23581  0.83049  0.63823  1.0000
  C   C2434     1.0  0.23783  0.83558  0.62292  1.0000
  C   C2435     1.0  0.25151  0.83877  0.61455  1.0000
  C   C2436     1.0  0.26323  0.83649  0.62169  1.0000
  P   P79       1.0  0.25449  0.84477  0.59472  1.0000
  C   C2437     1.0  0.26317  0.82902  0.58610  1.0000
  C   C2438     1.0  0.23657  0.85347  0.58976  1.0000
  C   C2439     1.0  0.23073  0.86877  0.58849  1.0000
  C   C2440     1.0  0.21683  0.87532  0.58474  1.0000
  C   C2441     1.0  0.20861  0.86668  0.58227  1.0000
  C   C2442     1.0  0.21424  0.85143  0.58365  1.0000
  C   C2443     1.0  0.22813  0.84482  0.58744  1.0000
  C   C2444     1.0  0.26352  0.83043  0.57111  1.0000
  C   C2445     1.0  0.27014  0.81833  0.56435  1.0000
  H   H1981     1.0  0.39654  0.96854  0.55183  1.0000
  C   C2446     1.0  0.01732  0.79769  0.50392  1.0000
  C   C2447     1.0  0.26774  0.97685  0.50776  1.0000
  H   H1982     1.0  0.27352  0.96676  0.51399  1.0000
  C   C2448     1.0  0.01961  0.73832  0.52544  1.0000
  C   C2449     1.0  0.21542  0.92555  0.61785  1.0000
  H   H1983     1.0  0.14757  0.89604  0.51093  1.0000
  C   C2450     1.0  0.48329  0.97648  0.67872  1.0000
  H   H1984     1.0  0.29007  0.90332  0.50527  1.0000
  S   S333      1.0  0.27857  0.98469  0.56917  1.0000
  C   C2451     1.0  0.37610  0.97739  0.49154  1.0000
  C   C2452     1.0  0.31380  0.83981  0.52864  1.0000
  H   H1985     1.0  0.26813  0.94012  0.49668  1.0000
  C   C2453     1.0  0.48141  0.90904  0.63900  1.0000
  C   C2454     1.0  0.28757  0.90006  0.49646  1.0000
  H   H1986     1.0  0.13014  0.94861  0.49116  1.0000
  C   C2455     1.0  0.12366  0.95512  0.52598  1.0000
  C   C2456     1.0  0.36079  0.96820  0.51512  1.0000
  C   C2457     1.0  0.37269  0.96533  0.52202  1.0000
  H   H1987     1.0  0.46088  0.98472  0.70405  1.0000
  C   C2458     1.0  0.19323  0.92517  0.57526  1.0000
  C   C2459     1.0  0.24983  0.97804  0.63778  1.0000
  C   C2460     1.0  0.11924  0.86863  0.49989  1.0000
  C   C2461     1.0  0.12997  0.96598  0.51533  1.0000
  H   H1988     1.0  0.21416  0.96005  0.62173  1.0000
  C   C2462     1.0  0.22487  0.94487  0.50349  1.0000
  H   H1989     1.0  0.42700  0.97209  0.57583  1.0000
  H   H1990     1.0  0.21624  0.90612  0.63539  1.0000
  C   C2463     1.0  0.19640  0.92378  0.49720  1.0000
  C   C2464     1.0  0.04031  0.80526  0.50108  1.0000
  S   S334      1.0  0.02408  0.71692  0.50154  1.0000
  H   H1991     1.0  0.17243  0.94025  0.58180  1.0000
  C   C2465     1.0  0.38812  0.97427  0.49850  1.0000
  S   S335      1.0  0.35573  0.97948  0.61561  1.0000
  H   H1992     1.0  0.42254  0.97785  0.52969  1.0000
  H   H1993     1.0  0.21920  0.98018  0.57746  1.0000
  H   H1994     1.0  0.21872  0.94756  0.49486  1.0000
  C   C2466     1.0  0.29724  0.88834  0.49011  1.0000
  H   H1995     1.0  0.37413  0.92574  0.72432  1.0000
  C   C2467     1.0  0.27447  0.97187  0.62220  1.0000
  C   C2468     1.0  0.18886  0.96985  0.49438  1.0000
  C   C2469     1.0  0.20620  0.94142  0.58646  1.0000
  C   C2470     1.0  0.14543  0.96352  0.51011  1.0000
  C   C2471     1.0  0.31332  0.97424  0.63328  1.0000
  H   H1996     1.0  0.19246  0.96846  0.50445  1.0000
  H   H1997     1.0  0.39711  0.95637  0.72141  1.0000
  C   C2472     1.0  0.01035  0.66999  0.49512  1.0000
  C   C2473     1.0  0.12107  0.94331  0.49741  1.0000
  C   C2474     1.0  0.39161  0.98154  0.68082  1.0000
  C   C2475     1.0  0.29866  0.83004  0.49231  1.0000
  C   C2476     1.0  0.03253  0.79683  0.49760  1.0000
  C   C2477     1.0  0.19074  0.94519  0.58710  1.0000
  H   H1998     1.0  0.12011  0.86041  0.49374  1.0000
  C   C2478     1.0  0.49454  0.92865  0.68516  1.0000
  H   H1999     1.0  0.32811  0.97821  0.64420  1.0000
  H   H2000     1.0  0.18357  0.95443  0.59175  1.0000
  C   C2479     1.0  0.49427  0.91489  0.63399  1.0000
  H   H2001     1.0  0.15920  0.92881  0.49971  1.0000
  P   P80       1.0  0.21439  0.95078  0.59510  1.0000
  H   H2002     1.0  0.05208  0.80447  0.49608  1.0000
  H   H2003     1.0  0.35332  0.97595  0.49481  1.0000
  H   H2004     1.0  0.08327  0.94981  0.50386  1.0000
  S   S336      1.0  0.05724  0.73652  0.49242  1.0000
  P   P81       1.0  0.00769  0.78640  0.49940  1.0000
  H   H2005     1.0  0.03841  0.78955  0.49001  1.0000
  H   H2006     1.0  0.41787  0.98378  0.50451  1.0000
  C   C2480     1.0  0.00990  0.80731  0.51364  1.0000
  C   C2481     1.0  0.18995  0.97209  0.60550  1.0000
  H   H2007     1.0  0.23902  0.98949  0.48986  1.0000
  C   C2482     1.0  0.00528  0.66522  0.52178  1.0000
  H   H2008     1.0  0.45979  0.97415  0.73045  1.0000
  H   H2009     1.0  0.44530  0.93744  0.72663  1.0000
  H   H2010     1.0  0.30429  0.97444  0.58630  1.0000
  H   H2011     1.0  0.00833  0.66500  0.53187  1.0000
  C   C2483     1.0  0.17609  0.91120  0.49168  1.0000
  H   H2012     1.0  0.46307  0.98915  0.54593  1.0000
  Fe  Fe170     1.0  0.03236  0.69608  0.49297  1.0000
  C   C2484     1.0  0.48611  0.91436  0.73175  1.0000
  H   H2013     1.0  0.49876  0.93509  0.64761  1.0000
  C   C2485     1.0  0.33234  0.96522  0.49096  1.0000
  H   H2014     1.0  0.47428  0.91652  0.73227  1.0000
  C   C2486     1.0  0.49158  0.92384  0.73649  1.0000
  C   C2487     1.0  0.27167  0.99019  0.50609  1.0000
  H   H2015     1.0  0.28067  0.99000  0.51096  1.0000
  H   H2016     1.0  0.30798  0.82083  0.49026  1.0000
  C   C2488     1.0  0.44090  0.99097  0.59089  1.0000
  C   C2489     1.0  0.43947  0.99034  0.54953  1.0000
  C   C2490     1.0  0.41111  0.99057  0.51233  1.0000
  P   P82       1.0  0.32383  0.72376  0.92190  1.0000
  C   C2491     1.0  0.43328  0.80524  0.97500  1.0000
  H   H2017     1.0  0.39014  0.87086  0.94482  1.0000
  H   H2018     1.0  0.44965  0.74024  0.82262  1.0000
  C   C2492     1.0  0.47039  0.90190  0.76592  1.0000
  Fe  Fe171     1.0  0.44431  0.88372  0.89536  1.0000
  S   S337      1.0  0.45929  0.86450  0.90713  1.0000
  S   S338      1.0  0.45265  0.90221  0.87818  1.0000
  Fe  Fe172     1.0  0.41619  0.87268  0.91193  1.0000
  S   S339      1.0  0.42881  0.85256  0.92523  1.0000
  S   S340      1.0  0.39133  0.87846  0.91366  1.0000
  Fe  Fe173     1.0  0.44157  0.86783  0.92748  1.0000
  S   S341      1.0  0.44592  0.87096  0.94818  1.0000
  Fe  Fe174     1.0  0.44529  0.85122  0.90366  1.0000
  S   S342      1.0  0.45322  0.82988  0.89599  1.0000
  S   S343      1.0  0.42752  0.88822  0.91585  1.0000
  S   S344      1.0  0.43165  0.87018  0.89022  1.0000
  C   C2493     1.0  0.36318  0.81929  0.97431  1.0000
  C   C2494     1.0  0.34817  0.71756  0.93497  1.0000
  H   H2019     1.0  0.41505  0.97444  0.78503  1.0000
  C   C2495     1.0  0.29404  0.73861  0.92970  1.0000
  H   H2020     1.0  0.34243  0.69312  0.88380  1.0000
  C   C2496     1.0  0.37948  0.92905  0.74330  1.0000
  C   C2497     1.0  0.43406  0.70237  0.90071  1.0000
  H   H2021     1.0  0.34433  0.66963  0.92818  1.0000
  H   H2022     1.0  0.43991  0.80222  0.90697  1.0000
  H   H2023     1.0  0.41599  0.67809  0.89717  1.0000
  C   C2498     1.0  0.44573  0.94800  0.81709  1.0000
  H   H2024     1.0  0.38588  0.92589  0.78646  1.0000
  H   H2025     1.0  0.34840  0.66953  0.90178  1.0000
  H   H2026     1.0  0.42753  0.89340  0.77975  1.0000
  H   H2027     1.0  0.41079  0.70171  0.90496  1.0000
  C   C2499     1.0  0.30422  0.72481  0.93014  1.0000
  S   S345      1.0  0.48296  0.75901  0.90583  1.0000
  H   H2028     1.0  0.43286  0.72705  0.84317  1.0000
  P   P83       1.0  0.40825  0.81701  0.96235  1.0000
  C   C2500     1.0  0.34124  0.67991  0.92046  1.0000
  C   C2501     1.0  0.43675  0.74297  0.88303  1.0000
  H   H2029     1.0  0.34495  0.86716  0.97692  1.0000
  C   C2502     1.0  0.44866  0.69577  0.89428  1.0000
  C   C2503     1.0  0.35581  0.71934  0.94459  1.0000
  C   C2504     1.0  0.49602  0.80990  0.92483  1.0000
  H   H2030     1.0  0.44456  0.88070  0.80501  1.0000
  C   C2505     1.0  0.29935  0.66007  0.93338  1.0000
  C   C2506     1.0  0.37207  0.70298  0.98099  1.0000
  C   C2507     1.0  0.38676  0.89825  0.75177  1.0000
  C   C2508     1.0  0.42008  0.92597  0.79032  1.0000
  C   C2509     1.0  0.33305  0.72452  0.93563  1.0000
  C   C2510     1.0  0.45260  0.86701  0.78893  1.0000
  P   P84       1.0  0.39640  0.89763  0.77683  1.0000
  H   H2031     1.0  0.45913  0.82948  0.79659  1.0000
  Fe  Fe175     1.0  0.38021  0.68553  0.92216  1.0000
  S   S346      1.0  0.36507  0.67914  0.94419  1.0000
  S   S347      1.0  0.37299  0.70187  0.90216  1.0000
  Fe  Fe176     1.0  0.38542  0.67456  0.95364  1.0000
  C   C2511     1.0  0.46444  0.70981  0.96251  1.0000
  H   H2032     1.0  0.44171  0.71246  0.86582  1.0000
  S   S348      1.0  0.39973  0.68303  0.93200  1.0000
  H   H2033     1.0  0.36751  0.71391  0.94391  1.0000
  S   S349      1.0  0.43065  0.75755  0.97292  1.0000
  C   C2512     1.0  0.41479  0.82147  0.93153  1.0000
  Fe  Fe177     1.0  0.38193  0.81264  0.88904  1.0000
  S   S350      1.0  0.40095  0.80270  0.90070  1.0000
  S   S351      1.0  0.37072  0.83701  0.88586  1.0000
  Fe  Fe178     1.0  0.38236  0.78268  0.88297  1.0000
  S   S352      1.0  0.40159  0.77091  0.89376  1.0000
  S   S353      1.0  0.37285  0.76950  0.87328  1.0000
  Fe  Fe179     1.0  0.38920  0.78408  0.91104  1.0000
  S   S354      1.0  0.38265  0.77325  0.93473  1.0000
  Fe  Fe180     1.0  0.41098  0.79079  0.88196  1.0000
  S   S355      1.0  0.43400  0.78942  0.86771  1.0000
  S   S356      1.0  0.36931  0.79488  0.90084  1.0000
  S   S357      1.0  0.39265  0.80176  0.86966  1.0000
  C   C2513     1.0  0.39709  0.76662  0.94431  1.0000
  C   C2514     1.0  0.47152  0.93895  0.88394  1.0000
  C   C2515     1.0  0.29914  0.71196  0.93797  1.0000
  C   C2516     1.0  0.38477  0.69166  0.98286  1.0000
  C   C2517     1.0  0.33176  0.70665  0.91532  1.0000
  C   C2518     1.0  0.44673  0.85756  0.81530  1.0000
  C   C2519     1.0  0.39692  0.86243  0.95180  1.0000
  H   H2034     1.0  0.43495  0.94013  0.87319  1.0000
  C   C2520     1.0  0.31670  0.74393  0.89647  1.0000
  C   C2521     1.0  0.43492  0.75284  0.86968  1.0000
  H   H2035     1.0  0.44938  0.73122  0.96425  1.0000
  C   C2522     1.0  0.46593  0.83033  0.96894  1.0000
  H   H2036     1.0  0.46292  0.67698  0.88552  1.0000
  Fe  Fe181     1.0  0.40612  0.65960  0.92911  1.0000
  C   C2523     1.0  0.47307  0.97604  0.81138  1.0000
  C   C2524     1.0  0.44490  0.79973  0.83024  1.0000
  H   H2037     1.0  0.32107  0.66924  0.95081  1.0000
  H   H2038     1.0  0.47001  0.81921  0.96697  1.0000
  H   H2039     1.0  0.33227  0.71662  0.89215  1.0000
  C   C2525     1.0  0.37311  0.72077  0.89516  1.0000
  C   C2526     1.0  0.37663  0.72952  0.90265  1.0000
  C   C2527     1.0  0.37653  0.74460  0.89617  1.0000
  C   C2528     1.0  0.37303  0.75082  0.88219  1.0000
  C   C2529     1.0  0.36931  0.74205  0.87497  1.0000
  C   C2530     1.0  0.36932  0.72718  0.88142  1.0000
  H   H2040     1.0  0.37936  0.72469  0.91336  1.0000
  H   H2041     1.0  0.37907  0.75141  0.90198  1.0000
  H   H2042     1.0  0.36643  0.74677  0.86430  1.0000
  H   H2043     1.0  0.36646  0.72054  0.87563  1.0000
  C   C2531     1.0  0.46550  0.69562  0.96062  1.0000
  C   C2532     1.0  0.47415  0.73187  0.97076  1.0000
  C   C2533     1.0  0.39768  0.92200  0.78640  1.0000
  C   C2534     1.0  0.46688  0.83321  0.98216  1.0000
  H   H2044     1.0  0.45329  0.87628  0.77964  1.0000
  C   C2535     1.0  0.46940  0.76740  0.89512  1.0000
  C   C2536     1.0  0.47323  0.76918  0.87976  1.0000
  C   C2537     1.0  0.46230  0.77594  0.87136  1.0000
  C   C2538     1.0  0.44746  0.78071  0.87834  1.0000
  C   C2539     1.0  0.44345  0.77829  0.89372  1.0000
  C   C2540     1.0  0.45446  0.77178  0.90207  1.0000
  H   H2045     1.0  0.48450  0.76503  0.87437  1.0000
  H   H2046     1.0  0.46534  0.77737  0.85949  1.0000
  H   H2047     1.0  0.43193  0.78171  0.89918  1.0000
  H   H2048     1.0  0.45139  0.77029  0.91390  1.0000
  C   C2541     1.0  0.32777  0.76500  0.88431  1.0000
  C   C2542     1.0  0.40375  0.95780  0.74047  1.0000
  H   H2049     1.0  0.44320  0.97559  0.83210  1.0000
  C   C2543     1.0  0.44508  0.94009  0.87615  1.0000
  H   H2050     1.0  0.27011  0.72969  0.90975  1.0000
  C   C2544     1.0  0.45403  0.96833  0.76895  1.0000
  H   H2051     1.0  0.38312  0.72508  0.95693  1.0000
  C   C2545     1.0  0.39731  0.84749  0.95331  1.0000
  C   C2546     1.0  0.21734  0.66258  0.87352  1.0000
  C   C2547     1.0  0.28408  0.71285  0.94480  1.0000
  C   C2548     1.0  0.31781  0.75649  0.88515  1.0000
  C   C2549     1.0  0.48143  0.81880  0.82048  1.0000
  H   H2052     1.0  0.44831  0.68181  0.93730  1.0000
  H   H2053     1.0  0.27121  0.75017  0.93621  1.0000
  H   H2054     1.0  0.33390  0.69306  0.93693  1.0000
  H   H2055     1.0  0.31098  0.75964  0.87700  1.0000
  C   C2550     1.0  0.45708  0.94425  0.86522  1.0000
  H   H2056     1.0  0.39869  0.79310  0.95674  1.0000
  C   C2551     1.0  0.41134  0.76925  0.93780  1.0000
  H   H2057     1.0  0.42979  0.69906  0.95844  1.0000
  C   C2552     1.0  0.47114  0.80863  0.92449  1.0000
  H   H2058     1.0  0.38205  0.74461  0.93418  1.0000
  C   C2553     1.0  0.40574  0.90862  0.78220  1.0000
  C   C2554     1.0  0.38573  0.86682  0.90605  1.0000
  C   C2555     1.0  0.39483  0.85296  0.90436  1.0000
  C   C2556     1.0  0.39012  0.84353  0.89862  1.0000
  C   C2557     1.0  0.37648  0.84812  0.89412  1.0000
  C   C2558     1.0  0.36753  0.86217  0.89553  1.0000
  C   C2559     1.0  0.37203  0.87141  0.90168  1.0000
  H   H2059     1.0  0.40545  0.84950  0.90765  1.0000
  H   H2060     1.0  0.39714  0.83283  0.89751  1.0000
  H   H2061     1.0  0.35701  0.86584  0.89203  1.0000
  H   H2062     1.0  0.36495  0.88214  0.90295  1.0000
  C   C2560     1.0  0.47204  0.82369  0.88795  1.0000
  H   H2063     1.0  0.49221  0.86235  0.79975  1.0000
  H   H2064     1.0  0.42696  0.93036  0.75932  1.0000
  C   C2561     1.0  0.44762  0.86949  0.80326  1.0000
  H   H2065     1.0  0.30884  0.73754  0.89707  1.0000
  C   C2562     1.0  0.47713  0.80877  0.88721  1.0000
  C   C2563     1.0  0.33579  0.74823  0.90589  1.0000
  S   S358      1.0  0.38936  0.67581  0.97534  1.0000
  H   H2066     1.0  0.34791  0.88364  0.79984  1.0000
  H   H2067     1.0  0.46957  0.80136  0.89172  1.0000
  H   H2068     1.0  0.48178  0.93822  0.88711  1.0000
  C   C2564     1.0  0.48662  0.87545  0.85550  1.0000
  C   C2565     1.0  0.47444  0.88048  0.86634  1.0000
  C   C2566     1.0  0.46807  0.89564  0.86504  1.0000
  C   C2567     1.0  0.47397  0.90575  0.85302  1.0000
  C   C2568     1.0  0.48595  0.90071  0.84210  1.0000
  H   H2069     1.0  0.43721  0.93149  0.89925  1.0000
  H   H2070     1.0  0.46988  0.87262  0.87556  1.0000
  H   H2071     1.0  0.46940  0.91749  0.85219  1.0000
  H   H2072     1.0  0.28878  0.67718  0.88678  1.0000
  C   C2569     1.0  0.48123  0.88871  0.76485  1.0000
  C   C2570     1.0  0.47999  0.87899  0.75689  1.0000
  C   C2571     1.0  0.46805  0.88259  0.74976  1.0000
  P   P85       1.0  0.29030  0.66701  0.91786  1.0000
  H   H2073     1.0  0.39049  0.84467  0.94766  1.0000
  C   C2572     1.0  0.49579  0.85511  0.80953  1.0000
  H   H2074     1.0  0.48853  0.86897  0.75587  1.0000
  C   C2573     1.0  0.42029  0.93588  0.75121  1.0000
  C   C2574     1.0  0.49557  0.81162  0.82346  1.0000
  C   C2575     1.0  0.39154  0.72371  0.94697  1.0000
  H   H2075     1.0  0.44998  0.91535  0.75983  1.0000
  H   H2076     1.0  0.40190  0.75034  0.97910  1.0000
  C   C2576     1.0  0.27898  0.73948  0.93656  1.0000
  C   C2577     1.0  0.37212  0.88620  0.81865  1.0000
  H   H2077     1.0  0.44447  0.85076  0.86966  1.0000
  H   H2078     1.0  0.45865  0.83950  0.94825  1.0000
  C   C2578     1.0  0.27400  0.72660  0.94408  1.0000
  C   C2579     1.0  0.33337  0.73524  0.95563  1.0000
  C   C2580     1.0  0.43704  0.79558  0.93062  1.0000
  H   H2079     1.0  0.46037  0.77294  0.97409  1.0000
  C   C2581     1.0  0.37487  0.79748  0.96398  1.0000
  C   C2582     1.0  0.42936  0.79918  0.94418  1.0000
  H   H2080     1.0  0.44753  0.89809  0.74624  1.0000
  C   C2583     1.0  0.43253  0.95850  0.82097  1.0000
  C   C2584     1.0  0.41847  0.81246  0.94476  1.0000
  C   C2585     1.0  0.37716  0.82244  0.97191  1.0000
  H   H2081     1.0  0.37398  0.78789  0.96072  1.0000
  S   S359      1.0  0.49113  0.91774  0.80360  1.0000
  C   C2586     1.0  0.48992  0.84338  0.83539  1.0000
  C   C2587     1.0  0.40664  0.83640  0.96174  1.0000
  H   H2082     1.0  0.49009  0.84701  0.93481  1.0000
  H   H2083     1.0  0.48188  0.94028  0.82951  1.0000
  H   H2084     1.0  0.46892  0.78716  0.92383  1.0000
  C   C2588     1.0  0.32567  0.73339  0.94606  1.0000
  C   C2589     1.0  0.44621  0.84130  0.85135  1.0000
  C   C2590     1.0  0.32574  0.73964  0.90690  1.0000
  C   C2591     1.0  0.38887  0.80055  0.96163  1.0000
  H   H2085     1.0  0.40349  0.74562  0.86594  1.0000
  C   C2592     1.0  0.48531  0.85261  0.82273  1.0000
  C   C2593     1.0  0.48107  0.81690  0.92435  1.0000
  H   H2086     1.0  0.47625  0.95514  0.80567  1.0000
  C   C2594     1.0  0.44047  0.93182  0.84105  1.0000
  H   H2087     1.0  0.40729  0.72732  0.88887  1.0000
  H   H2088     1.0  0.42700  0.91771  0.74000  1.0000
  C   C2595     1.0  0.39102  0.73478  0.93419  1.0000
  H   H2089     1.0  0.30675  0.70123  0.93898  1.0000
  C   C2596     1.0  0.45525  0.85901  0.97406  1.0000
  H   H2090     1.0  0.44545  0.78543  0.93033  1.0000
  H   H2091     1.0  0.43306  0.76742  0.94164  1.0000
  C   C2597     1.0  0.47157  0.75803  0.95956  1.0000
  H   H2092     1.0  0.34312  0.74520  0.91356  1.0000
  H   H2093     1.0  0.35419  0.71103  0.92680  1.0000
  H   H2094     1.0  0.47708  0.82872  0.92359  1.0000
  H   H2095     1.0  0.35859  0.72362  0.98686  1.0000
  C   C2598     1.0  0.33429  0.70649  0.90027  1.0000
  C   C2599     1.0  0.40565  0.86650  0.95884  1.0000
  S   S360      1.0  0.47157  0.91478  0.77528  1.0000
  C   C2600     1.0  0.47006  0.80866  0.84560  1.0000
  C   C2601     1.0  0.42679  0.73371  0.89012  1.0000
  C   C2602     1.0  0.47935  0.73157  0.87651  1.0000
  C   C2603     1.0  0.23186  0.66364  0.87252  1.0000
  C   C2604     1.0  0.42513  0.68306  0.89631  1.0000
  C   C2605     1.0  0.43834  0.71646  0.96079  1.0000
  C   C2606     1.0  0.48981  0.86481  0.91582  1.0000
  H   H2096     1.0  0.43031  0.67964  0.98881  1.0000
  C   C2607     1.0  0.46157  0.84759  0.98465  1.0000
  H   H2097     1.0  0.44267  0.85989  0.82623  1.0000
  C   C2608     1.0  0.45674  0.85260  0.78657  1.0000
  H   H2098     1.0  0.43890  0.95777  0.78666  1.0000
  C   C2609     1.0  0.31459  0.66289  0.94848  1.0000
  H   H2099     1.0  0.49445  0.77458  0.92634  1.0000
  C   C2610     1.0  0.42248  0.81770  0.91800  1.0000
  C   C2611     1.0  0.34355  0.67985  0.90553  1.0000
  C   C2612     1.0  0.44633  0.93522  0.89089  1.0000
  C   C2613     1.0  0.43979  0.67601  0.89090  1.0000
  H   H2100     1.0  0.29648  0.71838  0.89964  1.0000
  H   H2101     1.0  0.47323  0.76676  0.94990  1.0000
  C   C2614     1.0  0.33660  0.76095  0.89478  1.0000
  S   S361      1.0  0.41364  0.96000  0.76357  1.0000
  H   H2102     1.0  0.43876  0.81271  0.96595  1.0000
  H   H2103     1.0  0.28027  0.70285  0.95075  1.0000
  C   C2615     1.0  0.47645  0.74327  0.95828  1.0000
  C   C2616     1.0  0.45303  0.69173  0.95935  1.0000
  H   H2104     1.0  0.47798  0.84476  0.88261  1.0000
  H   H2105     1.0  0.30690  0.67268  0.86377  1.0000
  H   H2106     1.0  0.46067  0.85082  0.77536  1.0000
  H   H2107     1.0  0.45722  0.69980  0.91619  1.0000
  C   C2617     1.0  0.44040  0.66646  0.93078  1.0000
  C   C2618     1.0  0.44965  0.93475  0.82710  1.0000
  H   H2108     1.0  0.37704  0.94100  0.73975  1.0000
  H   H2109     1.0  0.35449  0.73000  0.96200  1.0000
  C   C2619     1.0  0.36879  0.89017  0.78976  1.0000
  Fe  Fe182     1.0  0.41137  0.98369  0.75156  1.0000
  C   C2620     1.0  0.28375  0.68685  0.91554  1.0000
  C   C2621     1.0  0.46179  0.75024  0.98565  1.0000
  H   H2110     1.0  0.26235  0.72727  0.94948  1.0000
  H   H2111     1.0  0.42017  0.93983  0.85587  1.0000
  C   C2622     1.0  0.49694  0.80313  0.83752  1.0000
  P   P86       1.0  0.48628  0.94835  0.85506  1.0000
  C   C2623     1.0  0.30738  0.66851  0.93660  1.0000
  C   C2624     1.0  0.29368  0.69605  0.90778  1.0000
  H   H2112     1.0  0.44268  0.75990  0.86423  1.0000
  C   C2625     1.0  0.27391  0.71776  0.91136  1.0000
  C   C2626     1.0  0.26398  0.70871  0.91918  1.0000
  C   C2627     1.0  0.26886  0.69330  0.92128  1.0000
  C   C2628     1.0  0.49217  0.88557  0.84320  1.0000
  C   C2629     1.0  0.49241  0.97765  0.87548  1.0000
  H   H2113     1.0  0.44361  0.92158  0.84880  1.0000
  C   C2630     1.0  0.42048  0.83161  0.86769  1.0000
  H   H2114     1.0  0.43978  0.90858  0.78725  1.0000
  H   H2115     1.0  0.47364  0.85783  0.82312  1.0000
  H   H2116     1.0  0.42110  0.76205  0.85361  1.0000
  C   C2631     1.0  0.48417  0.80148  0.84847  1.0000
  H   H2117     1.0  0.47830  0.98056  0.84315  1.0000
  H   H2118     1.0  0.30835  0.67927  0.92983  1.0000
  C   C2632     1.0  0.34846  0.72830  0.95482  1.0000
  C   C2633     1.0  0.42043  0.92882  0.74021  1.0000
  H   H2119     1.0  0.39733  0.96903  0.74045  1.0000
  C   C2634     1.0  0.49201  0.80323  0.88092  1.0000
  C   C2635     1.0  0.42733  0.94216  0.84505  1.0000
  C   C2636     1.0  0.27468  0.65843  0.92141  1.0000
  H   H2120     1.0  0.38303  0.75694  0.96404  1.0000
  H   H2121     1.0  0.42131  0.85880  0.97311  1.0000
  C   C2637     1.0  0.34011  0.69313  0.89544  1.0000
  H   H2122     1.0  0.25245  0.71361  0.92358  1.0000
  H   H2123     1.0  0.26095  0.68653  0.92729  1.0000
  H   H2124     1.0  0.40601  0.83137  0.93150  1.0000
  P   P87       1.0  0.42995  0.71973  0.90639  1.0000
  H   H2125     1.0  0.45786  0.70080  0.89284  1.0000
  C   C2638     1.0  0.28875  0.71142  0.90569  1.0000
  H   H2126     1.0  0.48070  0.82563  0.80966  1.0000
  C   C2639     1.0  0.39495  0.94133  0.82299  1.0000
  C   C2640     1.0  0.38168  0.94028  0.82031  1.0000
  C   C2641     1.0  0.37791  0.92655  0.82397  1.0000
  C   C2642     1.0  0.38734  0.91390  0.83045  1.0000
  C   C2643     1.0  0.40078  0.91482  0.83303  1.0000
  C   C2644     1.0  0.40439  0.92867  0.82941  1.0000
  P   P88       1.0  0.41170  0.89911  0.84359  1.0000
  C   C2645     1.0  0.40651  0.90281  0.86193  1.0000
  C   C2646     1.0  0.40717  0.88236  0.84303  1.0000
  C   C2647     1.0  0.40034  0.87351  0.85579  1.0000
  C   C2648     1.0  0.39669  0.86081  0.85482  1.0000
  C   C2649     1.0  0.40028  0.85652  0.84131  1.0000
  C   C2650     1.0  0.40751  0.86501  0.82866  1.0000
  C   C2651     1.0  0.41085  0.87794  0.82950  1.0000
  C   C2652     1.0  0.41697  0.90524  0.86827  1.0000
  C   C2653     1.0  0.41255  0.90890  0.88216  1.0000
  C   C2654     1.0  0.39774  0.91006  0.88985  1.0000
  C   C2655     1.0  0.38724  0.90784  0.88354  1.0000
  C   C2656     1.0  0.39154  0.90442  0.86956  1.0000
  C   C2657     1.0  0.43162  0.89616  0.83636  1.0000
  C   C2658     1.0  0.43770  0.90438  0.82272  1.0000
  C   C2659     1.0  0.45314  0.90139  0.81714  1.0000
  C   C2660     1.0  0.46259  0.89006  0.82504  1.0000
  C   C2661     1.0  0.45657  0.88162  0.83846  1.0000
  C   C2662     1.0  0.44117  0.88463  0.84409  1.0000
  H   H2127     1.0  0.39790  0.95196  0.82009  1.0000
  H   H2128     1.0  0.37438  0.95011  0.81531  1.0000
  H   H2129     1.0  0.36757  0.92576  0.82198  1.0000
  H   H2130     1.0  0.38389  0.90352  0.83382  1.0000
  H   H2131     1.0  0.41443  0.92969  0.83171  1.0000
  H   H2132     1.0  0.39793  0.87615  0.86656  1.0000
  H   H2133     1.0  0.39134  0.85405  0.86467  1.0000
  H   H2134     1.0  0.39765  0.84647  0.84080  1.0000
  H   H2135     1.0  0.41056  0.86155  0.81824  1.0000
  H   H2136     1.0  0.41637  0.88449  0.81959  1.0000
  H   H2137     1.0  0.42855  0.90422  0.86268  1.0000
  H   H2138     1.0  0.42070  0.91048  0.88714  1.0000
  H   H2139     1.0  0.39449  0.91222  0.90089  1.0000
  H   H2140     1.0  0.37584  0.90836  0.88973  1.0000
  H   H2141     1.0  0.38322  0.90279  0.86484  1.0000
  H   H2142     1.0  0.43066  0.91303  0.81630  1.0000
  H   H2143     1.0  0.45784  0.90786  0.80667  1.0000
  H   H2144     1.0  0.47458  0.88784  0.82078  1.0000
  H   H2145     1.0  0.46386  0.87280  0.84458  1.0000
  H   H2146     1.0  0.43671  0.87801  0.85456  1.0000
  C   C2663     1.0  0.40301  0.71096  0.94694  1.0000
  C   C2664     1.0  0.41422  0.70948  0.93425  1.0000
  C   C2665     1.0  0.44379  0.72231  0.91438  1.0000
  C   C2666     1.0  0.45583  0.71072  0.91791  1.0000
  C   C2667     1.0  0.46630  0.71299  0.92415  1.0000
  C   C2668     1.0  0.46441  0.72657  0.92780  1.0000
  C   C2669     1.0  0.45181  0.73776  0.92548  1.0000
  C   C2670     1.0  0.44161  0.73577  0.91860  1.0000
  H   H2147     1.0  0.40330  0.70228  0.95679  1.0000
  H   H2148     1.0  0.42326  0.69970  0.93445  1.0000
  H   H2149     1.0  0.47580  0.70407  0.92614  1.0000
  H   H2150     1.0  0.47256  0.72842  0.93258  1.0000
  H   H2151     1.0  0.45003  0.74796  0.92901  1.0000
  H   H2152     1.0  0.43194  0.74466  0.91676  1.0000
  C   C2671     1.0  0.41442  0.85564  0.96776  1.0000
  C   C2672     1.0  0.38528  0.92232  0.75598  1.0000
  C   C2673     1.0  0.38895  0.90682  0.76039  1.0000
  H   H2153     1.0  0.45399  0.68051  0.95856  1.0000
  C   C2674     1.0  0.42995  0.86851  0.75580  1.0000
  C   C2675     1.0  0.48690  0.75537  0.83844  1.0000
  P   P89       1.0  0.49122  0.72483  0.84892  1.0000
  H   H2154     1.0  0.41393  0.77463  0.92629  1.0000
  H   H2155     1.0  0.45994  0.92679  0.82409  1.0000
  C   C2676     1.0  0.45697  0.89544  0.75134  1.0000
  C   C2677     1.0  0.45155  0.68245  0.88973  1.0000
  C   C2678     1.0  0.45347  0.73404  0.83261  1.0000
  H   H2156     1.0  0.45323  0.95004  0.80650  1.0000
  C   C2679     1.0  0.30363  0.66347  0.90114  1.0000
  C   C2680     1.0  0.46337  0.71777  0.85831  1.0000
  H   H2157     1.0  0.48376  0.77909  0.83188  1.0000
  C   C2681     1.0  0.45589  0.84061  0.79859  1.0000
  H   H2158     1.0  0.45649  0.84460  0.84546  1.0000
  H   H2159     1.0  0.34435  0.76756  0.89411  1.0000
  H   H2160     1.0  0.47508  0.75593  0.84272  1.0000
  Fe  Fe183     1.0  0.49321  0.91210  0.78191  1.0000
  C   C2682     1.0  0.45105  0.84296  0.81309  1.0000
  H   H2161     1.0  0.30526  0.69133  0.90333  1.0000
  H   H2162     1.0  0.48188  0.74082  0.94749  1.0000
  C   C2683     1.0  0.46436  0.76150  0.97325  1.0000
  H   H2163     1.0  0.46719  0.71125  0.86819  1.0000
  H   H2164     1.0  0.32879  0.77468  0.87552  1.0000
  H   H2165     1.0  0.43185  0.79133  0.95411  1.0000
  C   C2684     1.0  0.39393  0.75933  0.95908  1.0000
  C   C2685     1.0  0.42226  0.69627  0.90103  1.0000
  H   H2166     1.0  0.45968  0.81407  0.92378  1.0000
  H   H2167     1.0  0.45635  0.96000  0.76251  1.0000
  C   C2686     1.0  0.45819  0.90507  0.75931  1.0000
  C   C2687     1.0  0.44902  0.71835  0.85694  1.0000
  C   C2688     1.0  0.47614  0.79347  0.92482  1.0000
  C   C2689     1.0  0.42207  0.76542  0.94647  1.0000
  H   H2168     1.0  0.31412  0.73918  0.94659  1.0000
  H   H2169     1.0  0.41333  0.96342  0.83851  1.0000
  C   C2690     1.0  0.39011  0.81312  0.96550  1.0000
  C   C2691     1.0  0.40230  0.73340  0.92154  1.0000
  C   C2692     1.0  0.33538  0.69323  0.92534  1.0000
  H   H2170     1.0  0.44588  0.74265  0.88777  1.0000
  H   H2171     1.0  0.42780  0.72459  0.96084  1.0000
  H   H2172     1.0  0.41994  0.82478  0.90778  1.0000
  C   C2693     1.0  0.45950  0.84178  0.95835  1.0000
  H   H2173     1.0  0.46964  0.73802  0.87217  1.0000
  C   C2694     1.0  0.43372  0.80486  0.91753  1.0000
  C   C2695     1.0  0.41500  0.73449  0.88368  1.0000
  C   C2696     1.0  0.49284  0.72455  0.89617  1.0000
  H   H2174     1.0  0.29775  0.74876  0.92426  1.0000
  C   C2697     1.0  0.41295  0.74469  0.87055  1.0000
  H   H2175     1.0  0.40208  0.74239  0.91202  1.0000
  C   C2698     1.0  0.36203  0.80683  0.97029  1.0000
  C   C2699     1.0  0.41395  0.72071  0.92148  1.0000
  C   C2700     1.0  0.49677  0.82769  0.87530  1.0000
  H   H2176     1.0  0.48261  0.87290  0.92215  1.0000
  C   C2701     1.0  0.45415  0.85616  0.96092  1.0000
  C   C2702     1.0  0.42288  0.75392  0.86358  1.0000
  H   H2177     1.0  0.49118  0.91702  0.87161  1.0000
  C   C2703     1.0  0.40496  0.93083  0.78996  1.0000
  C   C2704     1.0  0.47042  0.94365  0.86905  1.0000
  C   C2705     1.0  0.49076  0.78637  0.92598  1.0000
  H   H2178     1.0  0.38950  0.88629  0.75482  1.0000
  H   H2179     1.0  0.37784  0.83208  0.97515  1.0000
  C   C2706     1.0  0.47994  0.73180  0.89073  1.0000
  C   C2707     1.0  0.47944  0.95224  0.82766  1.0000
  C   C2708     1.0  0.44096  0.81508  0.82489  1.0000
  S   S362      1.0  0.48008  0.67219  0.93275  1.0000
  H   H2180     1.0  0.47396  0.97000  0.87406  1.0000
  H   H2181     1.0  0.48193  0.84130  0.84569  1.0000
  C   C2709     1.0  0.44413  0.96712  0.78270  1.0000
  C   C2710     1.0  0.48188  0.83320  0.88208  1.0000
  H   H2182     1.0  0.42504  0.83290  0.81453  1.0000
  H   H2183     1.0  0.41083  0.81642  0.81164  1.0000
  C   C2711     1.0  0.41843  0.75939  0.96156  1.0000
  C   C2712     1.0  0.47276  0.72558  0.84697  1.0000
  C   C2713     1.0  0.46667  0.66520  0.92882  1.0000
  C   C2714     1.0  0.42862  0.82105  0.81817  1.0000
  C   C2715     1.0  0.42050  0.81177  0.81661  1.0000
  C   C2716     1.0  0.49411  0.85007  0.92298  1.0000
  C   C2717     1.0  0.44403  0.72655  0.84414  1.0000
  C   C2718     1.0  0.35775  0.88565  0.80175  1.0000
  H   H2184     1.0  0.36733  0.89152  0.77869  1.0000
  C   C2719     1.0  0.46785  0.73346  0.83396  1.0000
  H   H2185     1.0  0.39905  0.94179  0.79176  1.0000
  H   H2186     1.0  0.41795  0.78935  0.82114  1.0000
  C   C2720     1.0  0.42451  0.79650  0.82194  1.0000
  C   C2721     1.0  0.42338  0.95544  0.83508  1.0000
  C   C2722     1.0  0.47594  0.96062  0.81422  1.0000
  C   C2723     1.0  0.41228  0.95049  0.75109  1.0000
  C   C2724     1.0  0.42722  0.82813  0.85387  1.0000
  H   H2187     1.0  0.42261  0.82114  0.85010  1.0000
  C   C2725     1.0  0.43670  0.79050  0.82875  1.0000
  C   C2726     1.0  0.45155  0.67202  0.93281  1.0000
  C   C2727     1.0  0.42094  0.90365  0.78286  1.0000
  P   P90       1.0  0.45012  0.82730  0.82852  1.0000
  C   C2728     1.0  0.49152  0.72364  0.86777  1.0000
  C   C2729     1.0  0.42798  0.91221  0.78716  1.0000
  H   H2188     1.0  0.42580  0.93312  0.79251  1.0000
  H   H2189     1.0  0.43949  0.77874  0.83341  1.0000
  H   H2190     1.0  0.41076  0.82747  0.87420  1.0000
  S   S363      1.0  0.38761  0.66256  0.91761  1.0000
  H   H2191     1.0  0.21022  0.67110  0.86695  1.0000
  H   H2192     1.0  0.47513  0.73912  0.82486  1.0000
  C   C2730     1.0  0.43937  0.84488  0.86505  1.0000
  H   H2193     1.0  0.42158  0.84246  0.88409  1.0000
  C   C2731     1.0  0.42651  0.84005  0.87324  1.0000
  C   C2732     1.0  0.44010  0.83307  0.84554  1.0000
  H   H2194     1.0  0.42084  0.84422  0.78787  1.0000
  C   C2733     1.0  0.41982  0.88138  0.75919  1.0000
  C   C2734     1.0  0.43946  0.70213  0.95936  1.0000
  C   C2735     1.0  0.43037  0.85515  0.76615  1.0000
  H   H2195     1.0  0.40249  0.86675  0.79388  1.0000
  C   C2736     1.0  0.35944  0.88361  0.81618  1.0000
  H   H2196     1.0  0.35095  0.87995  0.82546  1.0000
  C   C2737     1.0  0.38158  0.89279  0.79216  1.0000
  C   C2738     1.0  0.46854  0.81746  0.83159  1.0000
  C   C2739     1.0  0.41014  0.86743  0.78326  1.0000
  H   H2197     1.0  0.39285  0.89285  0.80877  1.0000
  H   H2198     1.0  0.49079  0.70295  0.94021  1.0000
  H   H2199     1.0  0.48518  0.79472  0.85930  1.0000
  H   H2200     1.0  0.43838  0.84525  0.76345  1.0000
  H   H2201     1.0  0.45383  0.79487  0.83617  1.0000
  C   C2740     1.0  0.40969  0.88090  0.77287  1.0000
  C   C2741     1.0  0.38309  0.89089  0.80669  1.0000
  H   H2202     1.0  0.37347  0.88443  0.82986  1.0000
  C   C2742     1.0  0.48050  0.95926  0.83823  1.0000
  H   H2203     1.0  0.45115  0.87012  0.97608  1.0000
  C   C2743     1.0  0.42050  0.85461  0.77989  1.0000
  H   H2204     1.0  0.37095  0.86932  0.97327  1.0000
  C   C2744     1.0  0.29979  0.67020  0.88738  1.0000
  H   H2205     1.0  0.46033  0.80739  0.85443  1.0000
  H   H2206     1.0  0.38731  0.92938  0.76183  1.0000
  C   C2745     1.0  0.45071  0.72024  0.96259  1.0000
  C   C2746     1.0  0.41832  0.80507  0.97622  1.0000
  C   C2747     1.0  0.41485  0.84069  0.96933  1.0000
  H   H2207     1.0  0.47060  0.73814  0.89733  1.0000
  C   C2748     1.0  0.39145  0.98056  0.79223  1.0000
  H   H2208     1.0  0.39880  0.98648  0.82758  1.0000
  C   C2749     1.0  0.36624  0.86192  0.98295  1.0000
  C   C2750     1.0  0.47385  0.98313  0.82191  1.0000
  H   H2209     1.0  0.40583  0.87803  0.95719  1.0000
  H   H2210     1.0  0.49070  0.88613  0.76985  1.0000
  H   H2211     1.0  0.49073  0.90860  0.83313  1.0000
  C   C2751     1.0  0.31005  0.66775  0.87432  1.0000
  C   C2752     1.0  0.40460  0.75570  0.96768  1.0000
  C   C2753     1.0  0.45953  0.93470  0.89480  1.0000
  C   C2754     1.0  0.40903  0.97968  0.80671  1.0000
  H   H2212     1.0  0.49835  0.67544  0.96703  1.0000
  H   H2213     1.0  0.35122  0.80444  0.97195  1.0000
  H   H2214     1.0  0.36476  0.70220  0.97455  1.0000
  C   C2755     1.0  0.49619  0.98203  0.77056  1.0000
  H   H2215     1.0  0.41983  0.89169  0.75105  1.0000
  H   H2216     1.0  0.42887  0.67175  0.93416  1.0000
  H   H2217     1.0  0.42180  0.83271  0.97632  1.0000
  C   C2756     1.0  0.49702  0.71166  0.95545  1.0000
  H   H2218     1.0  0.46055  0.93070  0.90622  1.0000
  H   H2219     1.0  0.32775  0.74225  0.96353  1.0000
  H   H2220     1.0  0.44202  0.66545  0.88784  1.0000
  H   H2221     1.0  0.45600  0.94762  0.85382  1.0000
  H   H2222     1.0  0.47938  0.66061  0.97181  1.0000
  C   C2757     1.0  0.49397  0.86891  0.90045  1.0000
  P   P91       1.0  0.42799  0.97647  0.80893  1.0000
  H   H2223     1.0  0.40058  0.79386  0.98845  1.0000
  C   C2758     1.0  0.43062  0.66540  0.97485  1.0000
  H   H2224     1.0  0.23608  0.67292  0.86512  1.0000
  P   P92       1.0  0.47931  0.71305  0.96848  1.0000
  H   H2225     1.0  0.46826  0.98148  0.75264  1.0000
  H   H2226     1.0  0.49142  0.86370  0.85641  1.0000
  H   H2227     1.0  0.26738  0.66014  0.94440  1.0000
  C   C2759     1.0  0.48594  0.96890  0.87078  1.0000
  H   H2228     1.0  0.45183  0.95041  0.74195  1.0000
  C   C2760     1.0  0.39693  0.98453  0.81776  1.0000
  H   H2229     1.0  0.49005  0.88021  0.89486  1.0000
  C   C2761     1.0  0.49485  0.95898  0.86178  1.0000
  H   H2230     1.0  0.43752  0.86891  0.74510  1.0000
  H   H2231     1.0  0.47584  0.68737  0.96068  1.0000
  H   H2232     1.0  0.42308  0.67371  0.96853  1.0000
  H   H2233     1.0  0.45278  0.79602  0.98443  1.0000
  C   C2762     1.0  0.44086  0.97798  0.79108  1.0000
  C   C2763     1.0  0.40612  0.97776  0.79393  1.0000
  C   C2764     1.0  0.47751  0.97481  0.83530  1.0000
  H   H2234     1.0  0.35322  0.82656  0.97917  1.0000
  C   C2765     1.0  0.49179  0.76855  0.83248  1.0000
  H   H2235     1.0  0.49349  0.72535  0.90697  1.0000
  H   H2236     1.0  0.49568  0.79164  0.88062  1.0000
  C   C2766     1.0  0.36859  0.71502  0.98796  1.0000
  H   H2237     1.0  0.36819  0.98809  0.80160  1.0000
  C   C2767     1.0  0.46075  0.98040  0.76340  1.0000
  C   C2768     1.0  0.43457  0.66868  0.98634  1.0000
  C   C2769     1.0  0.37952  0.98547  0.80320  1.0000
  C   C2770     1.0  0.49727  0.74166  0.83939  1.0000
  H   H2238     1.0  0.38940  0.97927  0.78217  1.0000
  C   C2771     1.0  0.41176  0.79480  0.98765  1.0000
  H   H2239     1.0  0.19553  0.66080  0.93628  1.0000
  H   H2240     1.0  0.48548  0.98529  0.88241  1.0000
  C   C2772     1.0  0.44132  0.79565  0.98533  1.0000
  C   C2773     1.0  0.38225  0.98742  0.81599  1.0000
  H   H2241     1.0  0.49201  0.98399  0.76067  1.0000
  H   H2242     1.0  0.48396  0.93311  0.74087  1.0000
  H   H2243     1.0  0.47089  0.98247  0.80075  1.0000
  C   C2774     1.0  0.32430  0.65878  0.87489  1.0000
  C   C2775     1.0  0.46676  0.73542  0.98446  1.0000
  C   C2776     1.0  0.35156  0.86071  0.98501  1.0000
  C   C2777     1.0  0.43687  0.98676  0.82895  1.0000
  C   C2778     1.0  0.44764  0.99013  0.78532  1.0000
  C   C2779     1.0  0.48068  0.69958  0.98554  1.0000
  C   C2780     1.0  0.42856  0.99040  0.81796  1.0000
  C   C2781     1.0  0.38134  0.90504  0.73888  1.0000
  C   C2782     1.0  0.61866  0.03066  0.15541  1.0000
  S   S364      1.0  0.55872  0.01773  0.16705  1.0000
  Fe  Fe184     1.0  0.58184  0.01215  0.17115  1.0000
  S   S365      1.0  0.56136  0.03251  0.12421  1.0000
  H   H2244     1.0  0.59885  0.04720  0.16130  1.0000
  C   C2783     1.0  0.50821  0.00350  0.23073  1.0000
  H   H2245     1.0  0.56851  0.01446  0.03696  1.0000
  H   H2246     1.0  0.68593  0.04066  0.14935  1.0000
  H   H2247     1.0  0.63446  0.02556  0.12034  1.0000
  C   C2784     1.0  0.52515  0.06662  0.09454  1.0000
  C   C2785     1.0  0.53596  0.30699  0.00435  1.0000
  C   C2786     1.0  0.52988  0.00902  0.13423  1.0000
  C   C2787     1.0  0.51883  0.10308  0.04105  1.0000
  P   P93       1.0  0.50400  0.09722  0.05605  1.0000
  C   C2788     1.0  0.60463  0.04800  0.13789  1.0000
  H   H2248     1.0  0.55140  0.04719  0.00176  1.0000
  C   C2789     1.0  0.53828  0.19683  0.02553  1.0000
  C   C2790     1.0  0.56103  0.03170  0.01937  1.0000
  H   H2249     1.0  0.53615  0.01209  0.23379  1.0000
  C   C2791     1.0  0.51688  0.01750  0.19432  1.0000
  C   C2792     1.0  0.52928  0.00608  0.19137  1.0000
  H   H2250     1.0  0.52511  0.00152  0.14377  1.0000
  H   H2251     1.0  0.62088  0.30506  0.00495  1.0000
  H   H2252     1.0  0.51817  0.02686  0.19753  1.0000
  H   H2253     1.0  0.58649  0.29424  0.99445  1.0000
  C   C2793     1.0  0.54687  0.02542  0.12303  1.0000
  C   C2794     1.0  0.52543  0.01188  0.12089  1.0000
  C   C2795     1.0  0.53139  0.02183  0.10869  1.0000
  C   C2796     1.0  0.54233  0.02842  0.10968  1.0000
  H   H2254     1.0  0.52785  0.02406  0.09842  1.0000
  H   H2255     1.0  0.54754  0.03550  0.10008  1.0000
  H   H2256     1.0  0.61997  0.02649  0.16673  1.0000
  C   C2797     1.0  0.67667  0.99660  0.23394  1.0000
  H   H2257     1.0  0.54534  0.01385  0.05888  1.0000
  Fe  Fe185     1.0  0.50137  0.01432  0.10067  1.0000
  H   H2258     1.0  0.66851  0.03201  0.17240  1.0000
  H   H2259     1.0  0.53556  0.03126  0.00091  1.0000
  H   H2260     1.0  0.56784  0.03876  0.01981  1.0000
  H   H2261     1.0  0.54232  0.28481  0.03730  1.0000
  H   H2262     1.0  0.50126  0.15034  0.02183  1.0000
  C   C2798     1.0  0.50209  0.10065  0.12756  1.0000
  C   C2799     1.0  0.51926  0.04523  0.21508  1.0000
  S   S366      1.0  0.51229  0.00305  0.11976  1.0000
  H   H2263     1.0  0.50086  0.03326  0.03623  1.0000
  C   C2800     1.0  0.54328  0.05843  0.14930  1.0000
  H   H2264     1.0  0.66698  0.02222  0.12491  1.0000
  H   H2265     1.0  0.52148  0.00771  0.04502  1.0000
  C   C2801     1.0  0.52092  0.03247  0.22638  1.0000
  H   H2266     1.0  0.68504  0.03579  0.12564  1.0000
  C   C2802     1.0  0.65797  0.01857  0.14848  1.0000
  H   H2267     1.0  0.55654  0.09285  0.02833  1.0000
  C   C2803     1.0  0.51539  0.18863  0.02968  1.0000
  H   H2268     1.0  0.61300  0.04603  0.11522  1.0000
  H   H2269     1.0  0.51796  0.00617  0.22283  1.0000
  S   S367      1.0  0.55859  0.20879  0.99079  1.0000
  H   H2270     1.0  0.51941  0.08594  0.10375  1.0000
  H   H2271     1.0  0.54342  0.01396  0.14585  1.0000
  H   H2272     1.0  0.53056  0.06212  0.02755  1.0000
  H   H2273     1.0  0.62885  0.99913  0.13156  1.0000
  H   H2274     1.0  0.50853  0.30853  0.99590  1.0000
  C   C2804     1.0  0.51602  0.04703  0.03355  1.0000
  H   H2275     1.0  0.52330  0.07442  0.00365  1.0000
  H   H2276     1.0  0.50234  0.06460  0.12236  1.0000
  C   C2805     1.0  0.67768  0.03170  0.13576  1.0000
  C   C2806     1.0  0.60940  0.01355  0.20207  1.0000
  C   C2807     1.0  0.51372  0.99321  0.18594  1.0000
  H   H2277     1.0  0.51849  0.06559  0.06198  1.0000
  H   H2278     1.0  0.50065  0.04109  0.11821  1.0000
  S   S368      1.0  0.58836  0.02355  0.18518  1.0000
  C   C2808     1.0  0.53377  0.09530  0.04068  1.0000
  C   C2809     1.0  0.51217  0.08525  0.07120  1.0000
  C   C2810     1.0  0.68010  0.00202  0.21867  1.0000
  H   H2279     1.0  0.67554  0.00307  0.19764  1.0000
  C   C2811     1.0  0.55203  0.00902  0.02901  1.0000
  C   C2812     1.0  0.51449  0.21449  0.02786  1.0000
  C   C2813     1.0  0.52237  0.05861  0.02430  1.0000
  H   H2280     1.0  0.59513  0.05691  0.13561  1.0000
  S   S369      1.0  0.49915  0.03799  0.08876  1.0000
  H   H2281     1.0  0.55182  0.04886  0.14654  1.0000
  C   C2814     1.0  0.50280  0.01674  0.19345  1.0000
  C   C2815     1.0  0.52649  0.31944  0.00959  1.0000
  C   C2816     1.0  0.61467  0.04182  0.12642  1.0000
  H   H2282     1.0  0.50868  0.05318  0.21518  1.0000
  H   H2283     1.0  0.62666  0.00510  0.21467  1.0000
  H   H2284     1.0  0.52426  0.12716  0.00775  1.0000
  C   C2817     1.0  0.54168  0.11056  0.01681  1.0000
  C   C2818     1.0  0.54511  0.09905  0.02864  1.0000
  C   C2819     1.0  0.53793  0.29450  0.02955  1.0000
  H   H2285     1.0  0.53569  0.22015  0.02373  1.0000
  C   C2820     1.0  0.50581  0.18441  0.00161  1.0000
  C   C2821     1.0  0.56124  0.01799  0.02918  1.0000
  H   H2286     1.0  0.53005  0.05941  0.10362  1.0000
  H   H2287     1.0  0.52961  0.04934  0.08258  1.0000
  H   H2288     1.0  0.61642  0.00047  0.16525  1.0000
  H   H2289     1.0  0.50185  0.06291  0.18004  1.0000
  H   H2290     1.0  0.65044  0.01837  0.17188  1.0000
  C   C2822     1.0  0.51265  0.09093  0.08299  1.0000
  S   S370      1.0  0.57158  0.99285  0.14617  1.0000
  H   H2291     1.0  0.53292  0.15382  0.02005  1.0000
  C   C2823     1.0  0.65098  0.99799  0.13419  1.0000
  C   C2824     1.0  0.53473  0.02217  0.22546  1.0000
  H   H2292     1.0  0.55036  0.19440  0.02344  1.0000
  C   C2825     1.0  0.54170  0.29453  0.01445  1.0000
  C   C2826     1.0  0.51557  0.11457  0.02899  1.0000
  C   C2827     1.0  0.53002  0.21130  0.02576  1.0000
  C   C2828     1.0  0.67310  0.99864  0.20943  1.0000
  H   H2293     1.0  0.55775  0.06662  0.15714  1.0000
  C   C2829     1.0  0.62125  0.31415  0.00929  1.0000
  C   C2830     1.0  0.52693  0.11840  0.01706  1.0000
  C   C2831     1.0  0.51849  0.07021  0.07108  1.0000
  H   H2294     1.0  0.62671  0.29984  0.02950  1.0000
  C   C2832     1.0  0.50150  0.15792  0.99881  1.0000
  C   C2833     1.0  0.59040  0.99948  0.20842  1.0000
  C   C2834     1.0  0.62476  0.31111  0.02316  1.0000
  C   C2835     1.0  0.60672  0.04253  0.15235  1.0000
  S   S371      1.0  0.59297  0.01380  0.14716  1.0000
  H   H2295     1.0  0.61411  0.02276  0.19530  1.0000
  C   C2836     1.0  0.54036  0.01601  0.13537  1.0000
  C   C2837     1.0  0.50479  0.17263  0.01391  1.0000
  H   H2296     1.0  0.50418  0.12031  0.02851  1.0000
  C   C2838     1.0  0.50246  0.15945  0.01244  1.0000
  C   C2839     1.0  0.53557  0.08071  0.15901  1.0000
  Fe  Fe186     1.0  0.56210  0.99310  0.17006  1.0000
  H   H2297     1.0  0.51261  0.09224  0.16002  1.0000
  H   H2298     1.0  0.53997  0.00649  0.19276  1.0000
  C   C2840     1.0  0.62671  0.03004  0.12942  1.0000
  S   S372      1.0  0.51648  0.23467  0.99388  1.0000
  H   H2299     1.0  0.55041  0.11331  0.00735  1.0000
  H   H2300     1.0  0.51183  0.10032  0.13138  1.0000
  C   C2841     1.0  0.50760  0.06119  0.00650  1.0000
  C   C2842     1.0  0.51909  0.08161  0.09463  1.0000
  H   H2301     1.0  0.53677  0.08611  0.04949  1.0000
  H   H2302     1.0  0.55717  0.01647  0.21277  1.0000
  S   S373      1.0  0.50160  0.07059  0.99002  1.0000
  C   C2843     1.0  0.51816  0.06567  0.01081  1.0000
  H   H2303     1.0  0.52552  0.30685  0.04638  1.0000
  C   C2844     1.0  0.53103  0.18556  0.02732  1.0000
  C   C2845     1.0  0.53756  0.13566  0.03802  1.0000
  H   H2304     1.0  0.52667  0.05241  0.14256  1.0000
  C   C2846     1.0  0.66752  0.02390  0.13540  1.0000
  H   H2305     1.0  0.53939  0.11871  0.05769  1.0000
  H   H2306     1.0  0.54756  0.13012  0.03131  1.0000
  H   H2307     1.0  0.68795  0.00912  0.21405  1.0000
  C   C2847     1.0  0.64075  0.99476  0.12819  1.0000
  C   C2848     1.0  0.54661  0.06845  0.15530  1.0000
  C   C2849     1.0  0.63988  0.99666  0.16531  1.0000
  C   C2850     1.0  0.61649  0.00356  0.21302  1.0000
  C   C2851     1.0  0.50560  0.04235  0.02920  1.0000
  C   C2852     1.0  0.50720  0.20325  0.02964  1.0000
  C   C2853     1.0  0.51770  0.07274  0.15090  1.0000
  C   C2854     1.0  0.52116  0.08285  0.15682  1.0000
  S   S374      1.0  0.52189  0.03813  0.05012  1.0000
  C   C2855     1.0  0.52892  0.06054  0.14703  1.0000
  C   C2856     1.0  0.65825  0.02171  0.16180  1.0000
  C   C2857     1.0  0.55183  0.03642  0.00915  1.0000
  H   H2308     1.0  0.49975  0.14765  0.99795  1.0000
  H   H2309     1.0  0.58042  0.99778  0.20653  1.0000
  H   H2310     1.0  0.53617  0.00686  0.01779  1.0000
  H   H2311     1.0  0.50810  0.10253  0.08319  1.0000
  C   C2858     1.0  0.52021  0.13664  0.06149  1.0000
  H   H2312     1.0  0.54902  0.28478  0.01076  1.0000
  C   C2859     1.0  0.54662  0.02456  0.21353  1.0000
  H   H2313     1.0  0.50749  0.19476  0.00245  1.0000
  C   C2860     1.0  0.53299  0.12930  0.05289  1.0000
  S   S375      1.0  0.56101  0.16665  0.99562  1.0000
  C   C2861     1.0  0.51641  0.15670  0.04024  1.0000
  C   C2862     1.0  0.52490  0.06095  0.08273  1.0000
  Fe  Fe187     1.0  0.57004  0.01699  0.14355  1.0000
  H   H2314     1.0  0.54993  0.01325  0.08295  1.0000
  P   P94       1.0  0.64433  0.00923  0.14791  1.0000
  H   H2315     1.0  0.50817  0.22581  0.02734  1.0000
  H   H2316     1.0  0.53812  0.08845  0.16373  1.0000
  C   C2863     1.0  0.53117  0.04757  0.20313  1.0000
  C   C2864     1.0  0.54484  0.03722  0.20234  1.0000
  S   S376      1.0  0.51156  0.10509  0.99698  1.0000
  C   C2865     1.0  0.50152  0.04933  0.01559  1.0000
  H   H2317     1.0  0.50459  0.12019  0.11059  1.0000
  C   C2866     1.0  0.59651  0.01137  0.19955  1.0000
  H   H2318     1.0  0.52969  0.05721  0.19426  1.0000
  H   H2319     1.0  0.55401  0.03885  0.19297  1.0000
  S   S377      1.0  0.50882  0.00512  0.08028  1.0000
  C   C2867     1.0  0.55354  0.00326  0.07864  1.0000
  C   C2868     1.0  0.66839  0.02954  0.16212  1.0000
  C   C2869     1.0  0.52923  0.14917  0.03167  1.0000
  C   C2870     1.0  0.54289  0.02742  0.00867  1.0000
  Fe  Fe188     1.0  0.50461  0.02883  0.06841  1.0000
  C   C2871     1.0  0.52276  0.31938  0.02469  1.0000
  C   C2872     1.0  0.62857  0.02412  0.14401  1.0000
  C   C2873     1.0  0.52846  0.30691  0.03467  1.0000
  C   C2874     1.0  0.67816  0.03447  0.14912  1.0000
  C   C2875     1.0  0.54309  0.01370  0.01845  1.0000
  P   P95       1.0  0.50590  0.17425  0.03171  1.0000
  H   H2320     1.0  0.53779  0.17461  0.02651  1.0000
  C   C2876     1.0  0.62533  0.99446  0.17100  1.0000
  H   H2321     1.0  0.50210  0.15572  0.06209  1.0000
  C   C2877     1.0  0.51197  0.15032  0.05523  1.0000
  P   P96       1.0  0.55267  0.99110  0.04136  1.0000
  C   C2878     1.0  0.55112  0.00359  0.06488  1.0000
  C   C2879     1.0  0.52783  0.99410  0.18685  1.0000
  C   C2880     1.0  0.52168  0.99609  0.04655  1.0000
  H   H2322     1.0  0.51666  0.13170  0.07301  1.0000
  C   C2881     1.0  0.50110  0.00452  0.18939  1.0000
  H   H2323     1.0  0.59446  0.31403  0.00004  1.0000
  H   H2324     1.0  0.67426  0.99320  0.13527  1.0000
  H   H2325     1.0  0.62895  0.32015  0.03941  1.0000
  C   C2882     1.0  0.50817  0.99169  0.05025  1.0000
  C   C2883     1.0  0.62607  0.32253  0.02874  1.0000
  C   C2884     1.0  0.61040  0.99168  0.22190  1.0000
  C   C2885     1.0  0.66623  0.99137  0.13033  1.0000
  C   C2886     1.0  0.49946  0.05603  0.13177  1.0000
  C   C2887     1.0  0.50347  0.99132  0.23001  1.0000
  C   C2888     1.0  0.59899  0.31108  0.98935  1.0000
  Fe  Fe189     1.0  0.58970  0.00506  0.47669  1.0000
  H   H2326     1.0  0.60817  0.02697  0.26843  1.0000
  Fe  Fe190     1.0  0.60727  0.02791  0.47445  1.0000
  S   S378      1.0  0.62704  0.01776  0.45864  1.0000
  H   H2327     1.0  0.72344  0.00884  0.47172  1.0000
  Fe  Fe191     1.0  0.61002  0.01542  0.44771  1.0000
  S   S379      1.0  0.61146  0.02246  0.42311  1.0000
  S   S380      1.0  0.59046  0.02749  0.46231  1.0000
  Fe  Fe192     1.0  0.68772  0.09885  0.44378  1.0000
  S   S381      1.0  0.68229  0.09855  0.46798  1.0000
  S   S382      1.0  0.68327  0.11834  0.42530  1.0000
  Fe  Fe193     1.0  0.70221  0.06674  0.44773  1.0000
  S   S383      1.0  0.69855  0.06291  0.47230  1.0000
  Fe  Fe194     1.0  0.67564  0.07717  0.47097  1.0000
  S   S384      1.0  0.95192  0.30257  0.34667  1.0000
  Fe  Fe195     1.0  0.70537  0.08438  0.46791  1.0000
  C   C2889     1.0  0.50886  0.02744  0.25935  1.0000
  S   S385      1.0  0.67870  0.07899  0.44667  1.0000
  S   S386      1.0  0.71140  0.08667  0.44353  1.0000
  Fe  Fe196     1.0  0.79915  0.09847  0.43748  1.0000
  S   S387      1.0  0.80197  0.08405  0.42184  1.0000
  S   S388      1.0  0.77833  0.11109  0.45043  1.0000
  Fe  Fe197     1.0  0.83277  0.09490  0.43349  1.0000
  S   S389      1.0  0.83875  0.08001  0.41719  1.0000
  S   S390      1.0  0.84532  0.10345  0.44511  1.0000
  Fe  Fe198     1.0  0.81963  0.09566  0.40743  1.0000
  S   S391      1.0  0.82113  0.10408  0.38285  1.0000
  Fe  Fe199     1.0  0.82065  0.06923  0.43254  1.0000
  S   S392      1.0  0.81883  0.04562  0.43740  1.0000
  S   S393      1.0  0.81545  0.11151  0.42224  1.0000
  S   S394      1.0  0.81612  0.08265  0.44961  1.0000
  Fe  Fe200     1.0  0.92309  0.16813  0.41678  1.0000
  S   S395      1.0  0.92592  0.17116  0.43814  1.0000
  S   S396      1.0  0.92721  0.18082  0.39328  1.0000
  Fe  Fe201     1.0  0.91260  0.13944  0.43046  1.0000
  S   S397      1.0  0.91444  0.13974  0.45312  1.0000
  S   S398      1.0  0.90762  0.12188  0.42207  1.0000
  Fe  Fe202     1.0  0.90423  0.16405  0.44769  1.0000
  S   S399      1.0  0.88516  0.17352  0.46468  1.0000
  Fe  Fe203     1.0  0.93612  0.14662  0.44221  1.0000
  S   S400      1.0  0.95554  0.13695  0.45377  1.0000
  S   S401      1.0  0.90043  0.16318  0.42593  1.0000
  S   S402      1.0  0.93523  0.14421  0.42007  1.0000
  H   H2328     1.0  0.52945  0.12028  0.48592  1.0000
  H   H2329     1.0  0.70980  0.03406  0.46147  1.0000
  C   C2890     1.0  0.99815  0.26319  0.40865  1.0000
  C   C2891     1.0  0.98722  0.25565  0.40964  1.0000
  H   H2330     1.0  0.65146  0.01980  0.39415  1.0000
  H   H2331     1.0  0.51599  0.02368  0.29829  1.0000
  H   H2332     1.0  0.73922  0.06022  0.44720  1.0000
  H   H2333     1.0  0.82723  0.05858  0.40638  1.0000
  C   C2892     1.0  0.75198  0.00369  0.37289  1.0000
  C   C2893     1.0  0.67879  0.99351  0.40329  1.0000
  S   S403      1.0  0.68158  0.02916  0.34381  1.0000
  Fe  Fe204     1.0  0.73627  0.08151  0.36320  1.0000
  S   S404      1.0  0.75031  0.08213  0.34035  1.0000
  S   S405      1.0  0.71757  0.10191  0.36371  1.0000
  Fe  Fe205     1.0  0.75499  0.05132  0.37472  1.0000
  S   S406      1.0  0.77027  0.05017  0.35267  1.0000
  S   S407      1.0  0.76037  0.03148  0.39269  1.0000
  Fe  Fe206     1.0  0.76964  0.07387  0.35176  1.0000
  S   S408      1.0  0.78932  0.08469  0.34332  1.0000
  Fe  Fe207     1.0  0.74903  0.05848  0.34407  1.0000
  S   S409      1.0  0.74341  0.04817  0.32821  1.0000
  S   S410      1.0  0.75566  0.07455  0.37440  1.0000
  S   S411      1.0  0.73385  0.05837  0.36621  1.0000
  Fe  Fe208     1.0  0.91432  0.28976  0.39382  1.0000
  S   S412      1.0  0.91527  0.28975  0.37034  1.0000
  C   C2894     1.0  0.71249  0.99330  0.38515  1.0000
  Fe  Fe209     1.0  0.94309  0.26686  0.39521  1.0000
  S   S413      1.0  0.94660  0.26469  0.37179  1.0000
  H   H2334     1.0  0.94357  0.10978  0.47052  1.0000
  Fe  Fe210     1.0  0.93951  0.28947  0.36694  1.0000
  C   C2895     1.0  0.85936  0.13341  0.48047  1.0000
  Fe  Fe211     1.0  0.92224  0.26506  0.37746  1.0000
  S   S414      1.0  0.91282  0.25023  0.36992  1.0000
  S   S415      1.0  0.93794  0.29153  0.38984  1.0000
  S   S416      1.0  0.91921  0.26510  0.40121  1.0000
  Fe  Fe212     1.0  0.93030  0.23489  0.48254  1.0000
  H   H2335     1.0  0.75529  0.03746  0.43939  1.0000
  H   H2336     1.0  0.80720  0.00839  0.34134  1.0000
  C   C2896     1.0  0.80217  0.01156  0.37669  1.0000
  C   C2897     1.0  0.73881  0.00619  0.45103  1.0000
  H   H2337     1.0  0.75046  0.02704  0.36901  1.0000
  C   C2898     1.0  0.69947  0.03268  0.34084  1.0000
  C   C2899     1.0  0.71189  0.02588  0.33139  1.0000
  C   C2900     1.0  0.72552  0.03030  0.32798  1.0000
  C   C2901     1.0  0.72685  0.04142  0.33411  1.0000
  C   C2902     1.0  0.71454  0.04782  0.34393  1.0000
  C   C2903     1.0  0.70090  0.04360  0.34714  1.0000
  H   H2338     1.0  0.71087  0.01755  0.32636  1.0000
  H   H2339     1.0  0.73496  0.02532  0.32034  1.0000
  H   H2340     1.0  0.71532  0.05647  0.34858  1.0000
  H   H2341     1.0  0.69135  0.04903  0.35434  1.0000
  C   C2904     1.0  0.96069  0.18449  0.32757  1.0000
  C   C2905     1.0  0.90102  0.19693  0.48395  1.0000
  H   H2342     1.0  0.71532  0.09876  0.29333  1.0000
  C   C2906     1.0  0.93182  0.10044  0.44476  1.0000
  C   C2907     1.0  0.88652  0.28314  0.45537  1.0000
  C   C2908     1.0  0.90013  0.27797  0.44630  1.0000
  C   C2909     1.0  0.90312  0.28465  0.43123  1.0000
  C   C2910     1.0  0.89241  0.29639  0.42529  1.0000
  C   C2911     1.0  0.87889  0.30163  0.43445  1.0000
  C   C2912     1.0  0.87593  0.29497  0.44946  1.0000
  H   H2343     1.0  0.90832  0.26885  0.45091  1.0000
  H   H2344     1.0  0.91374  0.28082  0.42427  1.0000
  C   C2913     1.0  0.79139  0.99927  0.32635  1.0000
  H   H2345     1.0  0.84200  0.01751  0.47517  1.0000
  C   C2914     1.0  0.96670  0.15892  0.39987  1.0000
  C   C2915     1.0  0.97407  0.13418  0.44338  1.0000
  C   C2916     1.0  0.98554  0.13536  0.44922  1.0000
  C   C2917     1.0  0.97758  0.13055  0.42956  1.0000
  H   H2346     1.0  0.98294  0.13798  0.46001  1.0000
  H   H2347     1.0  0.96887  0.12918  0.42522  1.0000
  C   C2918     1.0  0.92301  0.20022  0.38786  1.0000
  C   C2919     1.0  0.91929  0.20635  0.37407  1.0000
  C   C2920     1.0  0.91615  0.22167  0.36887  1.0000
  C   C2921     1.0  0.91718  0.23106  0.37716  1.0000
  C   C2922     1.0  0.92121  0.22501  0.39090  1.0000
  C   C2923     1.0  0.92393  0.20953  0.39636  1.0000
  H   H2348     1.0  0.91865  0.19922  0.36743  1.0000
  H   H2349     1.0  0.91303  0.22629  0.35829  1.0000
  H   H2350     1.0  0.92193  0.23222  0.39742  1.0000
  H   H2351     1.0  0.92690  0.20482  0.40699  1.0000
  C   C2924     1.0  0.88885  0.18116  0.47761  1.0000
  C   C2925     1.0  0.95763  0.18221  0.40788  1.0000
  H   H2352     1.0  0.53709  0.02326  0.27655  1.0000
  H   H2353     1.0  0.89374  0.04103  0.48052  1.0000
  H   H2354     1.0  0.76725  0.00047  0.40720  1.0000
  C   C2926     1.0  0.84908  0.00677  0.40015  1.0000
  H   H2355     1.0  0.90711  0.19021  0.46301  1.0000
  C   C2927     1.0  0.61886  0.05345  0.48627  1.0000
  C   C2928     1.0  0.78528  0.06342  0.46224  1.0000
  C   C2929     1.0  0.95064  0.14276  0.38336  1.0000
  C   C2930     1.0  0.86207  0.10957  0.43735  1.0000
  C   C2931     1.0  0.86507  0.11976  0.44352  1.0000
  C   C2932     1.0  0.87898  0.12365  0.43892  1.0000
  C   C2933     1.0  0.88992  0.11753  0.42791  1.0000
  C   C2934     1.0  0.88690  0.10744  0.42161  1.0000
  C   C2935     1.0  0.87299  0.10350  0.42627  1.0000
  H   H2356     1.0  0.85666  0.12451  0.45206  1.0000
  H   H2357     1.0  0.88132  0.13119  0.44403  1.0000
  H   H2358     1.0  0.89537  0.10261  0.41314  1.0000
  H   H2359     1.0  0.87084  0.09554  0.42154  1.0000
  C   C2936     1.0  0.81112  0.09885  0.37279  1.0000
  C   C2937     1.0  0.80146  0.08917  0.37935  1.0000
  C   C2938     1.0  0.79439  0.08484  0.37059  1.0000
  C   C2939     1.0  0.79703  0.09017  0.35523  1.0000
  C   C2940     1.0  0.80657  0.09991  0.34882  1.0000
  C   C2941     1.0  0.81348  0.10426  0.35751  1.0000
  H   H2360     1.0  0.79992  0.08458  0.39104  1.0000
  H   H2361     1.0  0.78726  0.07710  0.37568  1.0000
  H   H2362     1.0  0.80875  0.10403  0.33699  1.0000
  H   H2363     1.0  0.82094  0.11167  0.35231  1.0000
  C   C2942     1.0  0.69286  0.11344  0.40830  1.0000
  C   C2943     1.0  0.69166  0.12396  0.39519  1.0000
  C   C2944     1.0  0.69907  0.12018  0.38156  1.0000
  C   C2945     1.0  0.70806  0.10599  0.38097  1.0000
  C   C2946     1.0  0.70908  0.09534  0.39402  1.0000
  C   C2947     1.0  0.70127  0.09901  0.40766  1.0000
  H   H2364     1.0  0.68499  0.13504  0.39560  1.0000
  H   H2365     1.0  0.69808  0.12835  0.37146  1.0000
  H   H2366     1.0  0.71584  0.08429  0.39362  1.0000
  H   H2367     1.0  0.70181  0.09061  0.41762  1.0000
  C   C2948     1.0  0.73523  0.09492  0.47185  1.0000
  H   H2368     1.0  0.87644  0.14497  0.47807  1.0000
  H   H2369     1.0  0.68165  0.99990  0.24101  1.0000
  C   C2949     1.0  0.76187  0.10456  0.45822  1.0000
  C   C2950     1.0  0.75754  0.09520  0.45210  1.0000
  C   C2951     1.0  0.74416  0.09040  0.45892  1.0000
  H   H2370     1.0  0.97406  0.31039  0.43283  1.0000
  C   C2952     1.0  0.83944  0.00294  0.43847  1.0000
  H   H2371     1.0  0.76442  0.09174  0.44213  1.0000
  H   H2372     1.0  0.74087  0.08310  0.45429  1.0000
  C   C2953     1.0  0.77490  0.02131  0.33414  1.0000
  H   H2373     1.0  0.99111  0.20846  0.44196  1.0000
  C   C2954     1.0  0.61994  0.00911  0.41219  1.0000
  H   H2374     1.0  0.76265  0.01496  0.45821  1.0000
  C   C2955     1.0  0.71297  0.99649  0.42881  1.0000
  H   H2375     1.0  0.74791  0.00467  0.36317  1.0000
  H   H2376     1.0  0.82848  0.04669  0.46222  1.0000
  C   C2956     1.0  0.63340  0.04898  0.47836  1.0000
  H   H2377     1.0  0.86519  0.09655  0.48256  1.0000
  H   H2378     1.0  0.58889  0.99391  0.34654  1.0000
  C   C2957     1.0  0.59300  0.09451  0.48151  1.0000
  H   H2379     1.0  0.95656  0.20170  0.39051  1.0000
  H   H2380     1.0  0.63576  0.04057  0.47210  1.0000
  H   H2381     1.0  0.52833  0.01638  0.34075  1.0000
  P   P97       1.0  0.59703  0.01317  0.36096  1.0000
  C   C2958     1.0  0.57748  0.00898  0.29702  1.0000
  C   C2959     1.0  0.68614  0.09524  0.34069  1.0000
  P   P98       1.0  0.97475  0.15614  0.37061  1.0000
  C   C2960     1.0  0.83283  0.02923  0.43817  1.0000
  H   H2382     1.0  0.83253  0.07284  0.38072  1.0000
  C   C2961     1.0  0.74287  0.05060  0.45540  1.0000
  C   C2962     1.0  0.96767  0.22798  0.47547  1.0000
  C   C2963     1.0  0.74690  0.07184  0.41229  1.0000
  C   C2964     1.0  0.76139  0.06391  0.41345  1.0000
  C   C2965     1.0  0.77240  0.07144  0.41198  1.0000
  C   C2966     1.0  0.76898  0.08693  0.40902  1.0000
  C   C2967     1.0  0.75456  0.09496  0.40751  1.0000
  C   C2968     1.0  0.74351  0.08731  0.40925  1.0000
  P   P99       1.0  0.75048  0.11487  0.40181  1.0000
  C   C2969     1.0  0.76655  0.12190  0.40050  1.0000
  C   C2970     1.0  0.74610  0.11891  0.38382  1.0000
  C   C2971     1.0  0.75570  0.11127  0.37305  1.0000
  C   C2972     1.0  0.75308  0.11470  0.35881  1.0000
  C   C2973     1.0  0.74066  0.12562  0.35528  1.0000
  C   C2974     1.0  0.73072  0.13289  0.36607  1.0000
  C   C2975     1.0  0.73330  0.12943  0.38036  1.0000
  C   C2976     1.0  0.77651  0.12517  0.38695  1.0000
  C   C2977     1.0  0.78874  0.13074  0.38622  1.0000
  C   C2978     1.0  0.79115  0.13311  0.39895  1.0000
  C   C2979     1.0  0.78132  0.12990  0.41245  1.0000
  C   C2980     1.0  0.76916  0.12418  0.41327  1.0000
  C   C2981     1.0  0.73572  0.12346  0.41522  1.0000
  C   C2982     1.0  0.73019  0.11499  0.42891  1.0000
  C   C2983     1.0  0.71929  0.12177  0.43954  1.0000
  C   C2984     1.0  0.71391  0.13710  0.43662  1.0000
  C   C2985     1.0  0.71970  0.14570  0.42320  1.0000
  C   C2986     1.0  0.73072  0.13893  0.41262  1.0000
  H   H2383     1.0  0.73841  0.06599  0.41328  1.0000
  H   H2384     1.0  0.76412  0.05196  0.41514  1.0000
  H   H2385     1.0  0.78368  0.06529  0.41276  1.0000
  H   H2386     1.0  0.77766  0.09264  0.40751  1.0000
  H   H2387     1.0  0.73236  0.09334  0.40795  1.0000
  H   H2388     1.0  0.76535  0.10273  0.37561  1.0000
  H   H2389     1.0  0.76062  0.10872  0.35059  1.0000
  H   H2390     1.0  0.73848  0.12810  0.34433  1.0000
  H   H2391     1.0  0.72077  0.14090  0.36348  1.0000
  H   H2392     1.0  0.72512  0.13477  0.38863  1.0000
  H   H2393     1.0  0.77516  0.12329  0.37690  1.0000
  H   H2394     1.0  0.79667  0.13271  0.37584  1.0000
  H   H2395     1.0  0.80088  0.13703  0.39840  1.0000
  H   H2396     1.0  0.78333  0.13146  0.42238  1.0000
  H   H2397     1.0  0.76190  0.12142  0.42395  1.0000
  H   H2398     1.0  0.73445  0.10317  0.43154  1.0000
  H   H2399     1.0  0.71505  0.11512  0.45009  1.0000
  H   H2400     1.0  0.70535  0.14228  0.44484  1.0000
  H   H2401     1.0  0.71569  0.15761  0.42103  1.0000
  H   H2402     1.0  0.73541  0.14574  0.40242  1.0000
  S   S417      1.0  0.65339  0.00673  0.34809  1.0000
  C   C2987     1.0  0.81674  0.01205  0.37665  1.0000
  C   C2988     1.0  0.82678  0.05417  0.39735  1.0000
  C   C2989     1.0  0.72272  0.99581  0.35880  1.0000
  C   C2990     1.0  0.89548  0.30651  0.47048  1.0000
  C   C2991     1.0  0.63285  0.00370  0.38808  1.0000
  H   H2403     1.0  0.63338  0.11293  0.39307  1.0000
  H   H2404     1.0  0.98366  0.12672  0.36325  1.0000
  H   H2405     1.0  0.74001  0.10506  0.28571  1.0000
  C   C2992     1.0  0.69125  0.08516  0.36521  1.0000
  C   C2993     1.0  0.67649  0.09107  0.37147  1.0000
  C   C2994     1.0  0.66631  0.09852  0.36240  1.0000
  C   C2995     1.0  0.69603  0.08704  0.34992  1.0000
  H   H2406     1.0  0.69929  0.07975  0.37210  1.0000
  H   H2407     1.0  0.67308  0.09001  0.38333  1.0000
  H   H2408     1.0  0.65482  0.10300  0.36727  1.0000
  H   H2409     1.0  0.70766  0.08267  0.34531  1.0000
  H   H2410     1.0  0.66924  0.06083  0.31596  1.0000
  C   C2996     1.0  0.96023  0.25540  0.44501  1.0000
  H   H2411     1.0  0.96412  0.24367  0.44521  1.0000
  C   C2997     1.0  0.96234  0.22771  0.38905  1.0000
  C   C2998     1.0  0.98316  0.21040  0.39883  1.0000
  C   C2999     1.0  0.96542  0.14111  0.37523  1.0000
  C   C3000     1.0  0.99351  0.16802  0.46905  1.0000
  H   H2412     1.0  0.96242  0.22054  0.41194  1.0000
  H   H2413     1.0  0.95121  0.23472  0.39100  1.0000
  H   H2414     1.0  0.66010  0.03330  0.36899  1.0000
  H   H2415     1.0  0.94485  0.10907  0.38504  1.0000
  S   S418      1.0  0.92230  0.25846  0.48520  1.0000
  C   C3001     1.0  0.92480  0.21478  0.43507  1.0000
  C   C3002     1.0  0.93079  0.22706  0.43286  1.0000
  C   C3003     1.0  0.92143  0.24107  0.43278  1.0000
  C   C3004     1.0  0.90611  0.24297  0.43448  1.0000
  C   C3005     1.0  0.90004  0.23083  0.43606  1.0000
  C   C3006     1.0  0.90940  0.21661  0.43696  1.0000
  P   P100      1.0  0.88023  0.23363  0.43797  1.0000
  C   C3007     1.0  0.87283  0.23227  0.45756  1.0000
  C   C3008     1.0  0.87453  0.25174  0.42678  1.0000
  C   C3009     1.0  0.88223  0.25504  0.41204  1.0000
  C   C3010     1.0  0.87963  0.26951  0.40374  1.0000
  C   C3011     1.0  0.86930  0.28079  0.41007  1.0000
  C   C3012     1.0  0.86119  0.27752  0.42455  1.0000
  C   C3013     1.0  0.86366  0.26301  0.43285  1.0000
  C   C3014     1.0  0.87328  0.24330  0.46435  1.0000
  H   H2416     1.0  0.82128  0.03420  0.41143  1.0000
  C   C3015     1.0  0.78083  0.05557  0.45461  1.0000
  H   H2417     1.0  0.93466  0.10056  0.43304  1.0000
  C   C3016     1.0  0.86818  0.21952  0.46647  1.0000
  C   C3017     1.0  0.87587  0.22055  0.43031  1.0000
  C   C3018     1.0  0.86202  0.21658  0.43551  1.0000
  C   C3019     1.0  0.85911  0.20577  0.43017  1.0000
  C   C3020     1.0  0.86983  0.19921  0.41927  1.0000
  C   C3021     1.0  0.88328  0.20374  0.41343  1.0000
  C   C3022     1.0  0.88620  0.21449  0.41880  1.0000
  H   H2418     1.0  0.93203  0.20385  0.43531  1.0000
  H   H2419     1.0  0.94262  0.22594  0.43130  1.0000
  H   H2420     1.0  0.92611  0.25055  0.43100  1.0000
  H   H2421     1.0  0.89907  0.25399  0.43429  1.0000
  H   H2422     1.0  0.90486  0.20699  0.43891  1.0000
  H   H2423     1.0  0.89077  0.24659  0.40711  1.0000
  H   H2424     1.0  0.88605  0.27205  0.39255  1.0000
  H   H2425     1.0  0.86785  0.29213  0.40384  1.0000
  H   H2426     1.0  0.85334  0.28633  0.42948  1.0000
  H   H2427     1.0  0.85740  0.26079  0.44409  1.0000
  H   H2428     1.0  0.87775  0.25281  0.45793  1.0000
  H   H2429     1.0  0.97694  0.25717  0.48118  1.0000
  C   C3023     1.0  0.69306  0.08136  0.31591  1.0000
  H   H2430     1.0  0.59056  0.03434  0.33338  1.0000
  H   H2431     1.0  0.86906  0.21015  0.46190  1.0000
  H   H2432     1.0  0.85358  0.22164  0.44387  1.0000
  H   H2433     1.0  0.84865  0.20234  0.43465  1.0000
  H   H2434     1.0  0.86776  0.19063  0.41533  1.0000
  H   H2435     1.0  0.89157  0.19882  0.40485  1.0000
  H   H2436     1.0  0.89659  0.21796  0.41405  1.0000
  C   C3024     1.0  0.60309  0.05734  0.43339  1.0000
  C   C3025     1.0  0.59903  0.06299  0.44620  1.0000
  C   C3026     1.0  0.60931  0.06822  0.45011  1.0000
  C   C3027     1.0  0.62370  0.06758  0.44140  1.0000
  C   C3028     1.0  0.62796  0.06162  0.42870  1.0000
  C   C3029     1.0  0.61748  0.05672  0.42460  1.0000
  P   P101      1.0  0.64682  0.06048  0.41808  1.0000
  C   C3030     1.0  0.64895  0.07933  0.41237  1.0000
  C   C3031     1.0  0.65985  0.04859  0.42925  1.0000
  C   C3032     1.0  0.67521  0.04717  0.42370  1.0000
  C   C3033     1.0  0.68540  0.03782  0.43210  1.0000
  C   C3034     1.0  0.68037  0.02992  0.44621  1.0000
  C   C3035     1.0  0.66508  0.03100  0.45173  1.0000
  C   C3036     1.0  0.65487  0.04021  0.44322  1.0000
  C   C3037     1.0  0.63949  0.08996  0.40377  1.0000
  C   C3038     1.0  0.64066  0.10474  0.39969  1.0000
  C   C3039     1.0  0.65113  0.10901  0.40437  1.0000
  C   C3040     1.0  0.66031  0.09853  0.41316  1.0000
  C   C3041     1.0  0.65926  0.08377  0.41714  1.0000
  C   C3042     1.0  0.65031  0.05241  0.40225  1.0000
  C   C3043     1.0  0.65561  0.05995  0.38790  1.0000
  H   H2437     1.0  0.59524  0.05300  0.43047  1.0000
  H   H2438     1.0  0.58806  0.06301  0.45328  1.0000
  H   H2439     1.0  0.60634  0.07226  0.46020  1.0000
  H   H2440     1.0  0.63166  0.07136  0.44481  1.0000
  H   H2441     1.0  0.67930  0.05350  0.41299  1.0000
  H   H2442     1.0  0.69725  0.03661  0.42759  1.0000
  H   H2443     1.0  0.68835  0.02291  0.45278  1.0000
  H   H2444     1.0  0.66118  0.02473  0.46263  1.0000
  H   H2445     1.0  0.64313  0.04074  0.44754  1.0000
  H   H2446     1.0  0.63119  0.08679  0.40030  1.0000
  H   H2447     1.0  0.94742  0.17766  0.36467  1.0000
  H   H2448     1.0  0.65209  0.12045  0.40137  1.0000
  H   H2449     1.0  0.66815  0.10184  0.41711  1.0000
  H   H2450     1.0  0.66638  0.07599  0.42412  1.0000
  H   H2451     1.0  0.65746  0.07092  0.38592  1.0000
  H   H2452     1.0  0.85480  0.99179  0.47349  1.0000
  H   H2453     1.0  0.96924  0.14696  0.40257  1.0000
  H   H2454     1.0  0.96568  0.18727  0.47842  1.0000
  C   C3044     1.0  0.80949  0.00045  0.42036  1.0000
  H   H2455     1.0  0.66290  0.12524  0.28306  1.0000
  C   C3045     1.0  0.96866  0.27869  0.40838  1.0000
  C   C3046     1.0  0.62878  0.03331  0.33122  1.0000
  C   C3047     1.0  0.79421  0.05589  0.47250  1.0000
  C   C3048     1.0  0.95524  0.17687  0.35421  1.0000
  H   H2456     1.0  0.84632  0.06202  0.45901  1.0000
  C   C3049     1.0  0.50022  0.01212  0.24128  1.0000
  H   H2457     1.0  0.58540  0.01375  0.28788  1.0000
  C   C3050     1.0  0.52616  0.99801  0.33331  1.0000
  C   C3051     1.0  0.98667  0.30048  0.30010  1.0000
  H   H2458     1.0  0.66403  0.14998  0.31358  1.0000
  H   H2459     1.0  0.98195  0.25849  0.44346  1.0000
  S   S419      1.0  0.60383  0.04688  0.48536  1.0000
  C   C3052     1.0  0.60570  0.99490  0.35723  1.0000
  C   C3053     1.0  0.50298  0.00177  0.32551  1.0000
  C   C3054     1.0  0.73318  0.10609  0.29655  1.0000
  H   H2460     1.0  0.65751  0.01178  0.43662  1.0000
  H   H2461     1.0  0.73279  0.10780  0.48777  1.0000
  H   H2462     1.0  0.60338  0.09222  0.47350  1.0000
  C   C3055     1.0  0.66223  0.13894  0.29767  1.0000
  C   C3056     1.0  0.79416  0.15675  0.42976  1.0000
  C   C3057     1.0  0.79450  0.14397  0.44093  1.0000
  C   C3058     1.0  0.80787  0.13633  0.44536  1.0000
  C   C3059     1.0  0.82089  0.14151  0.43870  1.0000
  C   C3060     1.0  0.82068  0.15428  0.42741  1.0000
  C   C3061     1.0  0.80719  0.16195  0.42302  1.0000
  P   P102      1.0  0.83767  0.16077  0.41925  1.0000
  C   C3062     1.0  0.84314  0.16444  0.43420  1.0000
  C   C3063     1.0  0.85155  0.14751  0.40958  1.0000
  C   C3064     1.0  0.86563  0.15046  0.40235  1.0000
  C   C3065     1.0  0.87617  0.14069  0.39415  1.0000
  C   C3066     1.0  0.87254  0.12822  0.39261  1.0000
  C   C3067     1.0  0.85841  0.12544  0.39936  1.0000
  C   C3068     1.0  0.84798  0.13498  0.40788  1.0000
  C   C3069     1.0  0.83233  0.17242  0.44410  1.0000
  P   P103      1.0  0.82121  0.01554  0.39228  1.0000
  C   C3070     1.0  0.85107  0.17104  0.45728  1.0000
  C   C3071     1.0  0.86181  0.16288  0.44765  1.0000
  C   C3072     1.0  0.85791  0.15962  0.43612  1.0000
  C   C3073     1.0  0.83467  0.17750  0.40529  1.0000
  C   C3074     1.0  0.83161  0.17686  0.39205  1.0000
  C   C3075     1.0  0.82982  0.18956  0.38085  1.0000
  C   C3076     1.0  0.83121  0.20295  0.38273  1.0000
  C   C3077     1.0  0.83437  0.20365  0.39582  1.0000
  C   C3078     1.0  0.83611  0.19099  0.40707  1.0000
  H   H2463     1.0  0.65443  0.00932  0.26976  1.0000
  C   C3079     1.0  0.79558  0.02357  0.31319  1.0000
  H   H2464     1.0  0.80821  0.12620  0.45378  1.0000
  H   H2465     1.0  0.83119  0.13541  0.44221  1.0000
  H   H2466     1.0  0.80662  0.17193  0.41450  1.0000
  H   H2467     1.0  0.86851  0.16030  0.40305  1.0000
  H   H2468     1.0  0.88721  0.14274  0.38907  1.0000
  H   H2469     1.0  0.88075  0.12059  0.38635  1.0000
  H   H2470     1.0  0.85559  0.11572  0.39824  1.0000
  H   H2471     1.0  0.83717  0.13247  0.41301  1.0000
  H   H2472     1.0  0.82083  0.17615  0.44289  1.0000
  S   S420      1.0  0.90904  0.23416  0.47727  1.0000
  H   H2473     1.0  0.54111  0.08173  0.46521  1.0000
  H   H2474     1.0  0.87321  0.15907  0.44914  1.0000
  H   H2475     1.0  0.86647  0.15327  0.42890  1.0000
  H   H2476     1.0  0.83071  0.16650  0.39036  1.0000
  H   H2477     1.0  0.82751  0.18897  0.37064  1.0000
  H   H2478     1.0  0.82996  0.21275  0.37399  1.0000
  H   H2479     1.0  0.83563  0.21400  0.39720  1.0000
  H   H2480     1.0  0.83876  0.19179  0.41699  1.0000
  H   H2481     1.0  0.56861  0.00144  0.33442  1.0000
  H   H2482     1.0  0.78377  0.16258  0.42631  1.0000
  H   H2483     1.0  0.79778  0.06223  0.47804  1.0000
  C   C3080     1.0  0.61757  0.00538  0.26332  1.0000
  Fe  Fe213     1.0  0.65826  0.99577  0.32900  1.0000
  H   H2484     1.0  0.97635  0.29791  0.40778  1.0000
  H   H2485     1.0  0.52496  0.99423  0.36346  1.0000
  C   C3081     1.0  0.95981  0.18978  0.39316  1.0000
  H   H2486     1.0  0.95523  0.24972  0.47868  1.0000
  C   C3082     1.0  0.99510  0.17355  0.48046  1.0000
  S   S421      1.0  0.68180  0.99893  0.32158  1.0000
  S   S422      1.0  0.71457  0.05230  0.43175  1.0000
  H   H2487     1.0  0.62034  0.05217  0.41482  1.0000
  C   C3083     1.0  0.61824  0.02466  0.33788  1.0000
  C   C3084     1.0  0.78339  0.00572  0.43218  1.0000
  C   C3085     1.0  0.88201  0.07221  0.45600  1.0000
  C   C3086     1.0  0.78543  0.04015  0.45719  1.0000
  C   C3087     1.0  0.80680  0.01255  0.40864  1.0000
  C   C3088     1.0  0.84293  0.99448  0.47822  1.0000
  C   C3089     1.0  0.51713  0.99315  0.32718  1.0000
  H   H2488     1.0  0.95979  0.16084  0.42265  1.0000
  H   H2489     1.0  0.63173  0.02913  0.27303  1.0000
  H   H2490     1.0  0.79813  0.02069  0.46880  1.0000
  H   H2491     1.0  0.99810  0.31094  0.38168  1.0000
  C   C3090     1.0  0.75880  0.01535  0.38861  1.0000
  H   H2492     1.0  0.97067  0.10629  0.36979  1.0000
  C   C3091     1.0  0.97028  0.22701  0.37467  1.0000
  H   H2493     1.0  0.97198  0.26571  0.38010  1.0000
  H   H2494     1.0  0.63478  0.03316  0.31992  1.0000
  C   C3092     1.0  0.71752  0.00197  0.37135  1.0000
  P   P104      1.0  0.70565  0.00105  0.40151  1.0000
  C   C3093     1.0  0.68620  0.00061  0.40903  1.0000
  H   H2495     1.0  0.94476  0.15297  0.38697  1.0000
  H   H2496     1.0  0.78746  0.00998  0.36411  1.0000
  C   C3094     1.0  0.59107  0.99924  0.40608  1.0000
  C   C3095     1.0  0.56712  0.01626  0.36120  1.0000
  C   C3096     1.0  0.64169  0.06592  0.48738  1.0000
  C   C3097     1.0  0.63030  0.99388  0.26190  1.0000
  C   C3098     1.0  0.67822  0.00750  0.42084  1.0000
  H   H2497     1.0  0.88845  0.32299  0.45212  1.0000
  C   C3099     1.0  0.65647  0.99887  0.42209  1.0000
  H   H2498     1.0  0.86948  0.99938  0.40819  1.0000
  C   C3100     1.0  0.98309  0.26317  0.37347  1.0000
  C   C3101     1.0  0.70655  0.02021  0.39703  1.0000
  C   C3102     1.0  0.69584  0.03099  0.39004  1.0000
  C   C3103     1.0  0.69577  0.04598  0.38753  1.0000
  C   C3104     1.0  0.70614  0.05025  0.39233  1.0000
  C   C3105     1.0  0.71729  0.03957  0.39848  1.0000
  C   C3106     1.0  0.71766  0.02457  0.40070  1.0000
  H   H2499     1.0  0.72722  0.00231  0.34835  1.0000
  C   C3107     1.0  0.97252  0.26338  0.40925  1.0000
  C   C3108     1.0  0.61804  0.01807  0.26738  1.0000
  C   C3109     1.0  0.96947  0.16736  0.35371  1.0000
  H   H2500     1.0  0.71787  0.01336  0.37023  1.0000
  H   H2501     1.0  0.81793  0.01707  0.43638  1.0000
  C   C3110     1.0  0.96831  0.16648  0.38508  1.0000
  H   H2502     1.0  0.77424  0.00235  0.44066  1.0000
  H   H2503     1.0  0.57251  0.03515  0.40475  1.0000
  H   H2504     1.0  0.70535  0.00693  0.43004  1.0000
  C   C3111     1.0  0.82337  0.04038  0.40018  1.0000
  C   C3112     1.0  0.64368  0.99503  0.26439  1.0000
  H   H2505     1.0  0.64510  0.99806  0.42732  1.0000
  H   H2506     1.0  0.53968  0.09369  0.43951  1.0000
  C   C3113     1.0  0.98662  0.28864  0.32572  1.0000
  H   H2507     1.0  0.68756  0.02778  0.38658  1.0000
  H   H2508     1.0  0.68759  0.05428  0.38209  1.0000
  H   H2509     1.0  0.70587  0.06180  0.39112  1.0000
  H   H2510     1.0  0.72573  0.04302  0.40144  1.0000
  H   H2511     1.0  0.72655  0.01650  0.40538  1.0000
  C   C3114     1.0  0.89158  0.05263  0.47512  1.0000
  C   C3115     1.0  0.88470  0.05730  0.46305  1.0000
  S   S423      1.0  0.71895  0.08858  0.48142  1.0000
  C   C3116     1.0  0.88622  0.08245  0.46098  1.0000
  C   C3117     1.0  0.89289  0.07794  0.47326  1.0000
  C   C3118     1.0  0.55676  0.99687  0.30602  1.0000
  P   P105      1.0  0.89765  0.09149  0.47995  1.0000
  C   C3119     1.0  0.86301  0.21837  0.48170  1.0000
  H   H2512     1.0  0.54441  0.03609  0.33742  1.0000
  C   C3120     1.0  0.82451  0.00924  0.35115  1.0000
  C   C3121     1.0  0.82794  0.01058  0.36386  1.0000
  H   H2513     1.0  0.95528  0.32135  0.48298  1.0000
  H   H2514     1.0  0.85425  0.17365  0.46609  1.0000
  H   H2515     1.0  0.98851  0.24108  0.38615  1.0000
  C   C3122     1.0  0.96984  0.31258  0.44387  1.0000
  C   C3123     1.0  0.62245  0.99393  0.41837  1.0000
  C   C3124     1.0  0.82863  0.05678  0.37129  1.0000
  C   C3125     1.0  0.88265  0.10793  0.47990  1.0000
  H   H2516     1.0  0.77425  0.06145  0.44636  1.0000
  C   C3126     1.0  0.91472  0.09650  0.46859  1.0000
  S   S424      1.0  0.56756  0.99860  0.48613  1.0000
  H   H2517     1.0  0.88147  0.04938  0.45912  1.0000
  C   C3127     1.0  0.89568  0.06288  0.48021  1.0000
  H   H2518     1.0  0.99222  0.27342  0.45728  1.0000
  H   H2519     1.0  0.84493  0.11899  0.48275  1.0000
  C   C3128     1.0  0.79429  0.03255  0.46751  1.0000
  H   H2520     1.0  0.73104  0.06083  0.47375  1.0000
  C   C3129     1.0  0.99245  0.12820  0.42157  1.0000
  S   S425      1.0  0.88242  0.27523  0.47420  1.0000
  C   C3130     1.0  0.79985  0.00814  0.31507  1.0000
  C   C3131     1.0  0.82018  0.01259  0.48512  1.0000
  H   H2521     1.0  0.85042  0.14328  0.48049  1.0000
  H   H2522     1.0  0.53275  0.02591  0.25200  1.0000
  C   C3132     1.0  0.82542  0.04287  0.37406  1.0000
  H   H2523     1.0  0.50334  0.03168  0.33754  1.0000
  C   C3133     1.0  0.97962  0.29328  0.31374  1.0000
  C   C3134     1.0  0.71596  0.99114  0.41585  1.0000
  C   C3135     1.0  0.76280  0.00140  0.39773  1.0000
  H   H2524     1.0  0.86541  0.29899  0.45651  1.0000
  C   C3136     1.0  0.55166  0.11969  0.44814  1.0000
  H   H2525     1.0  0.95001  0.31574  0.37173  1.0000
  H   H2526     1.0  0.95295  0.18832  0.41664  1.0000
  C   C3137     1.0  0.97742  0.19354  0.43004  1.0000
  C   C3138     1.0  0.82322  0.03436  0.38853  1.0000
  C   C3139     1.0  0.95610  0.32154  0.36176  1.0000
  C   C3140     1.0  0.96512  0.11646  0.37363  1.0000
  C   C3141     1.0  0.82973  0.06222  0.38289  1.0000
  H   H2527     1.0  0.96927  0.32104  0.32531  1.0000
  H   H2528     1.0  0.58062  0.08663  0.47093  1.0000
  C   C3142     1.0  0.52126  0.01214  0.33666  1.0000
  H   H2529     1.0  0.66331  0.05885  0.36485  1.0000
  C   C3143     1.0  0.75139  0.02529  0.47649  1.0000
  C   C3144     1.0  0.58042  0.02067  0.35337  1.0000
  C   C3145     1.0  0.96548  0.18199  0.38179  1.0000
  C   C3146     1.0  0.97248  0.12801  0.37005  1.0000
  Fe  Fe214     1.0  0.62315  0.99626  0.47355  1.0000
  C   C3147     1.0  0.70659  0.07182  0.31097  1.0000
  C   C3148     1.0  0.65903  0.05313  0.37590  1.0000
  H   H2530     1.0  0.64083  0.04761  0.33437  1.0000
  H   H2531     1.0  0.62270  0.02563  0.39217  1.0000
  C   C3149     1.0  0.86327  0.22949  0.48830  1.0000
  C   C3150     1.0  0.91882  0.09614  0.45352  1.0000
  C   C3151     1.0  0.58013  0.09129  0.48015  1.0000
  C   C3152     1.0  0.62497  0.04099  0.35414  1.0000
  C   C3153     1.0  0.84724  0.02841  0.43965  1.0000
  S   S426      1.0  0.95290  0.22336  0.47161  1.0000
  C   C3154     1.0  0.92378  0.10142  0.47468  1.0000
  C   C3155     1.0  0.96875  0.21948  0.40105  1.0000
  H   H2532     1.0  0.98431  0.17024  0.42886  1.0000
  C   C3156     1.0  0.97903  0.16602  0.33995  1.0000
  H   H2533     1.0  0.85028  0.03827  0.44000  1.0000
  H   H2534     1.0  0.57942  0.03541  0.37800  1.0000
  H   H2535     1.0  0.91186  0.09295  0.44832  1.0000
  H   H2536     1.0  0.95724  0.28469  0.40871  1.0000
  C   C3157     1.0  0.54320  0.09911  0.44604  1.0000
  H   H2537     1.0  0.66905  0.08421  0.32211  1.0000
  C   C3158     1.0  0.98474  0.21817  0.37227  1.0000
  H   H2538     1.0  0.75595  0.11658  0.47561  1.0000
  S   S427      1.0  0.60797  0.99289  0.46122  1.0000
  C   C3159     1.0  0.58294  0.01215  0.41102  1.0000
  H   H2539     1.0  0.93741  0.25554  0.44662  1.0000
  H   H2540     1.0  0.56606  0.00420  0.28302  1.0000
  C   C3160     1.0  0.66717  0.13970  0.30976  1.0000
  H   H2541     1.0  0.92064  0.10236  0.48612  1.0000
  C   C3161     1.0  0.71897  0.02803  0.45440  1.0000
  C   C3162     1.0  0.72335  0.03445  0.43948  1.0000
  H   H2542     1.0  0.83661  0.99345  0.43709  1.0000
  H   H2543     1.0  0.95066  0.10893  0.44407  1.0000
  C   C3163     1.0  0.75351  0.01640  0.37614  1.0000
  H   H2544     1.0  0.73870  0.03157  0.41899  1.0000
  H   H2545     1.0  0.98292  0.20727  0.47252  1.0000
  H   H2546     1.0  0.96528  0.23350  0.36541  1.0000
  C   C3164     1.0  0.73511  0.02659  0.43039  1.0000
  H   H2547     1.0  0.93196  0.13249  0.39346  1.0000
  C   C3165     1.0  0.67960  0.06420  0.31411  1.0000
  H   H2548     1.0  0.96445  0.16276  0.44930  1.0000
  H   H2549     1.0  0.77962  0.04210  0.32123  1.0000
  S   S428      1.0  0.95930  0.25363  0.40963  1.0000
  C   C3166     1.0  0.62467  0.01391  0.39697  1.0000
  S   S429      1.0  0.64232  0.00232  0.31339  1.0000
  H   H2550     1.0  0.68331  0.01367  0.42498  1.0000
  C   C3167     1.0  0.62203  0.99371  0.30403  1.0000
  C   C3168     1.0  0.67108  0.10050  0.34704  1.0000
  C   C3169     1.0  0.93680  0.10565  0.46590  1.0000
  C   C3170     1.0  0.97030  0.26379  0.44402  1.0000
  C   C3171     1.0  0.99424  0.27836  0.40819  1.0000
  C   C3172     1.0  0.94520  0.26218  0.44548  1.0000
  H   H2551     1.0  0.58029  0.01218  0.42271  1.0000
  C   C3173     1.0  0.73818  0.05086  0.47041  1.0000
  C   C3174     1.0  0.99379  0.22195  0.47694  1.0000
  H   H2552     1.0  0.78283  0.03413  0.45060  1.0000
  H   H2553     1.0  0.79015  0.03134  0.40057  1.0000
  C   C3175     1.0  0.94081  0.10519  0.45094  1.0000
  H   H2554     1.0  0.67921  0.10329  0.29533  1.0000
  C   C3176     1.0  0.63132  0.01931  0.26988  1.0000
  C   C3177     1.0  0.71062  0.10315  0.31523  1.0000
  C   C3178     1.0  0.58056  0.03067  0.33969  1.0000
  C   C3179     1.0  0.74263  0.03829  0.48104  1.0000
  H   H2555     1.0  0.63711  0.00764  0.37654  1.0000
  C   C3180     1.0  0.96514  0.17419  0.44601  1.0000
  C   C3181     1.0  0.79879  0.01015  0.36399  1.0000
  C   C3182     1.0  0.98819  0.27408  0.36197  1.0000
  Fe  Fe215     1.0  0.67760  0.00766  0.34205  1.0000
  C   C3183     1.0  0.74282  0.01251  0.43614  1.0000
  H   H2556     1.0  0.79326  0.01237  0.38635  1.0000
  C   C3184     1.0  0.67956  0.07733  0.31770  1.0000
  H   H2557     1.0  0.70903  0.11004  0.33539  1.0000
  H   H2558     1.0  0.90925  0.20351  0.48088  1.0000
  C   C3185     1.0  0.97643  0.17863  0.43432  1.0000
  C   C3186     1.0  0.83630  0.17574  0.45556  1.0000
  C   C3187     1.0  0.99465  0.14974  0.36918  1.0000
  C   C3188     1.0  0.56665  0.00355  0.29428  1.0000
  H   H2559     1.0  0.69315  0.04468  0.30627  1.0000
  C   C3189     1.0  0.55442  0.03177  0.34187  1.0000
  H   H2560     1.0  0.75440  0.01514  0.48434  1.0000
  C   C3190     1.0  0.99872  0.21355  0.43279  1.0000
  H   H2561     1.0  0.62488  0.99242  0.36623  1.0000
  C   C3191     1.0  0.72667  0.01377  0.46019  1.0000
  C   C3192     1.0  0.75193  0.03775  0.45097  1.0000
  H   H2562     1.0  0.82471  0.03892  0.36487  1.0000
  C   C3193     1.0  0.69309  0.05509  0.30861  1.0000
  H   H2563     1.0  0.66307  0.10633  0.34017  1.0000
  C   C3194     1.0  0.59123  0.01240  0.38064  1.0000
  H   H2564     1.0  0.94575  0.18099  0.46236  1.0000
  P   P106      1.0  0.81078  0.03096  0.48819  1.0000
  C   C3195     1.0  0.95057  0.11802  0.38216  1.0000
  C   C3196     1.0  0.95463  0.18448  0.45347  1.0000
  C   C3197     1.0  0.96541  0.27902  0.44332  1.0000
  H   H2565     1.0  0.77261  0.99932  0.34505  1.0000
  C   C3198     1.0  0.83109  0.04822  0.47187  1.0000
  C   C3199     1.0  0.52583  0.02485  0.27518  1.0000
  H   H2566     1.0  0.80201  0.03049  0.30448  1.0000
  H   H2567     1.0  0.97357  0.28517  0.44225  1.0000
  Fe  Fe216     1.0  0.90017  0.25659  0.48297  1.0000
  H   H2568     1.0  0.99103  0.21790  0.36111  1.0000
  H   H2569     1.0  0.98975  0.15824  0.33924  1.0000
  H   H2570     1.0  0.61883  0.00522  0.29884  1.0000
  C   C3200     1.0  0.94030  0.27746  0.44442  1.0000
  C   C3201     1.0  0.94999  0.31511  0.46551  1.0000
  C   C3202     1.0  0.87401  0.13437  0.47906  1.0000
  C   C3203     1.0  0.95095  0.18554  0.34120  1.0000
  C   C3204     1.0  0.61422  0.03256  0.36075  1.0000
  C   C3205     1.0  0.55246  0.11298  0.46281  1.0000
  C   C3206     1.0  0.73843  0.11089  0.30621  1.0000
  P   P107      1.0  0.69273  0.09818  0.32093  1.0000
  C   C3207     1.0  0.70655  0.05895  0.30696  1.0000
  C   C3208     1.0  0.71568  0.10865  0.32459  1.0000
  H   H2571     1.0  0.73364  0.11594  0.32772  1.0000
  C   C3209     1.0  0.64873  0.03792  0.40440  1.0000
  H   H2572     1.0  0.64466  0.03190  0.41536  1.0000
  H   H2573     1.0  0.84761  0.01799  0.40122  1.0000
  H   H2574     1.0  0.93144  0.29020  0.47294  1.0000
  C   C3210     1.0  0.52331  0.02611  0.26119  1.0000
  C   C3211     1.0  0.85352  0.00177  0.44080  1.0000
  H   H2575     1.0  0.71779  0.99279  0.45020  1.0000
  C   C3212     1.0  0.82901  0.01647  0.43762  1.0000
  C   C3213     1.0  0.75610  0.02511  0.46152  1.0000
  C   C3214     1.0  0.95034  0.28604  0.44346  1.0000
  H   H2576     1.0  0.78225  0.07539  0.45988  1.0000
  H   H2577     1.0  0.99321  0.12923  0.38525  1.0000
  H   H2578     1.0  0.94003  0.19303  0.34176  1.0000
  H   H2579     1.0  0.51963  0.99740  0.27992  1.0000
  H   H2580     1.0  0.83311  0.00847  0.34122  1.0000
  C   C3215     1.0  0.72959  0.11232  0.32015  1.0000
  H   H2581     1.0  0.86904  0.25033  0.48482  1.0000
  H   H2582     1.0  0.71705  0.05158  0.30328  1.0000
  C   C3216     1.0  0.65238  0.03108  0.39242  1.0000
  H   H2583     1.0  0.92864  0.28250  0.44455  1.0000
  H   H2584     1.0  0.93844  0.19733  0.48219  1.0000
  C   C3217     1.0  0.79880  0.04038  0.47523  1.0000
  C   C3218     1.0  0.86843  0.24193  0.47963  1.0000
  C   C3219     1.0  0.95562  0.19922  0.44948  1.0000
  C   C3220     1.0  0.92215  0.29781  0.46852  1.0000
  C   C3221     1.0  0.97468  0.17466  0.32693  1.0000
  C   C3222     1.0  0.68047  0.11391  0.31198  1.0000
  H   H2585     1.0  0.71723  0.07391  0.31064  1.0000
  C   C3223     1.0  0.79784  0.99718  0.43214  1.0000
  C   C3224     1.0  0.78074  0.01820  0.42097  1.0000
  C   C3225     1.0  0.63219  0.04143  0.33936  1.0000
  C   C3226     1.0  0.78305  0.03015  0.32267  1.0000
  H   H2586     1.0  0.75194  0.00653  0.42902  1.0000
  C   C3227     1.0  0.67571  0.11329  0.29964  1.0000
  H   H2587     1.0  0.83019  0.06342  0.36016  1.0000
  C   C3228     1.0  0.54399  0.09236  0.46072  1.0000
  C   C3229     1.0  0.71925  0.10240  0.30096  1.0000
  C   C3230     1.0  0.67634  0.12726  0.31684  1.0000
  H   H2588     1.0  0.68031  0.12806  0.32607  1.0000
  H   H2589     1.0  0.90567  0.28974  0.48688  1.0000
  C   C3231     1.0  0.96698  0.20375  0.43792  1.0000
  C   C3232     1.0  0.66654  0.12575  0.29258  1.0000
  H   H2590     1.0  0.85239  0.06596  0.48086  1.0000
  H   H2591     1.0  0.94741  0.20722  0.45525  1.0000
  C   C3233     1.0  0.92470  0.30731  0.45463  1.0000
  H   H2592     1.0  0.55616  0.11849  0.46911  1.0000
  C   C3234     1.0  0.88559  0.12167  0.47886  1.0000
  H   H2593     1.0  0.66682  0.99132  0.45678  1.0000
  C   C3235     1.0  0.94330  0.13121  0.38692  1.0000
  H   H2594     1.0  0.62795  0.04691  0.36059  1.0000
  C   C3236     1.0  0.80990  0.00920  0.35119  1.0000
  S   S430      1.0  0.89556  0.30449  0.40642  1.0000
  H   H2595     1.0  0.95733  0.19121  0.31750  1.0000
  H   H2596     1.0  0.74935  0.11344  0.30296  1.0000
  H   H2597     1.0  0.65521  0.14862  0.29213  1.0000
  C   C3237     1.0  0.54857  0.09928  0.46926  1.0000
  C   C3238     1.0  0.95522  0.31164  0.45148  1.0000
  C   C3239     1.0  0.89786  0.31625  0.45686  1.0000
  C   C3240     1.0  0.98158  0.21796  0.47488  1.0000
  P   P108      1.0  0.94349  0.30560  0.44348  1.0000
  C   C3241     1.0  0.64483  0.05542  0.47868  1.0000
  C   C3242     1.0  0.65736  0.03870  0.37819  1.0000
  H   H2598     1.0  0.98213  0.17368  0.31634  1.0000
  C   C3243     1.0  0.89987  0.18932  0.47385  1.0000
  H   H2599     1.0  0.78444  0.13987  0.44608  1.0000
  C   C3244     1.0  0.64414  0.00793  0.26821  1.0000
  H   H2600     1.0  0.56780  0.04386  0.32340  1.0000
  C   C3245     1.0  0.58265  0.02522  0.38575  1.0000
  H   H2601     1.0  0.60902  0.03223  0.37225  1.0000
  C   C3246     1.0  0.55751  0.99574  0.32062  1.0000
  C   C3247     1.0  0.96136  0.16676  0.41124  1.0000
  H   H2602     1.0  0.88426  0.30552  0.47617  1.0000
  C   C3248     1.0  0.54701  0.11276  0.43976  1.0000
  H   H2603     1.0  0.54858  0.99248  0.30371  1.0000
  H   H2604     1.0  0.87662  0.07589  0.44667  1.0000
  H   H2605     1.0  0.58667  0.01220  0.31367  1.0000
  C   C3249     1.0  0.83838  0.00257  0.39563  1.0000
  H   H2606     1.0  0.76812  0.99273  0.31992  1.0000
  H   H2607     1.0  0.98861  0.17752  0.40062  1.0000
  H   H2608     1.0  0.98574  0.16102  0.47119  1.0000
  H   H2609     1.0  0.55469  0.13025  0.44325  1.0000
  H   H2610     1.0  0.96708  0.18816  0.37050  1.0000
  H   H2611     1.0  0.96756  0.21529  0.43516  1.0000
  C   C3250     1.0  0.73961  0.10431  0.47779  1.0000
  C   C3251     1.0  0.96589  0.24188  0.47836  1.0000
  C   C3252     1.0  0.75274  0.10924  0.47092  1.0000
  H   H2612     1.0  0.87064  0.31070  0.42989  1.0000
  H   H2613     1.0  0.54642  0.11796  0.42838  1.0000
  H   H2614     1.0  0.89680  0.12266  0.47795  1.0000
  C   C3253     1.0  0.93440  0.31259  0.41683  1.0000
  H   H2615     1.0  0.88415  0.09393  0.45534  1.0000
  H   H2616     1.0  0.93859  0.31529  0.47131  1.0000
  H   H2617     1.0  0.61615  0.01800  0.33156  1.0000
  H   H2618     1.0  0.99514  0.12512  0.41102  1.0000
  C   C3254     1.0  0.59527  0.99933  0.39097  1.0000
  H   H2619     1.0  0.86854  0.01379  0.44273  1.0000
  C   C3255     1.0  0.99249  0.24930  0.37690  1.0000
  C   C3256     1.0  0.77905  0.00596  0.33601  1.0000
  C   C3257     1.0  0.82420  0.04175  0.48606  1.0000
  C   C3258     1.0  0.85755  0.01460  0.44112  1.0000
  C   C3259     1.0  0.90760  0.29746  0.47642  1.0000
  C   C3260     1.0  0.51395  0.02504  0.28744  1.0000
  C   C3261     1.0  0.61068  0.02439  0.35263  1.0000
  H   H2620     1.0  0.98079  0.28319  0.33610  1.0000
  C   C3262     1.0  0.66348  0.00657  0.42739  1.0000
  H   H2621     1.0  0.54394  0.01847  0.36166  1.0000
  C   C3263     1.0  0.99120  0.20998  0.38427  1.0000
  C   C3264     1.0  0.97947  0.28616  0.40806  1.0000
  C   C3265     1.0  0.83558  0.00908  0.47914  1.0000
  C   C3266     1.0  0.79247  0.02185  0.40941  1.0000
  C   C3267     1.0  0.99216  0.23619  0.47896  1.0000
  C   C3268     1.0  0.97819  0.24609  0.47978  1.0000
  C   C3269     1.0  0.84127  0.05684  0.47003  1.0000
  H   H2622     1.0  0.92991  0.30276  0.42094  1.0000
  P   P109      1.0  0.50526  0.02884  0.24142  1.0000
  P   P110      1.0  0.99151  0.19964  0.41435  1.0000
  H   H2623     1.0  0.98080  0.28495  0.35992  1.0000
  H   H2624     1.0  0.60742  0.00454  0.26096  1.0000
  H   H2625     1.0  0.96856  0.29148  0.31524  1.0000
  C   C3270     1.0  0.56761  0.03615  0.33398  1.0000
  H   H2626     1.0  0.82796  0.18197  0.46311  1.0000
  C   C3271     1.0  0.57865  0.02511  0.40087  1.0000
  H   H2627     1.0  0.65608  0.05205  0.47252  1.0000
  C   C3272     1.0  0.55418  0.02183  0.35549  1.0000
  H   H2628     1.0  0.76948  0.02464  0.42080  1.0000
  H   H2629     1.0  0.83924  0.01091  0.36362  1.0000
  H   H2630     1.0  0.76528  0.02632  0.34164  1.0000
  C   C3273     1.0  0.85627  0.11972  0.48181  1.0000
  H   H2631     1.0  0.56677  0.00850  0.37174  1.0000
  C   C3274     1.0  0.57819  0.00808  0.31155  1.0000
  C   C3275     1.0  0.66408  0.99253  0.40992  1.0000
  C   C3276     1.0  0.95879  0.31705  0.34837  1.0000
  H   H2632     1.0  0.92432  0.31968  0.39786  1.0000
  H   H2633     1.0  0.80982  0.00324  0.30793  1.0000
  H   H2634     1.0  0.98150  0.32149  0.46999  1.0000
  C   C3277     1.0  0.95942  0.31866  0.47215  1.0000
  C   C3278     1.0  0.56809  0.00169  0.32333  1.0000
  C   C3279     1.0  0.86159  0.99623  0.40408  1.0000
  H   H2635     1.0  0.99017  0.24386  0.41039  1.0000
  C   C3280     1.0  0.94244  0.31623  0.42502  1.0000
  C   C3281     1.0  0.84468  0.05907  0.48235  1.0000
  C   C3282     1.0  0.86785  0.10702  0.48155  1.0000
  H   H2636     1.0  0.76431  0.07823  0.48782  1.0000
  C   C3283     1.0  0.97413  0.31889  0.46478  1.0000
  C   C3284     1.0  0.50716  0.02085  0.33479  1.0000
  H   H2637     1.0  0.98116  0.30411  0.29087  1.0000
  H   H2638     1.0  0.98906  0.28770  0.48155  1.0000
  C   C3285     1.0  0.97918  0.31632  0.45049  1.0000
  H   H2639     1.0  0.82043  0.99321  0.42042  1.0000
  C   C3286     1.0  0.93119  0.32216  0.40373  1.0000
  C   C3287     1.0  0.91239  0.31670  0.44898  1.0000
  H   H2640     1.0  0.75699  0.05809  0.48260  1.0000
  H   H2641     1.0  0.99031  0.31732  0.44451  1.0000
  C   C3288     1.0  0.49950  0.02662  0.28570  1.0000
  H   H2642     1.0  0.53001  0.99116  0.38797  1.0000
  H   H2643     1.0  0.85942  0.20854  0.48849  1.0000
  P   P111      1.0  0.55002  0.09062  0.48815  1.0000
  H   H2644     1.0  0.64023  0.00535  0.48853  1.0000
  H   H2645     1.0  0.91385  0.32407  0.43829  1.0000
  C   C3289     1.0  0.56643  0.09997  0.50252  1.0000
  C   C3290     1.0  0.96995  0.31342  0.57848  1.0000
  C   C3291     1.0  0.99105  0.25862  0.51091  1.0000
  H   H2646     1.0  0.55760  0.02401  0.61460  1.0000
  C   C3292     1.0  0.93613  0.27967  0.56709  1.0000
  H   H2647     1.0  0.63581  0.99619  0.52339  1.0000
  C   C3293     1.0  0.57716  0.03848  0.62275  1.0000
  H   H2648     1.0  0.53245  0.00809  0.53200  1.0000
  C   C3294     1.0  0.95884  0.27565  0.54845  1.0000
  C   C3295     1.0  0.55875  0.00740  0.66115  1.0000
  C   C3296     1.0  0.93373  0.26608  0.56690  1.0000
  C   C3297     1.0  0.63009  0.02905  0.58517  1.0000
  H   H2649     1.0  0.55322  0.06544  0.64845  1.0000
  H   H2650     1.0  0.98130  0.25644  0.55981  1.0000
  C   C3298     1.0  0.94867  0.28445  0.55785  1.0000
  C   C3299     1.0  0.63080  0.04342  0.58481  1.0000
  C   C3300     1.0  0.74210  0.05357  0.50398  1.0000
  C   C3301     1.0  0.87960  0.18000  0.49171  1.0000
  H   H2651     1.0  0.57752  0.07622  0.52938  1.0000
  H   H2652     1.0  0.75410  0.08542  0.51206  1.0000
  C   C3302     1.0  0.68530  0.04596  0.50698  1.0000
  H   H2653     1.0  0.82277  0.03891  0.50947  1.0000
  Fe  Fe217     1.0  0.50283  0.04190  0.56543  1.0000
  C   C3303     1.0  0.57715  0.02271  0.57381  1.0000
  H   H2654     1.0  0.86002  0.22820  0.50019  1.0000
  H   H2655     1.0  0.55311  0.01402  0.63986  1.0000
  C   C3304     1.0  0.95545  0.21289  0.54239  1.0000
  S   S431      1.0  0.91765  0.25722  0.52762  1.0000
  H   H2656     1.0  0.65769  0.01245  0.49893  1.0000
  H   H2657     1.0  0.73662  0.07193  0.53140  1.0000
  C   C3305     1.0  0.99118  0.19683  0.51981  1.0000
  C   C3306     1.0  0.51307  0.11942  0.50618  1.0000
  C   C3307     1.0  0.53266  0.00109  0.63229  1.0000
  H   H2658     1.0  0.62373  0.02207  0.55685  1.0000
  C   C3308     1.0  0.61378  0.03177  0.53795  1.0000
  C   C3309     1.0  0.96044  0.22412  0.54490  1.0000
  C   C3310     1.0  0.93046  0.30206  0.51613  1.0000
  C   C3311     1.0  0.92533  0.29547  0.53082  1.0000
  C   C3312     1.0  0.92145  0.28170  0.53421  1.0000
  C   C3313     1.0  0.92290  0.27433  0.52302  1.0000
  C   C3314     1.0  0.88106  0.18719  0.50191  1.0000
  H   H2659     1.0  0.87810  0.09495  0.50899  1.0000
  H   H2660     1.0  0.92386  0.30121  0.53950  1.0000
  H   H2661     1.0  0.91697  0.27690  0.54550  1.0000
  C   C3315     1.0  0.76067  0.01823  0.50966  1.0000
  C   C3316     1.0  0.59798  0.07387  0.53587  1.0000
  H   H2662     1.0  0.60267  0.10286  0.49436  1.0000
  S   S432      1.0  0.53109  0.04076  0.63997  1.0000
  C   C3317     1.0  0.67286  0.00461  0.56689  1.0000
  H   H2663     1.0  0.76710  0.04579  0.52715  1.0000
  H   H2664     1.0  0.87366  0.29516  0.51256  1.0000
  H   H2665     1.0  0.54534  0.02755  0.68776  1.0000
  C   C3318     1.0  0.56332  0.02349  0.60329  1.0000
  H   H2666     1.0  0.50693  0.13069  0.50295  1.0000
  H   H2667     1.0  0.96861  0.27947  0.54146  1.0000
  H   H2668     1.0  0.92219  0.19190  0.50682  1.0000
  H   H2669     1.0  0.53191  0.07761  0.68137  1.0000
  H   H2670     1.0  0.53153  0.04425  0.66881  1.0000
  C   C3319     1.0  0.52918  0.12268  0.54026  1.0000
  H   H2671     1.0  0.55928  0.00665  0.73474  1.0000
  H   H2672     1.0  0.92620  0.06098  0.51778  1.0000
  C   C3320     1.0  0.53864  0.05103  0.49500  1.0000
  C   C3321     1.0  0.52136  0.11229  0.54970  1.0000
  H   H2673     1.0  0.59948  0.00306  0.70129  1.0000
  P   P112      1.0  0.98489  0.16814  0.49902  1.0000
  H   H2674     1.0  0.58237  0.02246  0.56236  1.0000
  H   H2675     1.0  0.77520  0.02443  0.54664  1.0000
  H   H2676     1.0  0.87368  0.18639  0.51270  1.0000
  H   H2677     1.0  0.78243  0.04886  0.50194  1.0000
  H   H2678     1.0  0.60786  0.04187  0.54176  1.0000
  H   H2679     1.0  0.92383  0.26251  0.57381  1.0000
  C   C3322     1.0  0.53027  0.08427  0.70143  1.0000
  C   C3323     1.0  0.55571  0.02106  0.59400  1.0000
  H   H2680     1.0  0.99891  0.24872  0.51480  1.0000
  H   H2681     1.0  0.55661  0.01889  0.57212  1.0000
  C   C3324     1.0  0.95653  0.26195  0.54820  1.0000
  C   C3325     1.0  0.62948  0.00589  0.52778  1.0000
  C   C3326     1.0  0.58497  0.99785  0.62636  1.0000
  C   C3327     1.0  0.57898  0.03584  0.63730  1.0000
  P   P113      1.0  0.58856  0.02616  0.61069  1.0000
  H   H2682     1.0  0.85748  0.31616  0.49866  1.0000
  S   S433      1.0  0.89147  0.20626  0.51062  1.0000
  C   C3328     1.0  0.62069  0.01728  0.51919  1.0000
  C   C3329     1.0  0.65660  0.00056  0.55358  1.0000
  C   C3330     1.0  0.65999  0.00134  0.49712  1.0000
  C   C3331     1.0  0.55226  0.04077  0.49544  1.0000
  C   C3332     1.0  0.73684  0.05727  0.51791  1.0000
  H   H2683     1.0  0.64076  0.04741  0.57878  1.0000
  H   H2684     1.0  0.94148  0.24705  0.55712  1.0000
  C   C3333     1.0  0.76786  0.00459  0.51707  1.0000
  H   H2685     1.0  0.87109  0.17371  0.49470  1.0000
  C   C3334     1.0  0.79951  0.02903  0.50673  1.0000
  C   C3335     1.0  0.51002  0.01630  0.70455  1.0000
  C   C3336     1.0  0.56021  0.05816  0.64118  1.0000
  H   H2686     1.0  0.54363  0.03467  0.52838  1.0000
  C   C3337     1.0  0.60485  0.07178  0.54758  1.0000
  C   C3338     1.0  0.59640  0.07041  0.56204  1.0000
  C   C3339     1.0  0.58107  0.07117  0.56482  1.0000
  C   C3340     1.0  0.57408  0.07338  0.55309  1.0000
  C   C3341     1.0  0.58268  0.07465  0.53859  1.0000
  P   P114      1.0  0.55423  0.07469  0.55638  1.0000
  C   C3342     1.0  0.55096  0.06178  0.54766  1.0000
  C   C3343     1.0  0.54610  0.07089  0.57588  1.0000
  C   C3344     1.0  0.54172  0.05754  0.58281  1.0000
  C   C3345     1.0  0.53423  0.05529  0.59762  1.0000
  C   C3346     1.0  0.53098  0.06640  0.60550  1.0000
  C   C3347     1.0  0.53528  0.07974  0.59871  1.0000
  C   C3348     1.0  0.54299  0.08193  0.58400  1.0000
  C   C3349     1.0  0.53647  0.06261  0.54637  1.0000
  H   H2687     1.0  0.71764  0.02169  0.49637  1.0000
  C   C3350     1.0  0.54571  0.04228  0.53364  1.0000
  C   C3351     1.0  0.56010  0.04096  0.53533  1.0000
  C   C3352     1.0  0.56273  0.05057  0.54241  1.0000
  C   C3353     1.0  0.54453  0.09339  0.54951  1.0000
  H   H2688     1.0  0.55011  0.07041  0.62284  1.0000
  C   C3354     1.0  0.52898  0.09775  0.55432  1.0000
  H   H2689     1.0  0.61672  0.07125  0.54542  1.0000
  H   H2690     1.0  0.60170  0.06892  0.57108  1.0000
  H   H2691     1.0  0.57476  0.07009  0.57611  1.0000
  H   H2692     1.0  0.54363  0.04906  0.57672  1.0000
  H   H2693     1.0  0.53037  0.04518  0.60295  1.0000
  H   H2694     1.0  0.52460  0.06486  0.61674  1.0000
  H   H2695     1.0  0.53210  0.08854  0.60475  1.0000
  H   H2696     1.0  0.54594  0.09247  0.57884  1.0000
  H   H2697     1.0  0.52705  0.07049  0.55102  1.0000
  S   S434      1.0  0.56321  0.99784  0.68909  1.0000
  H   H2698     1.0  0.56912  0.03225  0.53137  1.0000
  H   H2699     1.0  0.57391  0.04901  0.54390  1.0000
  H   H2700     1.0  0.52275  0.09002  0.56206  1.0000
  H   H2701     1.0  0.51006  0.04647  0.71628  1.0000
  C   C3355     1.0  0.58219  0.02255  0.69674  1.0000
  C   C3356     1.0  0.60503  0.03305  0.60052  1.0000
  H   H2702     1.0  0.90590  0.06765  0.53891  1.0000
  C   C3357     1.0  0.56567  0.01139  0.72425  1.0000
  C   C3358     1.0  0.55934  0.02485  0.71565  1.0000
  C   C3359     1.0  0.56773  0.03035  0.70183  1.0000
  P   P115      1.0  0.54024  0.03417  0.72208  1.0000
  C   C3360     1.0  0.60585  0.04749  0.60012  1.0000
  C   C3361     1.0  0.56506  0.04549  0.49447  1.0000
  C   C3362     1.0  0.61733  0.02383  0.59309  1.0000
  H   H2703     1.0  0.50144  0.05548  0.58832  1.0000
  C   C3363     1.0  0.58490  0.02492  0.58313  1.0000
  H   H2704     1.0  0.59634  0.99274  0.59321  1.0000
  H   H2705     1.0  0.81469  0.00921  0.51562  1.0000
  C   C3364     1.0  0.55235  0.10405  0.54039  1.0000
  H   H2706     1.0  0.57448  0.06388  0.49190  1.0000
  C   C3365     1.0  0.66092  0.99893  0.56687  1.0000
  C   C3366     1.0  0.57052  0.04564  0.64647  1.0000
  C   C3367     1.0  0.83802  0.05251  0.49654  1.0000
  C   C3368     1.0  0.53692  0.05385  0.71402  1.0000
  C   C3369     1.0  0.55142  0.01698  0.65029  1.0000
  C   C3370     1.0  0.79549  0.01555  0.53227  1.0000
  C   C3371     1.0  0.56681  0.05112  0.61749  1.0000
  C   C3372     1.0  0.53080  0.07953  0.71636  1.0000
  C   C3373     1.0  0.53410  0.06440  0.72266  1.0000
  C   C3374     1.0  0.98941  0.14814  0.50286  1.0000
  C   C3375     1.0  0.73682  0.01147  0.52031  1.0000
  H   H2707     1.0  0.52779  0.01035  0.63774  1.0000
  H   H2708     1.0  0.92816  0.28659  0.57423  1.0000
  H   H2709     1.0  0.56310  0.04044  0.69478  1.0000
  H   H2710     1.0  0.67339  0.04792  0.50776  1.0000
  P   P116      1.0  0.97028  0.25039  0.53656  1.0000
  C   C3376     1.0  0.98575  0.19058  0.51146  1.0000
  H   H2711     1.0  0.59615  0.02639  0.57861  1.0000
  H   H2712     1.0  0.55623  0.10225  0.51066  1.0000
  H   H2713     1.0  0.57150  0.04322  0.65787  1.0000
  C   C3377     1.0  0.89075  0.08169  0.52515  1.0000
  C   C3378     1.0  0.54397  0.00455  0.52666  1.0000
  C   C3379     1.0  0.96504  0.17567  0.50121  1.0000
  C   C3380     1.0  0.74510  0.02171  0.51111  1.0000
  C   C3381     1.0  0.75959  0.99432  0.52592  1.0000
  H   H2714     1.0  0.96194  0.24666  0.51064  1.0000
  H   H2715     1.0  0.52824  0.08762  0.72313  1.0000
  H   H2716     1.0  0.60990  0.00136  0.56811  1.0000
  C   C3382     1.0  0.95555  0.22594  0.51711  1.0000
  C   C3383     1.0  0.57935  0.10322  0.50381  1.0000
  H   H2717     1.0  0.52724  0.09598  0.69662  1.0000
  H   H2718     1.0  0.94912  0.20515  0.52646  1.0000
  C   C3384     1.0  0.58842  0.00925  0.70540  1.0000
  C   C3385     1.0  0.60748  0.00424  0.62709  1.0000
  Fe  Fe218     1.0  0.98162  0.31437  0.52653  1.0000
  C   C3386     1.0  0.74409  0.99778  0.52758  1.0000
  H   H2719     1.0  0.97792  0.19768  0.50477  1.0000
  H   H2720     1.0  0.51184  0.08956  0.53470  1.0000
  C   C3387     1.0  0.98552  0.28050  0.49193  1.0000
  C   C3388     1.0  0.55844  0.06093  0.62669  1.0000
  S   S435      1.0  0.89219  0.24793  0.50707  1.0000
  H   H2721     1.0  0.72917  0.05149  0.52638  1.0000
  H   H2722     1.0  0.89758  0.29798  0.51548  1.0000
  C   C3389     1.0  0.53231  0.01225  0.71381  1.0000
  C   C3390     1.0  0.61873  0.05259  0.59237  1.0000
  H   H2723     1.0  0.56435  0.10134  0.53714  1.0000
  H   H2724     1.0  0.98752  0.20861  0.51951  1.0000
  H   H2725     1.0  0.88190  0.08463  0.53437  1.0000
  C   C3391     1.0  0.52587  0.11345  0.49654  1.0000
  C   C3392     1.0  0.95577  0.17321  0.51532  1.0000
  Fe  Fe219     1.0  0.52777  0.01474  0.56128  1.0000
  H   H2726     1.0  0.99732  0.31818  0.55918  1.0000
  C   C3393     1.0  0.98556  0.24082  0.54576  1.0000
  C   C3394     1.0  0.52778  0.02657  0.71667  1.0000
  C   C3395     1.0  0.55090  0.07101  0.49160  1.0000
  H   H2727     1.0  0.59664  0.05483  0.60585  1.0000
  S   S436      1.0  0.50818  0.02579  0.55053  1.0000
  H   H2728     1.0  0.95053  0.29502  0.55786  1.0000
  C   C3396     1.0  0.80426  0.01722  0.51795  1.0000
  H   H2729     1.0  0.76726  0.02585  0.50236  1.0000
  H   H2730     1.0  0.97222  0.30522  0.57185  1.0000
  H   H2731     1.0  0.61703  0.01259  0.59347  1.0000
  H   H2732     1.0  0.58843  0.02664  0.68589  1.0000
  H   H2733     1.0  0.56501  0.05331  0.60640  1.0000
  H   H2734     1.0  0.68373  0.06658  0.51255  1.0000
  H   H2735     1.0  0.55078  0.12676  0.52865  1.0000
  C   C3397     1.0  0.62272  0.02051  0.54649  1.0000
  H   H2736     1.0  0.50940  0.11553  0.55367  1.0000
  C   C3398     1.0  0.98804  0.24617  0.55687  1.0000
  C   C3399     1.0  0.57812  0.02511  0.59804  1.0000
  S   S437      1.0  0.51256  0.01460  0.61481  1.0000
  S   S438      1.0  0.52359  0.03200  0.57428  1.0000
  H   H2737     1.0  0.51609  0.12240  0.73815  1.0000
  C   C3400     1.0  0.78205  0.02579  0.53557  1.0000
  H   H2738     1.0  0.95475  0.27686  0.51908  1.0000
  H   H2739     1.0  0.53398  0.06111  0.73431  1.0000
  C   C3401     1.0  0.53927  0.03408  0.66661  1.0000
  H   H2740     1.0  0.52325  0.13398  0.53679  1.0000
  H   H2741     1.0  0.60455  0.07488  0.52467  1.0000
  C   C3402     1.0  0.52357  0.00724  0.70755  1.0000
  H   H2742     1.0  0.60466  0.06717  0.50124  1.0000
  C   C3403     1.0  0.61272  0.03012  0.52433  1.0000
  H   H2743     1.0  0.61936  0.06368  0.59225  1.0000
  C   C3404     1.0  0.58019  0.00372  0.71919  1.0000
  H   H2744     1.0  0.96249  0.22320  0.55567  1.0000
  H   H2745     1.0  0.54286  0.00510  0.71579  1.0000
  C   C3405     1.0  0.95300  0.21380  0.52849  1.0000
  H   H2746     1.0  0.95350  0.20346  0.55121  1.0000
  C   C3406     1.0  0.94381  0.25729  0.55740  1.0000
  C   C3407     1.0  0.97029  0.30899  0.59349  1.0000
  C   C3408     1.0  0.89041  0.30724  0.50963  1.0000
  H   H2747     1.0  0.53737  0.05103  0.69232  1.0000
  C   C3409     1.0  0.74112  0.06875  0.52082  1.0000
  C   C3410     1.0  0.53605  0.05880  0.69908  1.0000
  H   H2748     1.0  0.52265  0.05373  0.53834  1.0000
  C   C3411     1.0  0.53292  0.07390  0.69281  1.0000
  C   C3412     1.0  0.52880  0.09037  0.51458  1.0000
  C   C3413     1.0  0.53390  0.05301  0.53926  1.0000
  H   H2749     1.0  0.93526  0.29992  0.49360  1.0000
  H   H2750     1.0  0.66131  0.00938  0.52998  1.0000
  C   C3414     1.0  0.86778  0.31753  0.50021  1.0000
  C   C3415     1.0  0.51393  0.03545  0.71401  1.0000
  H   H2751     1.0  0.57895  0.99581  0.53304  1.0000
  C   C3416     1.0  0.99090  0.17544  0.51121  1.0000
  C   C3417     1.0  0.97640  0.26201  0.51904  1.0000
  H   H2752     1.0  0.63950  0.02194  0.57939  1.0000
  C   C3418     1.0  0.96026  0.23732  0.51964  1.0000
  H   H2753     1.0  0.79910  0.00625  0.54078  1.0000
  H   H2754     1.0  0.51452  0.13250  0.71200  1.0000
  H   H2755     1.0  0.93317  0.17698  0.52817  1.0000
  H   H2756     1.0  0.96049  0.16681  0.52477  1.0000
  S   S439      1.0  0.93279  0.32038  0.51136  1.0000
  C   C3419     1.0  0.77747  0.03781  0.52459  1.0000
  C   C3420     1.0  0.63028  0.00729  0.54167  1.0000
  C   C3421     1.0  0.92818  0.28089  0.50838  1.0000
  C   C3422     1.0  0.96621  0.27435  0.51317  1.0000
  C   C3423     1.0  0.54125  0.03000  0.65322  1.0000
  H   H2757     1.0  0.95380  0.22661  0.50630  1.0000
  C   C3424     1.0  0.56261  0.02066  0.57929  1.0000
  H   H2758     1.0  0.62023  0.01629  0.50839  1.0000
  C   C3425     1.0  0.54711  0.02472  0.67727  1.0000
  H   H2759     1.0  0.57556  0.03743  0.49504  1.0000
  C   C3426     1.0  0.96280  0.23648  0.53355  1.0000
  C   C3427     1.0  0.54468  0.11858  0.53565  1.0000
  C   C3428     1.0  0.90427  0.07213  0.52771  1.0000
  H   H2760     1.0  0.53480  0.07914  0.51802  1.0000
  S   S440      1.0  0.51564  0.08188  0.64047  1.0000
  C   C3429     1.0  0.55635  0.01113  0.67475  1.0000
  H   H2761     1.0  0.54434  0.01966  0.59820  1.0000
  Fe  Fe220     1.0  0.50996  0.01788  0.59175  1.0000
  C   C3430     1.0  0.69491  0.03343  0.50223  1.0000
  H   H2762     1.0  0.60597  0.03889  0.51758  1.0000
  H   H2763     1.0  0.97280  0.29731  0.59852  1.0000
  Fe  Fe221     1.0  0.51224  0.05876  0.64772  1.0000
  H   H2764     1.0  0.71085  0.06309  0.50919  1.0000
  C   C3431     1.0  0.69114  0.05643  0.50977  1.0000
  C   C3432     1.0  0.93163  0.29481  0.50494  1.0000
  S   S441      1.0  0.51577  0.99975  0.57956  1.0000
  C   C3433     1.0  0.78621  0.03949  0.51025  1.0000
  C   C3434     1.0  0.59262  0.10045  0.49334  1.0000
  H   H2765     1.0  0.69006  0.01600  0.55360  1.0000
  H   H2766     1.0  0.58664  0.02607  0.64178  1.0000
  C   C3435     1.0  0.66426  0.00814  0.54042  1.0000
  C   C3436     1.0  0.71630  0.04151  0.50365  1.0000
  H   H2767     1.0  0.52743  0.99638  0.70485  1.0000
  C   C3437     1.0  0.70659  0.05433  0.50795  1.0000
  H   H2768     1.0  0.72485  0.01376  0.52165  1.0000
  S   S442      1.0  0.97612  0.31396  0.50544  1.0000
  Fe  Fe222     1.0  0.91480  0.24855  0.50912  1.0000
  C   C3438     1.0  0.94035  0.17894  0.51731  1.0000
  C   C3439     1.0  0.93412  0.18735  0.50529  1.0000
  C   C3440     1.0  0.95875  0.18451  0.48926  1.0000
  C   C3441     1.0  0.59421  0.00799  0.62188  1.0000
  S   S443      1.0  0.55170  0.00554  0.55184  1.0000
  C   C3442     1.0  0.99570  0.26813  0.49762  1.0000
  C   C3443     1.0  0.71033  0.03123  0.50052  1.0000
  H   H2769     1.0  0.90552  0.32151  0.50446  1.0000
  C   C3444     1.0  0.97071  0.28346  0.49960  1.0000
  C   C3445     1.0  0.61585  0.06383  0.49498  1.0000
  C   C3446     1.0  0.56440  0.06054  0.49261  1.0000
  C   C3447     1.0  0.99505  0.22775  0.54191  1.0000
  C   C3448     1.0  0.88865  0.08755  0.51070  1.0000
  C   C3449     1.0  0.51587  0.09628  0.52409  1.0000
  C   C3450     1.0  0.68059  0.01188  0.55368  1.0000
  S   S444      1.0  0.68549  0.99600  0.50756  1.0000
  C   C3451     1.0  0.87688  0.30568  0.50803  1.0000
  C   C3452     1.0  0.96764  0.31962  0.60191  1.0000
  H   H2770     1.0  0.55292  0.02916  0.49652  1.0000
  H   H2771     1.0  0.99360  0.22366  0.53312  1.0000
  S   S445      1.0  0.92423  0.22500  0.50660  1.0000
  C   C3453     1.0  0.75242  0.06090  0.49333  1.0000
  C   C3454     1.0  0.75101  0.07631  0.50997  1.0000
  Fe  Fe223     1.0  0.90258  0.22556  0.50158  1.0000
  C   C3455     1.0  0.89485  0.32062  0.50342  1.0000
  H   H2772     1.0  0.61454  0.01202  0.62429  1.0000
  H   H2773     1.0  0.92960  0.27530  0.49967  1.0000
  H   H2774     1.0  0.56589  0.99689  0.65918  1.0000
  C   C3456     1.0  0.50465  0.13447  0.72064  1.0000
  H   H2775     1.0  0.52868  0.04727  0.49601  1.0000
  H   H2776     1.0  0.84068  0.05422  0.50608  1.0000
  S   S446      1.0  0.99381  0.29746  0.54307  1.0000
  H   H2777     1.0  0.65524  0.99327  0.57722  1.0000
  C   C3457     1.0  0.53376  0.09880  0.50062  1.0000
  C   C3458     1.0  0.75678  0.07226  0.49631  1.0000
  S   S447      1.0  0.60480  0.00655  0.49015  1.0000
  C   C3459     1.0  0.53794  0.06610  0.49312  1.0000
  H   H2778     1.0  0.96275  0.29295  0.49515  1.0000
  C   C3460     1.0  0.56258  0.99825  0.50509  1.0000
  H   H2779     1.0  0.96829  0.31604  0.61343  1.0000
  C   C3461     1.0  0.62723  0.06991  0.49565  1.0000
  P   P117      1.0  0.73634  0.03883  0.50032  1.0000
  C   C3462     1.0  0.54759  0.00248  0.51210  1.0000
  C   C3463     1.0  0.82783  0.04385  0.49841  1.0000
  H   H2780     1.0  0.58492  0.99328  0.72579  1.0000
  C   C3464     1.0  0.52781  0.00079  0.61999  1.0000
  H   H2781     1.0  0.62484  0.07792  0.50245  1.0000
  C   C3465     1.0  0.50550  0.12879  0.73546  1.0000
  H   H2782     1.0  0.69045  0.02563  0.49943  1.0000
  H   H2783     1.0  0.68247  0.01892  0.53016  1.0000
  H   H2784     1.0  0.53887  0.00481  0.50607  1.0000
  C   C3466     1.0  0.57019  0.99744  0.52731  1.0000
  C   C3467     1.0  0.55537  0.00226  0.53412  1.0000
  C   C3468     1.0  0.98193  0.12467  0.50978  1.0000
  C   C3469     1.0  0.57375  0.99510  0.51296  1.0000
  Fe  Fe224     1.0  0.50012  0.08515  0.66218  1.0000
  C   C3470     1.0  0.49892  0.06743  0.58606  1.0000
  C   C3471     1.0  0.67628  0.01363  0.54048  1.0000
  H   H2785     1.0  0.50060  0.06823  0.60759  1.0000
  C   C3472     1.0  0.91570  0.06837  0.51582  1.0000
  H   H2786     1.0  0.57444  0.00047  0.62304  1.0000
  H   H2787     1.0  0.57913  0.10798  0.51285  1.0000
  H   H2788     1.0  0.77989  0.00177  0.51569  1.0000
  H   H2789     1.0  0.67633  0.00314  0.57711  1.0000
  C   C3473     1.0  0.61591  0.99277  0.57557  1.0000
  H   H2790     1.0  0.97320  0.11856  0.51353  1.0000
  P   P118      1.0  0.64171  0.99283  0.55289  1.0000
  C   C3474     1.0  0.91364  0.07421  0.50136  1.0000
  H   H2791     1.0  0.80030  0.00382  0.49405  1.0000
  C   C3475     1.0  0.97818  0.14009  0.50798  1.0000
  C   C3476     1.0  0.50801  0.11080  0.51990  1.0000
  C   C3477     1.0  0.89140  0.19608  0.49793  1.0000
  S   S448      1.0  0.50339  0.09814  0.67688  1.0000
  C   C3478     1.0  0.56673  0.09405  0.49061  1.0000
  H   H2792     1.0  0.96652  0.14561  0.51020  1.0000
  H   H2793     1.0  0.50080  0.02825  0.64976  1.0000
  C   C3479     1.0  0.99686  0.11720  0.50635  1.0000
  H   H2794     1.0  0.50882  0.99213  0.65168  1.0000
  C   C3480     1.0  0.90013  0.08391  0.49869  1.0000
  H   H2795     1.0  0.50337  0.01242  0.69957  1.0000
  C   C3481     1.0  0.50515  0.03036  0.70787  1.0000
  S   S449      1.0  0.65541  0.07381  0.48917  1.0000
  H   H2796     1.0  0.52732  0.07394  0.49264  1.0000
  C   C3482     1.0  0.65010  0.99733  0.49127  1.0000
  H   H2797     1.0  0.92261  0.07120  0.49224  1.0000
  H   H2798     1.0  0.51259  0.99621  0.73797  1.0000
  C   C3483     1.0  0.94331  0.19027  0.49133  1.0000
  C   C3484     1.0  0.81221  0.00136  0.48967  1.0000
  H   H2799     1.0  0.90093  0.05897  0.48960  1.0000
  S   S450      1.0  0.95804  0.32406  0.53702  1.0000
  C   C3485     1.0  0.67300  0.99107  0.50034  1.0000
  C   C3486     1.0  0.60492  0.26972  0.89162  1.0000
  H   H2800     1.0  0.54527  0.11252  0.94178  1.0000
  H   H2801     1.0  0.57301  0.28560  0.87315  1.0000
  C   C3487     1.0  0.53533  0.28065  0.98298  1.0000
  Fe  Fe225     1.0  0.57577  0.24514  0.83701  1.0000
  S   S451      1.0  0.56386  0.24108  0.86052  1.0000
  S   S452      1.0  0.58864  0.26322  0.82877  1.0000
  Fe  Fe226     1.0  0.56331  0.22196  0.82993  1.0000
  S   S453      1.0  0.54989  0.21688  0.85294  1.0000
  S   S454      1.0  0.56362  0.21083  0.81189  1.0000
  Fe  Fe227     1.0  0.54467  0.24140  0.85146  1.0000
  S   S455      1.0  0.59024  0.31929  0.90095  1.0000
  Fe  Fe228     1.0  0.57074  0.21718  0.85928  1.0000
  S   S456      1.0  0.58037  0.20064  0.87739  1.0000
  S   S457      1.0  0.55614  0.24667  0.82776  1.0000
  S   S458      1.0  0.58458  0.22096  0.83636  1.0000
  Fe  Fe229     1.0  0.55675  0.19002  0.98223  1.0000
  S   S459      1.0  0.53466  0.20155  0.97664  1.0000
  H   H2802     1.0  0.50175  0.00068  0.79316  1.0000
  Fe  Fe230     1.0  0.57004  0.21681  0.96745  1.0000
  S   S460      1.0  0.54911  0.23093  0.96051  1.0000
  C   C3488     1.0  0.58820  0.27557  0.83969  1.0000
  H   H2803     1.0  0.49995  0.25828  0.96450  1.0000
  H   H2804     1.0  0.53779  0.26722  0.75730  1.0000
  Fe  Fe231     1.0  0.54740  0.21073  0.95452  1.0000
  S   S461      1.0  0.53616  0.21566  0.93558  1.0000
  C   C3489     1.0  0.50376  0.22796  0.77150  1.0000
  S   S462      1.0  0.56966  0.19719  0.95928  1.0000
  C   C3490     1.0  0.67568  0.32251  0.86183  1.0000
  C   C3491     1.0  0.49940  0.21362  0.92267  1.0000
  C   C3492     1.0  0.50940  0.23707  0.87680  1.0000
  H   H2805     1.0  0.54876  0.24474  0.89584  1.0000
  H   H2806     1.0  0.51939  0.20685  0.80051  1.0000
  C   C3493     1.0  0.55546  0.19573  0.81435  1.0000
  C   C3494     1.0  0.55695  0.19031  0.80183  1.0000
  C   C3495     1.0  0.54967  0.17937  0.80251  1.0000
  C   C3496     1.0  0.54078  0.17354  0.81575  1.0000
  C   C3497     1.0  0.53944  0.17864  0.82852  1.0000
  C   C3498     1.0  0.54681  0.18974  0.82783  1.0000
  H   H2807     1.0  0.56368  0.19474  0.79144  1.0000
  H   H2808     1.0  0.55092  0.17543  0.79264  1.0000
  C   C3499     1.0  0.51154  0.08104  0.75610  1.0000
  H   H2809     1.0  0.54575  0.19371  0.83762  1.0000
  C   C3500     1.0  0.56805  0.20419  0.89374  1.0000
  C   C3501     1.0  0.57260  0.19864  0.90719  1.0000
  C   C3502     1.0  0.56281  0.20212  0.92018  1.0000
  C   C3503     1.0  0.54847  0.21095  0.91967  1.0000
  C   C3504     1.0  0.54385  0.21621  0.90627  1.0000
  C   C3505     1.0  0.55370  0.21297  0.89328  1.0000
  H   H2810     1.0  0.58373  0.19189  0.90753  1.0000
  H   H2811     1.0  0.56634  0.19793  0.93054  1.0000
  H   H2812     1.0  0.53274  0.22298  0.90590  1.0000
  H   H2813     1.0  0.55010  0.21719  0.88295  1.0000
  C   C3506     1.0  0.59350  0.27244  0.94359  1.0000
  C   C3507     1.0  0.60477  0.26261  0.95035  1.0000
  C   C3508     1.0  0.57157  0.24284  0.89628  1.0000
  C   C3509     1.0  0.59179  0.24284  0.95582  1.0000
  C   C3510     1.0  0.58042  0.25269  0.94912  1.0000
  C   C3511     1.0  0.58126  0.26753  0.94302  1.0000
  C   C3512     1.0  0.60605  0.23826  0.87786  1.0000
  C   C3513     1.0  0.60932  0.31841  0.97872  1.0000
  H   H2814     1.0  0.57102  0.24889  0.94861  1.0000
  H   H2815     1.0  0.57243  0.27517  0.93796  1.0000
  H   H2816     1.0  0.57280  0.26738  0.85916  1.0000
  C   C3514     1.0  0.60732  0.22327  0.86071  1.0000
  C   C3515     1.0  0.53885  0.14451  0.98169  1.0000
  H   H2817     1.0  0.55642  0.03977  0.74084  1.0000
  C   C3516     1.0  0.60958  0.30393  0.96152  1.0000
  H   H2818     1.0  0.61278  0.24027  0.96150  1.0000
  H   H2819     1.0  0.52593  0.25732  0.95093  1.0000
  C   C3517     1.0  0.50421  0.10330  0.76605  1.0000
  H   H2820     1.0  0.53113  0.25997  0.98237  1.0000
  H   H2821     1.0  0.60542  0.21349  0.85870  1.0000
  H   H2822     1.0  0.52435  0.31401  0.79143  1.0000
  C   C3518     1.0  0.60406  0.22542  0.87513  1.0000
  H   H2823     1.0  0.54138  0.21534  0.78429  1.0000
  H   H2824     1.0  0.52181  0.26603  0.82652  1.0000
  S   S463      1.0  0.59503  0.29081  0.93614  1.0000
  C   C3519     1.0  0.53087  0.21886  0.78069  1.0000
  H   H2825     1.0  0.53264  0.14222  0.94723  1.0000
  H   H2826     1.0  0.53382  0.16513  0.98885  1.0000
  S   S464      1.0  0.50881  0.15186  0.85711  1.0000
  C   C3520     1.0  0.51857  0.14838  0.77020  1.0000
  H   H2827     1.0  0.52497  0.07483  0.78699  1.0000
  C   C3521     1.0  0.52863  0.15411  0.94567  1.0000
  P   P119      1.0  0.60128  0.24097  0.89663  1.0000
  C   C3522     1.0  0.50752  0.26985  0.78593  1.0000
  C   C3523     1.0  0.52437  0.02200  0.76658  1.0000
  H   H2828     1.0  0.53312  0.99239  0.79088  1.0000
  H   H2829     1.0  0.60665  0.29217  0.88844  1.0000
  C   C3524     1.0  0.54230  0.15545  0.98651  1.0000
  H   H2830     1.0  0.52076  0.30265  0.95228  1.0000
  H   H2831     1.0  0.53979  0.23158  0.75970  1.0000
  C   C3525     1.0  0.59741  0.29598  0.84142  1.0000
  C   C3526     1.0  0.59951  0.22000  0.92321  1.0000
  C   C3527     1.0  0.63826  0.31322  0.92556  1.0000
  H   H2832     1.0  0.70632  0.31952  0.92325  1.0000
  H   H2833     1.0  0.68055  0.31082  0.86228  1.0000
  C   C3528     1.0  0.54615  0.28817  0.98243  1.0000
  C   C3529     1.0  0.50009  0.19266  0.83710  1.0000
  C   C3530     1.0  0.51249  0.26079  0.90405  1.0000
  C   C3531     1.0  0.60931  0.25492  0.89882  1.0000
  C   C3532     1.0  0.52996  0.22805  0.76685  1.0000
  H   H2834     1.0  0.51692  0.23227  0.96469  1.0000
  H   H2835     1.0  0.50811  0.29911  0.78938  1.0000
  H   H2836     1.0  0.50571  0.19180  0.97837  1.0000
  H   H2837     1.0  0.55768  0.24656  0.98018  1.0000
  H   H2838     1.0  0.62160  0.24033  0.91519  1.0000
  S   S465      1.0  0.53198  0.15983  0.81531  1.0000
  C   C3533     1.0  0.50700  0.22921  0.97204  1.0000
  C   C3534     1.0  0.51939  0.07356  0.76726  1.0000
  C   C3535     1.0  0.60397  0.24785  0.95634  1.0000
  H   H2839     1.0  0.50396  0.23516  0.91467  1.0000
  C   C3536     1.0  0.50258  0.16959  0.98653  1.0000
  H   H2840     1.0  0.53169  0.21809  0.81344  1.0000
  C   C3537     1.0  0.54996  0.13214  0.97829  1.0000
  H   H2841     1.0  0.63870  0.30482  0.93561  1.0000
  S   S466      1.0  0.55945  0.32031  0.92713  1.0000
  C   C3538     1.0  0.50349  0.07944  0.81906  1.0000
  Fe  Fe232     1.0  0.50842  0.12785  0.86264  1.0000
  H   H2842     1.0  0.53983  0.30415  0.84135  1.0000
  S   S467      1.0  0.49914  0.05882  0.80644  1.0000
  S   S468      1.0  0.51699  0.11245  0.88224  1.0000
  H   H2843     1.0  0.65582  0.31881  0.87790  1.0000
  C   C3539     1.0  0.54527  0.03283  0.76327  1.0000
  H   H2844     1.0  0.59967  0.21717  0.88412  1.0000
  C   C3540     1.0  0.51954  0.08085  0.77790  1.0000
  H   H2845     1.0  0.52174  0.21305  0.84042  1.0000
  H   H2846     1.0  0.51350  0.19626  0.94311  1.0000
  C   C3541     1.0  0.51684  0.14578  0.78551  1.0000
  H   H2847     1.0  0.57916  0.99298  0.77127  1.0000
  Fe  Fe233     1.0  0.58018  0.30356  0.92026  1.0000
  H   H2848     1.0  0.58942  0.22750  0.92752  1.0000
  S   S469      1.0  0.52792  0.30692  0.91787  1.0000
  C   C3542     1.0  0.55985  0.26101  0.91688  1.0000
  C   C3543     1.0  0.61853  0.25151  0.90898  1.0000
  C   C3544     1.0  0.51506  0.27017  0.75556  1.0000
  C   C3545     1.0  0.50351  0.23036  0.98684  1.0000
  C   C3546     1.0  0.51784  0.22373  0.83367  1.0000
  H   H2849     1.0  0.52367  0.28620  0.98407  1.0000
  C   C3547     1.0  0.61007  0.28082  0.89413  1.0000
  C   C3548     1.0  0.51914  0.26742  0.95433  1.0000
  H   H2850     1.0  0.52747  0.28958  0.89601  1.0000
  C   C3549     1.0  0.60739  0.22350  0.90858  1.0000
  C   C3550     1.0  0.52503  0.27993  0.95082  1.0000
  C   C3551     1.0  0.51133  0.32018  0.92208  1.0000
  H   H2851     1.0  0.54598  0.27784  0.85370  1.0000
  H   H2852     1.0  0.55581  0.00106  0.78901  1.0000
  C   C3552     1.0  0.52344  0.22655  0.81847  1.0000
  H   H2853     1.0  0.62723  0.21641  0.89251  1.0000
  C   C3553     1.0  0.53059  0.19048  0.87854  1.0000
  C   C3554     1.0  0.50250  0.13171  0.77327  1.0000
  C   C3555     1.0  0.51643  0.23250  0.76220  1.0000
  C   C3556     1.0  0.58878  0.29600  0.85571  1.0000
  S   S470      1.0  0.52377  0.25803  0.85733  1.0000
  C   C3557     1.0  0.61165  0.24875  0.86590  1.0000
  H   H2854     1.0  0.62142  0.32124  0.95592  1.0000
  H   H2855     1.0  0.53945  0.30484  0.81076  1.0000
  H   H2856     1.0  0.50873  0.15430  0.93931  1.0000
  H   H2857     1.0  0.53638  0.27965  0.94460  1.0000
  H   H2858     1.0  0.61797  0.30972  0.92273  1.0000
  S   S471      1.0  0.51702  0.12471  0.83919  1.0000
  C   C3558     1.0  0.50222  0.24851  0.83147  1.0000
  H   H2859     1.0  0.51111  0.16194  0.91473  1.0000
  C   C3559     1.0  0.51827  0.21417  0.78995  1.0000
  S   S472      1.0  0.57016  0.29498  0.90672  1.0000
  H   H2860     1.0  0.55531  0.26804  0.92485  1.0000
  H   H2861     1.0  0.53374  0.18890  0.91329  1.0000
  C   C3560     1.0  0.57527  0.25600  0.91262  1.0000
  H   H2862     1.0  0.52128  0.25240  0.89930  1.0000
  H   H2863     1.0  0.52522  0.19781  0.86984  1.0000
  H   H2864     1.0  0.52026  0.23029  0.87824  1.0000
  H   H2865     1.0  0.61457  0.23251  0.83765  1.0000
  H   H2866     1.0  0.52478  0.06195  0.76807  1.0000
  H   H2867     1.0  0.62263  0.28607  0.90666  1.0000
  C   C3561     1.0  0.62076  0.21374  0.90362  1.0000
  H   H2868     1.0  0.51170  0.10075  0.78613  1.0000
  S   S473      1.0  0.51604  0.10489  0.96219  1.0000
  C   C3562     1.0  0.58128  0.24702  0.90216  1.0000
  H   H2869     1.0  0.62178  0.18664  0.93477  1.0000
  C   C3563     1.0  0.59707  0.28593  0.83347  1.0000
  H   H2870     1.0  0.51932  0.09889  0.91223  1.0000
  H   H2871     1.0  0.53723  0.18404  0.95063  1.0000
  C   C3564     1.0  0.50094  0.29743  0.84793  1.0000
  C   C3565     1.0  0.49897  0.13264  0.89875  1.0000
  H   H2872     1.0  0.53841  0.26117  0.91396  1.0000
  C   C3566     1.0  0.55614  0.24795  0.90050  1.0000
  C   C3567     1.0  0.53715  0.28208  0.87558  1.0000
  C   C3568     1.0  0.56768  0.14113  0.98551  1.0000
  C   C3569     1.0  0.61784  0.19690  0.92745  1.0000
  H   H2873     1.0  0.53798  0.28078  0.82819  1.0000
  C   C3570     1.0  0.61486  0.24656  0.85149  1.0000
  C   C3571     1.0  0.50497  0.11439  0.92547  1.0000
  H   H2874     1.0  0.61339  0.25875  0.86746  1.0000
  C   C3572     1.0  0.53127  0.28495  0.81985  1.0000
  H   H2875     1.0  0.58250  0.25919  0.91747  1.0000
  H   H2876     1.0  0.55256  0.03623  0.76791  1.0000
  H   H2877     1.0  0.63006  0.26009  0.91993  1.0000
  C   C3573     1.0  0.49963  0.09295  0.82382  1.0000
  C   C3574     1.0  0.50875  0.11875  0.89876  1.0000
  H   H2878     1.0  0.52777  0.14585  0.98010  1.0000
  H   H2879     1.0  0.53299  0.17388  0.83891  1.0000
  C   C3575     1.0  0.51622  0.29290  0.95524  1.0000
  C   C3576     1.0  0.55030  0.25709  0.91073  1.0000
  H   H2880     1.0  0.50725  0.10721  0.93571  1.0000
  C   C3577     1.0  0.50825  0.25086  0.86706  1.0000
  S   S474      1.0  0.59120  0.22431  0.96400  1.0000
  C   C3578     1.0  0.59439  0.29993  0.98621  1.0000
  C   C3579     1.0  0.60475  0.20674  0.93256  1.0000
  S   S475      1.0  0.58980  0.30939  0.86466  1.0000
  H   H2881     1.0  0.52518  0.12736  0.92858  1.0000
  C   C3580     1.0  0.50796  0.13620  0.79470  1.0000
  Fe  Fe234     1.0  0.52232  0.11732  0.97532  1.0000
  C   C3581     1.0  0.61917  0.27735  0.90428  1.0000
  H   H2882     1.0  0.52238  0.15114  0.79031  1.0000
  C   C3582     1.0  0.57977  0.28569  0.86211  1.0000
  C   C3583     1.0  0.53756  0.03104  0.74187  1.0000
  Fe  Fe235     1.0  0.55011  0.31331  0.91184  1.0000
  H   H2883     1.0  0.61864  0.25493  0.84225  1.0000
  H   H2884     1.0  0.53173  0.02525  0.78444  1.0000
  H   H2885     1.0  0.51543  0.01706  0.77382  1.0000
  H   H2886     1.0  0.60381  0.28614  0.82241  1.0000
  H   H2887     1.0  0.51069  0.20826  0.91821  1.0000
  C   C3584     1.0  0.53697  0.30114  0.85328  1.0000
  C   C3585     1.0  0.56439  0.13054  0.98014  1.0000
  C   C3586     1.0  0.54686  0.12994  0.85907  1.0000
  C   C3587     1.0  0.55279  0.13704  0.84486  1.0000
  C   C3588     1.0  0.56081  0.14770  0.84297  1.0000
  C   C3589     1.0  0.56274  0.15140  0.85527  1.0000
  C   C3590     1.0  0.55671  0.14440  0.86961  1.0000
  C   C3591     1.0  0.54869  0.13364  0.87145  1.0000
  P   P120      1.0  0.55924  0.14966  0.88524  1.0000
  C   C3592     1.0  0.55513  0.13661  0.90242  1.0000
  C   C3593     1.0  0.57854  0.15067  0.88152  1.0000
  C   C3594     1.0  0.58252  0.16206  0.88500  1.0000
  C   C3595     1.0  0.59753  0.16258  0.88213  1.0000
  C   C3596     1.0  0.60866  0.15178  0.87578  1.0000
  C   C3597     1.0  0.60480  0.14036  0.87234  1.0000
  C   C3598     1.0  0.58979  0.13979  0.87522  1.0000
  C   C3599     1.0  0.54023  0.13603  0.90913  1.0000
  C   C3600     1.0  0.53671  0.12737  0.92325  1.0000
  C   C3601     1.0  0.54802  0.11904  0.93072  1.0000
  C   C3602     1.0  0.56288  0.11941  0.92409  1.0000
  C   C3603     1.0  0.56646  0.12817  0.91001  1.0000
  C   C3604     1.0  0.54695  0.16731  0.88769  1.0000
  C   C3605     1.0  0.53989  0.17678  0.87643  1.0000
  H   H2888     1.0  0.60443  0.30383  0.83639  1.0000
  H   H2889     1.0  0.51069  0.07527  0.74826  1.0000
  C   C3606     1.0  0.53523  0.18543  0.90309  1.0000
  C   C3607     1.0  0.54443  0.17171  0.90109  1.0000
  H   H2890     1.0  0.54074  0.12160  0.86047  1.0000
  H   H2891     1.0  0.55104  0.13439  0.83530  1.0000
  H   H2892     1.0  0.56529  0.15330  0.83193  1.0000
  H   H2893     1.0  0.56880  0.15988  0.85357  1.0000
  H   H2894     1.0  0.54385  0.12805  0.88232  1.0000
  H   H2895     1.0  0.57415  0.17068  0.88977  1.0000
  H   H2896     1.0  0.60046  0.17155  0.88467  1.0000
  H   H2897     1.0  0.62026  0.15233  0.87345  1.0000
  H   H2898     1.0  0.61342  0.13200  0.86738  1.0000
  H   H2899     1.0  0.58696  0.13085  0.87254  1.0000
  H   H2900     1.0  0.53130  0.14252  0.90357  1.0000
  H   H2901     1.0  0.63608  0.19284  0.90905  1.0000
  H   H2902     1.0  0.57159  0.11314  0.93005  1.0000
  H   H2903     1.0  0.57802  0.12856  0.90534  1.0000
  H   H2904     1.0  0.54152  0.17373  0.86600  1.0000
  H   H2905     1.0  0.59872  0.20415  0.94387  1.0000
  C   C3608     1.0  0.62338  0.26271  0.91172  1.0000
  C   C3609     1.0  0.52621  0.26843  0.76313  1.0000
  H   H2906     1.0  0.54980  0.16467  0.90992  1.0000
  C   C3610     1.0  0.51341  0.28157  0.80797  1.0000
  C   C3611     1.0  0.61258  0.23390  0.84888  1.0000
  H   H2907     1.0  0.59720  0.27276  0.88432  1.0000
  C   C3612     1.0  0.57958  0.27540  0.85412  1.0000
  H   H2908     1.0  0.52554  0.15575  0.76310  1.0000
  C   C3613     1.0  0.53363  0.02656  0.77258  1.0000
  H   H2909     1.0  0.53994  0.27052  0.88085  1.0000
  H   H2910     1.0  0.57577  0.23563  0.88849  1.0000
  C   C3614     1.0  0.53008  0.29281  0.88406  1.0000
  C   C3615     1.0  0.53205  0.29850  0.81005  1.0000
  C   C3616     1.0  0.52247  0.26828  0.77824  1.0000
  C   C3617     1.0  0.51179  0.10967  0.91215  1.0000
  H   H2911     1.0  0.51297  0.14356  0.75221  1.0000
  H   H2912     1.0  0.57881  0.13970  0.98711  1.0000
  H   H2913     1.0  0.51581  0.25143  0.92630  1.0000
  S   S476      1.0  0.54628  0.11858  0.97154  1.0000
  C   C3618     1.0  0.52352  0.30364  0.79921  1.0000
  H   H2914     1.0  0.54737  0.15716  0.95192  1.0000
  H   H2915     1.0  0.56961  0.28569  0.98154  1.0000
  C   C3619     1.0  0.53119  0.17763  0.94773  1.0000
  C   C3620     1.0  0.52196  0.27656  0.81887  1.0000
  C   C3621     1.0  0.62587  0.20041  0.91298  1.0000
  C   C3622     1.0  0.50456  0.17061  0.90787  1.0000
  C   C3623     1.0  0.50941  0.26027  0.91922  1.0000
  C   C3624     1.0  0.54054  0.28624  0.86021  1.0000
  C   C3625     1.0  0.50085  0.12922  0.78862  1.0000
  H   H2916     1.0  0.64274  0.31226  0.97252  1.0000
  H   H2917     1.0  0.51203  0.29839  0.84180  1.0000
  C   C3626     1.0  0.51189  0.09562  0.77739  1.0000
  C   C3627     1.0  0.52987  0.31203  0.86168  1.0000
  C   C3628     1.0  0.52619  0.02434  0.75128  1.0000
  Fe  Fe236     1.0  0.57820  0.31231  0.88788  1.0000
  H   H2918     1.0  0.61423  0.26637  0.95083  1.0000
  H   H2919     1.0  0.65832  0.31922  0.92546  1.0000
  Fe  Fe237     1.0  0.51520  0.14938  0.83363  1.0000
  C   C3629     1.0  0.51869  0.24037  0.80974  1.0000
  C   C3630     1.0  0.51142  0.14141  0.76407  1.0000
  C   C3631     1.0  0.52834  0.19482  0.89182  1.0000
  C   C3632     1.0  0.56521  0.26541  0.98071  1.0000
  C   C3633     1.0  0.53685  0.16249  0.94855  1.0000
  H   H2920     1.0  0.50099  0.22241  0.95534  1.0000
  H   H2921     1.0  0.56401  0.30505  0.95775  1.0000
  H   H2922     1.0  0.51388  0.07166  0.82066  1.0000
  Fe  Fe238     1.0  0.50331  0.09444  0.98386  1.0000
  H   H2923     1.0  0.50256  0.23239  0.85191  1.0000
  H   H2924     1.0  0.52139  0.20552  0.89334  1.0000
  C   C3634     1.0  0.51428  0.29519  0.79812  1.0000
  C   C3635     1.0  0.50812  0.25151  0.81620  1.0000
  H   H2925     1.0  0.57303  0.12100  0.97755  1.0000
  H   H2926     1.0  0.50601  0.29587  0.86869  1.0000
  H   H2927     1.0  0.51154  0.15874  0.89020  1.0000
  C   C3636     1.0  0.51517  0.16103  0.94109  1.0000
  C   C3637     1.0  0.50473  0.18282  0.98794  1.0000
  H   H2928     1.0  0.50576  0.27127  0.88360  1.0000
  S   S477      1.0  0.50258  0.13651  0.97380  1.0000
  C   C3638     1.0  0.51004  0.17647  0.93899  1.0000
  H   H2929     1.0  0.50192  0.16837  0.97589  1.0000
  C   C3639     1.0  0.51773  0.18458  0.94321  1.0000
  C   C3640     1.0  0.50395  0.09580  0.75552  1.0000
  C   C3641     1.0  0.61423  0.31508  0.96461  1.0000
  C   C3642     1.0  0.59981  0.29626  0.97233  1.0000
  H   H2930     1.0  0.50706  0.09553  0.82895  1.0000
  C   C3643     1.0  0.54735  0.03489  0.74797  1.0000
  H   H2931     1.0  0.53126  0.26693  0.78397  1.0000
  P   P121      1.0  0.50287  0.26990  0.80540  1.0000
  C   C3644     1.0  0.64935  0.32130  0.91979  1.0000
  H   H2932     1.0  0.52355  0.24226  0.79807  1.0000
  C   C3645     1.0  0.53949  0.26571  0.98213  1.0000
  C   C3646     1.0  0.62663  0.31595  0.91831  1.0000
  H   H2933     1.0  0.51861  0.02106  0.74690  1.0000
  H   H2934     1.0  0.59616  0.28776  0.96973  1.0000
  C   C3647     1.0  0.52632  0.30773  0.87715  1.0000
  C   C3648     1.0  0.52450  0.31702  0.97698  1.0000
  C   C3649     1.0  0.50368  0.27163  0.89509  1.0000
  H   H2935     1.0  0.50128  0.09359  0.87615  1.0000
  C   C3650     1.0  0.50437  0.26798  0.96204  1.0000
  C   C3651     1.0  0.56500  0.31368  0.96242  1.0000
  C   C3652     1.0  0.56110  0.28033  0.98154  1.0000
  H   H2936     1.0  0.61322  0.30140  0.95062  1.0000
  C   C3653     1.0  0.55614  0.99369  0.78214  1.0000
  H   H2937     1.0  0.57680  0.25946  0.97975  1.0000
  H   H2938     1.0  0.58271  0.31974  0.94432  1.0000
  H   H2939     1.0  0.50430  0.18733  0.81591  1.0000
  C   C3654     1.0  0.57558  0.32205  0.95469  1.0000
  C   C3655     1.0  0.50453  0.21889  0.78554  1.0000
  C   C3656     1.0  0.50711  0.23467  0.84015  1.0000
  C   C3657     1.0  0.51008  0.31576  0.98509  1.0000
  C   C3658     1.0  0.50483  0.16872  0.89389  1.0000
  H   H2940     1.0  0.97139  0.31810  0.78256  1.0000
  P   P122      1.0  0.54067  0.30711  0.98483  1.0000
  C   C3659     1.0  0.55555  0.31675  0.97575  1.0000
  H   H2941     1.0  0.55735  0.31871  0.85191  1.0000
  C   C3660     1.0  0.50146  0.29343  0.96301  1.0000
  C   C3661     1.0  0.55442  0.25811  0.98094  1.0000
  H   H2942     1.0  0.52066  0.31573  0.88401  1.0000
  Fe  Fe239     1.0  0.53757  0.22109  0.98293  1.0000
  H   H2943     1.0  0.51797  0.27038  0.74383  1.0000
  H   H2944     1.0  0.50683  0.18223  0.84164  1.0000
  H   H2945     1.0  0.66789  0.31578  0.95899  1.0000
  C   C3662     1.0  0.64458  0.32336  0.96842  1.0000
  H   H2946     1.0  0.51579  0.23944  0.75137  1.0000
  H   H2947     1.0  0.50661  0.13411  0.80659  1.0000
  C   C3663     1.0  0.50016  0.27165  0.76314  1.0000
  C   C3664     1.0  0.50171  0.99147  0.78881  1.0000
  C   C3665     1.0  0.55672  0.15373  0.98849  1.0000
  H   H2948     1.0  0.99532  0.58320  0.08541  1.0000
  C   C3666     1.0  0.99222  0.51738  0.17431  1.0000
  S   S478      1.0  0.87056  0.49771  0.20617  1.0000
  Fe  Fe240     1.0  0.67457  0.54420  0.01569  1.0000
  S   S479      1.0  0.68084  0.52018  0.01475  1.0000
  S   S480      1.0  0.68186  0.55379  0.03068  1.0000
  H   H2949     1.0  0.85550  0.62247  0.10766  1.0000
  Fe  Fe241     1.0  0.65713  0.52386  0.01272  1.0000
  S   S481      1.0  0.64052  0.51002  0.02471  1.0000
  C   C3667     1.0  0.93542  0.45167  0.05034  1.0000
  S   S482      1.0  0.65036  0.54726  0.01571  1.0000
  Fe  Fe242     1.0  0.69163  0.43501  0.01905  1.0000
  S   S483      1.0  0.70520  0.41246  0.02670  1.0000
  S   S484      1.0  0.67211  0.44254  0.03647  1.0000
  C   C3668     1.0  0.94631  0.52435  0.20995  1.0000
  H   H2950     1.0  0.61897  0.47644  0.00160  1.0000
  Fe  Fe243     1.0  0.70495  0.40831  0.00497  1.0000
  S   S485      1.0  0.70135  0.38702  0.00252  1.0000
  Fe  Fe244     1.0  0.72474  0.42265  0.01483  1.0000
  S   S486      1.0  0.74478  0.41708  0.02504  1.0000
  H   H2951     1.0  0.57151  0.37203  0.99839  1.0000
  S   S487      1.0  0.71121  0.44555  0.00835  1.0000
  S   S488      1.0  0.99538  0.54150  0.05040  1.0000
  H   H2952     1.0  0.90364  0.51701  0.19449  1.0000
  S   S489      1.0  0.98116  0.51834  0.07997  1.0000
  C   C3669     1.0  0.97941  0.49936  0.22565  1.0000
  Fe  Fe245     1.0  0.97496  0.53188  0.05853  1.0000
  S   S490      1.0  0.95266  0.54706  0.05563  1.0000
  C   C3670     1.0  0.85529  0.53927  0.23491  1.0000
  S   S491      1.0  0.98452  0.51325  0.04654  1.0000
  H   H2953     1.0  0.69645  0.42155  0.06788  1.0000
  Fe  Fe246     1.0  0.88651  0.60696  0.17771  1.0000
  S   S492      1.0  0.88717  0.58456  0.19208  1.0000
  S   S493      1.0  0.89151  0.62492  0.18538  1.0000
  Fe  Fe247     1.0  0.87567  0.59892  0.15413  1.0000
  S   S494      1.0  0.87597  0.57566  0.16654  1.0000
  S   S495      1.0  0.86761  0.60909  0.13282  1.0000
  Fe  Fe248     1.0  0.86550  0.58578  0.18651  1.0000
  H   H2954     1.0  0.72953  0.59082  0.99176  1.0000
  Fe  Fe249     1.0  0.89752  0.57641  0.17105  1.0000
  S   S496      1.0  0.91742  0.55730  0.17071  1.0000
  S   S497      1.0  0.86375  0.60918  0.17381  1.0000
  S   S498      1.0  0.89838  0.59896  0.15671  1.0000
  H   H2955     1.0  0.93904  0.65392  0.18670  1.0000
  S   S499      1.0  0.96822  0.57965  0.18182  1.0000
  Fe  Fe250     1.0  0.78391  0.49897  0.00089  1.0000
  S   S500      1.0  0.79622  0.48056  0.01608  1.0000
  Fe  Fe251     1.0  0.76636  0.51548  0.02504  1.0000
  S   S501      1.0  0.77709  0.49836  0.04228  1.0000
  S   S502      1.0  0.75072  0.53595  0.03211  1.0000
  Fe  Fe252     1.0  0.79853  0.49850  0.02554  1.0000
  S   S503      1.0  0.81894  0.49453  0.03500  1.0000
  Fe  Fe253     1.0  0.77397  0.48177  0.03165  1.0000
  S   S504      1.0  0.76747  0.46131  0.04692  1.0000
  S   S505      1.0  0.78814  0.51706  0.00885  1.0000
  S   S506      1.0  0.76124  0.49889  0.01591  1.0000
  Fe  Fe254     1.0  0.87474  0.53121  0.08349  1.0000
  S   S507      1.0  0.86918  0.55178  0.06631  1.0000
  S   S508      1.0  0.89761  0.51757  0.08623  1.0000
  Fe  Fe255     1.0  0.84256  0.53218  0.09875  1.0000
  S   S509      1.0  0.83442  0.55282  0.08306  1.0000
  S   S510      1.0  0.82498  0.52258  0.11642  1.0000
  Fe  Fe256     1.0  0.85068  0.54215  0.06535  1.0000
  S   S511      1.0  0.84246  0.54593  0.04437  1.0000
  Fe  Fe257     1.0  0.85336  0.56066  0.08553  1.0000
  S   S512      1.0  0.84971  0.58448  0.08677  1.0000
  S   S513      1.0  0.85759  0.52068  0.08094  1.0000
  S   S514      1.0  0.86017  0.54088  0.10274  1.0000
  H   H2956     1.0  0.96835  0.63613  0.12994  1.0000
  C   C3671     1.0  0.87511  0.51784  0.03900  1.0000
  C   C3672     1.0  0.70915  0.43580  0.05124  1.0000
  Fe  Fe258     1.0  0.88169  0.49404  0.18330  1.0000
  S   S515      1.0  0.88024  0.47022  0.18853  1.0000
  S   S516      1.0  0.90298  0.50051  0.16956  1.0000
  Fe  Fe259     1.0  0.85844  0.47956  0.18138  1.0000
  S   S517      1.0  0.85109  0.47112  0.16563  1.0000
  C   C3673     1.0  0.91113  0.54892  0.09944  1.0000
  S   S518      1.0  0.86058  0.50304  0.17478  1.0000
  C   C3674     1.0  0.91426  0.47169  0.04524  1.0000
  S   S519      1.0  0.97974  0.45431  0.19004  1.0000
  S   S520      1.0  0.98258  0.46338  0.15422  1.0000
  Fe  Fe260     1.0  0.97506  0.44569  0.17292  1.0000
  S   S521      1.0  0.95244  0.44095  0.17708  1.0000
  C   C3675     1.0  0.54880  0.58474  0.99473  1.0000
  C   C3676     1.0  0.91736  0.48447  0.17156  1.0000
  C   C3677     1.0  0.91537  0.47326  0.18406  1.0000
  C   C3678     1.0  0.92591  0.45976  0.18546  1.0000
  C   C3679     1.0  0.93891  0.45764  0.17459  1.0000
  C   C3680     1.0  0.94123  0.46906  0.16220  1.0000
  C   C3681     1.0  0.93045  0.48249  0.16067  1.0000
  H   H2957     1.0  0.90579  0.47530  0.19279  1.0000
  H   H2958     1.0  0.92425  0.45117  0.19522  1.0000
  H   H2959     1.0  0.95136  0.46758  0.15390  1.0000
  H   H2960     1.0  0.93228  0.49130  0.15114  1.0000
  C   C3682     1.0  0.94745  0.40851  0.22718  1.0000
  C   C3683     1.0  0.83238  0.50882  0.13037  1.0000
  C   C3684     1.0  0.84775  0.50480  0.12987  1.0000
  C   C3685     1.0  0.85350  0.49356  0.14100  1.0000
  C   C3686     1.0  0.84391  0.48604  0.15238  1.0000
  C   C3687     1.0  0.82856  0.49004  0.15281  1.0000
  C   C3688     1.0  0.82279  0.50152  0.14193  1.0000
  H   H2961     1.0  0.85521  0.51028  0.12087  1.0000
  H   H2962     1.0  0.86536  0.49051  0.14064  1.0000
  H   H2963     1.0  0.82114  0.48423  0.16157  1.0000
  H   H2964     1.0  0.81092  0.50455  0.14231  1.0000
  C   C3689     1.0  0.82480  0.50923  0.03763  1.0000
  C   C3690     1.0  0.83180  0.50673  0.04939  1.0000
  C   C3691     1.0  0.83711  0.51794  0.05160  1.0000
  C   C3692     1.0  0.83578  0.53170  0.04184  1.0000
  C   C3693     1.0  0.82894  0.53420  0.02992  1.0000
  C   C3694     1.0  0.82327  0.52305  0.02792  1.0000
  H   H2965     1.0  0.83300  0.49612  0.05692  1.0000
  H   H2966     1.0  0.84233  0.51591  0.06080  1.0000
  H   H2967     1.0  0.82795  0.54479  0.02227  1.0000
  H   H2968     1.0  0.81805  0.52502  0.01871  1.0000
  C   C3695     1.0  0.96816  0.57386  0.07152  1.0000
  C   C3696     1.0  0.64379  0.44231  0.99877  1.0000
  C   C3697     1.0  0.91194  0.45355  0.06827  1.0000
  C   C3698     1.0  0.98495  0.55624  0.21293  1.0000
  H   H2969     1.0  0.90319  0.52370  0.05041  1.0000
  H   H2970     1.0  0.86729  0.49789  0.04541  1.0000
  H   H2971     1.0  0.85741  0.55862  0.18553  1.0000
  C   C3699     1.0  0.98806  0.53092  0.12722  1.0000
  H   H2972     1.0  0.75774  0.52880  0.08476  1.0000
  H   H2973     1.0  0.74275  0.47900  0.99901  1.0000
  C   C3700     1.0  0.86250  0.60100  0.12105  1.0000
  C   C3701     1.0  0.86412  0.58570  0.12283  1.0000
  C   C3702     1.0  0.86007  0.58024  0.11258  1.0000
  C   C3703     1.0  0.85459  0.59010  0.10050  1.0000
  C   C3704     1.0  0.85282  0.60528  0.09904  1.0000
  C   C3705     1.0  0.85682  0.61066  0.10913  1.0000
  H   H2974     1.0  0.86849  0.57814  0.13201  1.0000
  H   H2975     1.0  0.86122  0.56848  0.11398  1.0000
  H   H2976     1.0  0.84838  0.61298  0.08996  1.0000
  P   P123      1.0  0.70520  0.48025  0.04584  1.0000
  C   C3706     1.0  0.93135  0.56273  0.17515  1.0000
  C   C3707     1.0  0.92855  0.57694  0.17775  1.0000
  C   C3708     1.0  0.93995  0.58191  0.18005  1.0000
  C   C3709     1.0  0.95425  0.57283  0.17938  1.0000
  C   C3710     1.0  0.95708  0.55847  0.17711  1.0000
  C   C3711     1.0  0.94547  0.55328  0.17543  1.0000
  H   H2977     1.0  0.91771  0.58427  0.17773  1.0000
  H   H2978     1.0  0.93783  0.59298  0.18188  1.0000
  H   H2979     1.0  0.96813  0.55135  0.17676  1.0000
  H   H2980     1.0  0.94750  0.54204  0.17417  1.0000
  H   H2981     1.0  0.96203  0.38692  0.23214  1.0000
  H   H2982     1.0  0.61226  0.58347  0.99094  1.0000
  C   C3712     1.0  0.91109  0.60883  0.20422  1.0000
  C   C3713     1.0  0.89995  0.62149  0.20064  1.0000
  H   H2983     1.0  0.98509  0.55117  0.19249  1.0000
  C   C3714     1.0  0.94254  0.63496  0.20408  1.0000
  C   C3715     1.0  0.94954  0.62007  0.20785  1.0000
  H   H2984     1.0  0.91458  0.60042  0.19774  1.0000
  C   C3716     1.0  0.93749  0.53860  0.06358  1.0000
  C   C3717     1.0  0.93946  0.52436  0.07244  1.0000
  C   C3718     1.0  0.92711  0.51800  0.07918  1.0000
  C   C3719     1.0  0.91279  0.52581  0.07719  1.0000
  C   C3720     1.0  0.91084  0.54000  0.06824  1.0000
  C   C3721     1.0  0.92319  0.54635  0.06137  1.0000
  H   H2985     1.0  0.95045  0.51827  0.07418  1.0000
  H   H2986     1.0  0.92859  0.50702  0.08602  1.0000
  H   H2987     1.0  0.89985  0.54616  0.06670  1.0000
  H   H2988     1.0  0.92161  0.55729  0.05441  1.0000
  C   C3722     1.0  0.95787  0.56855  0.10227  1.0000
  C   C3723     1.0  0.93238  0.58713  0.05442  1.0000
  C   C3724     1.0  0.91819  0.64149  0.14029  1.0000
  H   H2989     1.0  0.76386  0.50117  0.09918  1.0000
  C   C3725     1.0  0.55209  0.59100  0.00462  1.0000
  H   H2990     1.0  0.71580  0.42712  0.04544  1.0000
  C   C3726     1.0  0.74881  0.43090  0.03111  1.0000
  C   C3727     1.0  0.75106  0.42769  0.04550  1.0000
  C   C3728     1.0  0.75619  0.43745  0.05028  1.0000
  C   C3729     1.0  0.75963  0.45032  0.04058  1.0000
  C   C3730     1.0  0.75737  0.45367  0.02614  1.0000
  C   C3731     1.0  0.75167  0.44410  0.02147  1.0000
  H   H2991     1.0  0.74903  0.41747  0.05293  1.0000
  H   H2992     1.0  0.75797  0.43475  0.06141  1.0000
  H   H2993     1.0  0.76036  0.46342  0.01847  1.0000
  H   H2994     1.0  0.75025  0.44652  0.01023  1.0000
  C   C3732     1.0  0.85644  0.59823  0.22440  1.0000
  C   C3733     1.0  0.95437  0.53411  0.22628  1.0000
  Fe  Fe261     1.0  0.68548  0.52864  0.99018  1.0000
  C   C3734     1.0  0.62399  0.33701  0.02040  1.0000
  H   H2995     1.0  0.87817  0.42924  0.23313  1.0000
  C   C3735     1.0  0.79102  0.51645  0.06753  1.0000
  H   H2996     1.0  0.68560  0.36551  0.00460  1.0000
  C   C3736     1.0  0.61870  0.32875  0.00105  1.0000
  C   C3737     1.0  0.87525  0.50325  0.04668  1.0000
  C   C3738     1.0  0.64865  0.49110  0.02651  1.0000
  C   C3739     1.0  0.64201  0.48114  0.03813  1.0000
  C   C3740     1.0  0.64924  0.46618  0.04094  1.0000
  C   C3741     1.0  0.66288  0.46106  0.03187  1.0000
  C   C3742     1.0  0.66913  0.47084  0.01970  1.0000
  C   C3743     1.0  0.66209  0.48596  0.01713  1.0000
  H   H2997     1.0  0.63160  0.48511  0.04534  1.0000
  H   H2998     1.0  0.64437  0.45859  0.05030  1.0000
  H   H2999     1.0  0.67960  0.46685  0.01259  1.0000
  H   H3000     1.0  0.66714  0.49365  0.00803  1.0000
  C   C3744     1.0  0.70103  0.54825  0.03096  1.0000
  C   C3745     1.0  0.70698  0.55624  0.03714  1.0000
  C   C3746     1.0  0.72224  0.55238  0.03727  1.0000
  C   C3747     1.0  0.73171  0.54043  0.03130  1.0000
  C   C3748     1.0  0.72583  0.53241  0.02505  1.0000
  C   C3749     1.0  0.71045  0.53626  0.02498  1.0000
  H   H3001     1.0  0.69977  0.56549  0.04179  1.0000
  H   H3002     1.0  0.72668  0.55865  0.04209  1.0000
  H   H3003     1.0  0.73310  0.52329  0.02024  1.0000
  H   H3004     1.0  0.70589  0.52997  0.02031  1.0000
  H   H3005     1.0  0.96770  0.61381  0.17379  1.0000
  H   H3006     1.0  0.68552  0.46678  0.07219  1.0000
  C   C3750     1.0  0.72037  0.48360  0.99559  1.0000
  C   C3751     1.0  0.71115  0.48246  0.02606  1.0000
  H   H3007     1.0  0.91367  0.62481  0.15984  1.0000
  H   H3008     1.0  0.76848  0.54467  0.09303  1.0000
  C   C3752     1.0  0.99368  0.53171  0.20765  1.0000
  H   H3009     1.0  0.54985  0.33101  0.99140  1.0000
  H   H3010     1.0  0.51821  0.65499  0.04582  1.0000
  H   H3011     1.0  0.95001  0.56707  0.21841  1.0000
  C   C3753     1.0  0.97104  0.49254  0.22085  1.0000
  C   C3754     1.0  0.94477  0.64245  0.18934  1.0000
  H   H3012     1.0  0.99114  0.43669  0.10725  1.0000
  C   C3755     1.0  0.93321  0.35740  0.22361  1.0000
  C   C3756     1.0  0.91565  0.41439  0.22556  1.0000
  H   H3013     1.0  0.90957  0.43393  0.19162  1.0000
  H   H3014     1.0  0.84242  0.58337  0.23734  1.0000
  H   H3015     1.0  0.62538  0.34583  0.02453  1.0000
  C   C3757     1.0  0.65331  0.41646  0.00951  1.0000
  C   C3758     1.0  0.65138  0.42012  0.02307  1.0000
  C   C3759     1.0  0.64550  0.43478  0.02458  1.0000
  C   C3760     1.0  0.64189  0.44587  0.01248  1.0000
  C   C3761     1.0  0.74643  0.58373  0.00456  1.0000
  S   S522      1.0  0.99717  0.59404  0.15071  1.0000
  C   C3762     1.0  0.99683  0.60116  0.20433  1.0000
  C   C3763     1.0  0.70646  0.57567  0.99494  1.0000
  H   H3016     1.0  0.59799  0.64693  0.99399  1.0000
  H   H3017     1.0  0.61971  0.50059  0.00530  1.0000
  C   C3764     1.0  0.90094  0.41756  0.23374  1.0000
  C   C3765     1.0  0.75557  0.55814  0.99300  1.0000
  H   H3018     1.0  0.65801  0.40510  0.00829  1.0000
  H   H3019     1.0  0.65472  0.41168  0.03233  1.0000
  H   H3020     1.0  0.64423  0.43764  0.03506  1.0000
  H   H3021     1.0  0.63795  0.45714  0.01396  1.0000
  C   C3766     1.0  0.70523  0.48567  0.00226  1.0000
  C   C3767     1.0  0.70066  0.48493  0.01745  1.0000
  C   C3768     1.0  0.68775  0.49364  0.04978  1.0000
  C   C3769     1.0  0.68760  0.50760  0.05180  1.0000
  C   C3770     1.0  0.67414  0.51807  0.05425  1.0000
  C   C3771     1.0  0.66070  0.51470  0.05481  1.0000
  C   C3772     1.0  0.66071  0.50082  0.05300  1.0000
  C   C3773     1.0  0.67415  0.49040  0.05029  1.0000
  H   H3022     1.0  0.89083  0.59694  0.22881  1.0000
  H   H3023     1.0  0.68895  0.48621  0.02246  1.0000
  H   H3024     1.0  0.67418  0.52895  0.05536  1.0000
  H   H3025     1.0  0.65031  0.52292  0.05635  1.0000
  H   H3026     1.0  0.65029  0.49831  0.05326  1.0000
  H   H3027     1.0  0.67389  0.47994  0.04829  1.0000
  C   C3774     1.0  0.79044  0.57795  0.06955  1.0000
  C   C3775     1.0  0.79517  0.57573  0.05502  1.0000
  C   C3776     1.0  0.80950  0.57702  0.04695  1.0000
  C   C3777     1.0  0.81900  0.58106  0.05311  1.0000
  C   C3778     1.0  0.81413  0.58398  0.06729  1.0000
  C   C3779     1.0  0.79997  0.58228  0.07555  1.0000
  C   C3780     1.0  0.77695  0.55674  0.12901  1.0000
  C   C3781     1.0  0.78716  0.55043  0.11772  1.0000
  C   C3782     1.0  0.78581  0.55620  0.10305  1.0000
  C   C3783     1.0  0.91405  0.54736  0.13437  1.0000
  C   C3784     1.0  0.90600  0.57388  0.12658  1.0000
  H   H3028     1.0  0.81345  0.57455  0.03601  1.0000
  H   H3029     1.0  0.83025  0.58165  0.04698  1.0000
  H   H3030     1.0  0.82161  0.58704  0.07204  1.0000
  H   H3031     1.0  0.79648  0.58427  0.08663  1.0000
  H   H3032     1.0  0.77820  0.55237  0.14033  1.0000
  H   H3033     1.0  0.79628  0.54117  0.12031  1.0000
  H   H3034     1.0  0.79397  0.55129  0.09442  1.0000
  H   H3035     1.0  0.98791  0.44784  0.21607  1.0000
  P   P124      1.0  0.53371  0.63517  0.99188  1.0000
  C   C3785     1.0  0.98796  0.55048  0.22702  1.0000
  C   C3786     1.0  0.99538  0.44471  0.22347  1.0000
  H   H3036     1.0  0.92260  0.45957  0.21656  1.0000
  H   H3037     1.0  0.98529  0.39612  0.22280  1.0000
  P   P125      1.0  0.60463  0.61553  0.99199  1.0000
  C   C3787     1.0  0.89767  0.49906  0.23154  1.0000
  C   C3788     1.0  0.61771  0.60374  0.00316  1.0000
  C   C3789     1.0  0.63165  0.59620  0.99629  1.0000
  C   C3790     1.0  0.64186  0.58688  0.00469  1.0000
  C   C3791     1.0  0.63835  0.58517  0.02002  1.0000
  C   C3792     1.0  0.62458  0.59277  0.02696  1.0000
  C   C3793     1.0  0.61427  0.60203  0.01859  1.0000
  C   C3794     1.0  0.83692  0.47929  0.11610  1.0000
  H   H3038     1.0  0.98934  0.48486  0.10203  1.0000
  H   H3039     1.0  0.96604  0.53273  0.20393  1.0000
  Fe  Fe262     1.0  0.99279  0.50057  0.06707  1.0000
  C   C3795     1.0  0.57802  0.62074  0.01281  1.0000
  H   H3040     1.0  0.65234  0.58065  0.99932  1.0000
  S   S523      1.0  0.99705  0.42912  0.17048  1.0000
  C   C3796     1.0  0.52042  0.63680  0.03570  1.0000
  C   C3797     1.0  0.75848  0.53971  0.07821  1.0000
  C   C3798     1.0  0.76922  0.41618  0.98973  1.0000
  C   C3799     1.0  0.53137  0.65494  0.00928  1.0000
  C   C3800     1.0  0.96879  0.52679  0.14913  1.0000
  C   C3801     1.0  0.89254  0.43232  0.21159  1.0000
  S   S524      1.0  0.82904  0.52055  0.20704  1.0000
  H   H3041     1.0  0.77313  0.52245  0.13643  1.0000
  H   H3042     1.0  0.99396  0.62692  0.11676  1.0000
  H   H3043     1.0  0.82569  0.50861  0.23839  1.0000
  C   C3802     1.0  0.50546  0.63483  0.98894  1.0000
  H   H3044     1.0  0.64625  0.57776  0.02651  1.0000
  H   H3045     1.0  0.62185  0.59134  0.03887  1.0000
  H   H3046     1.0  0.60368  0.60773  0.02425  1.0000
  C   C3803     1.0  0.78391  0.47399  0.09672  1.0000
  H   H3047     1.0  0.51579  0.62996  0.04591  1.0000
  S   S525      1.0  0.96213  0.58921  0.23734  1.0000
  C   C3804     1.0  0.96084  0.61996  0.18213  1.0000
  H   H3048     1.0  0.57806  0.60923  0.01397  1.0000
  C   C3805     1.0  0.93062  0.50199  0.20411  1.0000
  H   H3049     1.0  0.74278  0.59354  0.00920  1.0000
  H   H3050     1.0  0.88296  0.53683  0.18648  1.0000
  C   C3806     1.0  0.90174  0.63032  0.22134  1.0000
  H   H3051     1.0  0.55737  0.65100  0.02677  1.0000
  H   H3052     1.0  0.77859  0.47510  0.10794  1.0000
  H   H3053     1.0  0.91129  0.53728  0.10387  1.0000
  H   H3054     1.0  0.97162  0.47784  0.20737  1.0000
  C   C3807     1.0  0.75446  0.55858  0.05641  1.0000
  H   H3055     1.0  0.87270  0.44811  0.11577  1.0000
  C   C3808     1.0  0.85900  0.47108  0.06677  1.0000
  H   H3056     1.0  0.93296  0.48169  0.22074  1.0000
  C   C3809     1.0  0.96097  0.55719  0.09463  1.0000
  C   C3810     1.0  0.68736  0.38770  0.99339  1.0000
  C   C3811     1.0  0.99366  0.48008  0.20639  1.0000
  H   H3057     1.0  0.89786  0.63863  0.22800  1.0000
  H   H3058     1.0  0.94763  0.61433  0.21925  1.0000
  H   H3059     1.0  0.77333  0.45656  0.09784  1.0000
  H   H3060     1.0  0.90539  0.54162  0.22514  1.0000
  H   H3061     1.0  0.87146  0.45663  0.03043  1.0000
  C   C3812     1.0  0.91783  0.60718  0.21616  1.0000
  C   C3813     1.0  0.52179  0.65086  0.03569  1.0000
  H   H3062     1.0  0.81283  0.45373  0.00684  1.0000
  C   C3814     1.0  0.77112  0.51766  0.12840  1.0000
  H   H3063     1.0  0.93172  0.43640  0.07121  1.0000
  H   H3064     1.0  0.55040  0.61100  0.01134  1.0000
  H   H3065     1.0  0.93507  0.54572  0.09404  1.0000
  C   C3815     1.0  0.95860  0.61254  0.19690  1.0000
  S   S526      1.0  0.84600  0.57986  0.20452  1.0000
  C   C3816     1.0  0.58959  0.62687  0.00288  1.0000
  C   C3817     1.0  0.93184  0.38437  0.23042  1.0000
  C   C3818     1.0  0.76034  0.56786  0.06106  1.0000
  C   C3819     1.0  0.92450  0.55365  0.09405  1.0000
  H   H3066     1.0  0.90418  0.49781  0.06332  1.0000
  P   P126      1.0  0.88665  0.47659  0.06483  1.0000
  H   H3067     1.0  0.94393  0.62457  0.03691  1.0000
  C   C3820     1.0  0.95649  0.53065  0.21259  1.0000
  H   H3068     1.0  0.89478  0.61831  0.12282  1.0000
  H   H3069     1.0  0.87497  0.46693  0.12772  1.0000
  C   C3821     1.0  0.88559  0.49584  0.05572  1.0000
  H   H3070     1.0  0.90560  0.44916  0.07889  1.0000
  H   H3071     1.0  0.85160  0.53480  0.18722  1.0000
  C   C3822     1.0  0.91299  0.61788  0.22490  1.0000
  H   H3072     1.0  0.52200  0.32922  0.00199  1.0000
  H   H3073     1.0  0.59095  0.34920  0.00307  1.0000
  H   H3074     1.0  0.96692  0.59606  0.07300  1.0000
  C   C3823     1.0  0.90558  0.46647  0.05903  1.0000
  C   C3824     1.0  0.87840  0.46432  0.04597  1.0000
  C   C3825     1.0  0.76522  0.56872  0.12568  1.0000
  H   H3075     1.0  0.98814  0.42173  0.13278  1.0000
  H   H3076     1.0  0.88718  0.55549  0.10297  1.0000
  H   H3077     1.0  0.86449  0.52458  0.21975  1.0000
  H   H3078     1.0  0.94697  0.44604  0.04705  1.0000
  H   H3079     1.0  0.97216  0.57579  0.05964  1.0000
  H   H3080     1.0  0.96875  0.55096  0.07362  1.0000
  H   H3081     1.0  0.94658  0.50428  0.16755  1.0000
  C   C3826     1.0  0.73888  0.58209  0.99475  1.0000
  C   C3827     1.0  0.58932  0.64181  0.00161  1.0000
  C   C3828     1.0  0.99406  0.53534  0.23139  1.0000
  C   C3829     1.0  0.84080  0.56375  0.20460  1.0000
  C   C3830     1.0  0.84862  0.55508  0.19419  1.0000
  C   C3831     1.0  0.99732  0.47433  0.10224  1.0000
  C   C3832     1.0  0.94347  0.49946  0.17917  1.0000
  C   C3833     1.0  0.94211  0.64245  0.15137  1.0000
  C   C3834     1.0  0.90713  0.42918  0.20335  1.0000
  C   C3835     1.0  0.78645  0.42883  0.00915  1.0000
  C   C3836     1.0  0.79033  0.42942  0.02192  1.0000
  C   C3837     1.0  0.79971  0.43849  0.02114  1.0000
  C   C3838     1.0  0.80534  0.44689  0.00753  1.0000
  H   H3082     1.0  0.94849  0.52162  0.19929  1.0000
  H   H3083     1.0  0.92660  0.59763  0.21873  1.0000
  Fe  Fe263     1.0  0.84917  0.50405  0.19828  1.0000
  C   C3839     1.0  0.92755  0.65106  0.13228  1.0000
  C   C3840     1.0  0.93568  0.48676  0.20915  1.0000
  H   H3084     1.0  0.81707  0.46802  0.23650  1.0000
  C   C3841     1.0  0.97815  0.48293  0.21124  1.0000
  H   H3085     1.0  0.85932  0.54850  0.22720  1.0000
  C   C3842     1.0  0.62849  0.49519  0.99738  1.0000
  C   C3843     1.0  0.82649  0.49318  0.09477  1.0000
  C   C3844     1.0  0.69131  0.58259  0.99816  1.0000
  H   H3086     1.0  0.87359  0.55894  0.19791  1.0000
  C   C3845     1.0  0.78098  0.46339  0.09109  1.0000
  C   C3846     1.0  0.78778  0.46171  0.07663  1.0000
  C   C3847     1.0  0.91266  0.56893  0.22699  1.0000
  C   C3848     1.0  0.75344  0.54456  0.06504  1.0000
  C   C3849     1.0  0.81251  0.49019  0.10230  1.0000
  H   H3087     1.0  0.77909  0.42176  0.01021  1.0000
  H   H3088     1.0  0.78574  0.42308  0.03250  1.0000
  H   H3089     1.0  0.80241  0.43918  0.03111  1.0000
  H   H3090     1.0  0.93518  0.64054  0.21266  1.0000
  C   C3850     1.0  0.78317  0.51140  0.11826  1.0000
  H   H3091     1.0  0.79440  0.51169  0.11844  1.0000
  C   C3851     1.0  0.76604  0.50545  0.10748  1.0000
  C   C3852     1.0  0.91866  0.42018  0.21028  1.0000
  H   H3092     1.0  0.82269  0.56603  0.22350  1.0000
  H   H3093     1.0  0.98403  0.42291  0.21343  1.0000
  H   H3094     1.0  0.90388  0.56947  0.22165  1.0000
  C   C3853     1.0  0.83860  0.48790  0.10178  1.0000
  C   C3854     1.0  0.79346  0.48316  0.08778  1.0000
  H   H3095     1.0  0.95901  0.49473  0.22451  1.0000
  C   C3855     1.0  0.92912  0.46434  0.04096  1.0000
  C   C3856     1.0  0.83337  0.53725  0.20593  1.0000
  H   H3096     1.0  0.75455  0.58370  0.10874  1.0000
  H   H3097     1.0  0.90961  0.48149  0.03778  1.0000
  C   C3857     1.0  0.93945  0.65156  0.13780  1.0000
  H   H3098     1.0  0.80041  0.47857  0.12246  1.0000
  C   C3858     1.0  0.75400  0.51171  0.11765  1.0000
  H   H3099     1.0  0.95065  0.38595  0.21184  1.0000
  C   C3859     1.0  0.99498  0.49669  0.22072  1.0000
  C   C3860     1.0  0.89551  0.63226  0.20917  1.0000
  C   C3861     1.0  0.82888  0.55933  0.21547  1.0000
  H   H3100     1.0  0.98683  0.59719  0.20997  1.0000
  C   C3862     1.0  0.87707  0.46881  0.11577  1.0000
  H   H3101     1.0  0.88166  0.49029  0.11230  1.0000
  C   C3863     1.0  0.95931  0.53989  0.14358  1.0000
  H   H3102     1.0  0.93578  0.46852  0.03037  1.0000
  C   C3864     1.0  0.99207  0.62936  0.12756  1.0000
  C   C3865     1.0  0.76320  0.55992  0.00264  1.0000
  C   C3866     1.0  0.75858  0.57263  0.00852  1.0000
  C   C3867     1.0  0.88792  0.53780  0.19492  1.0000
  H   H3103     1.0  0.95622  0.47769  0.17678  1.0000
  C   C3868     1.0  0.69210  0.45825  0.06619  1.0000
  C   C3869     1.0  0.88251  0.55014  0.20138  1.0000
  H   H3104     1.0  0.98032  0.56799  0.20949  1.0000
  C   C3870     1.0  0.91028  0.50282  0.23300  1.0000
  C   C3871     1.0  0.97504  0.63717  0.14936  1.0000
  C   C3872     1.0  0.94159  0.53200  0.23705  1.0000
  C   C3873     1.0  0.88328  0.48451  0.09174  1.0000
  H   H3105     1.0  0.78488  0.50887  0.06690  1.0000
  H   H3106     1.0  0.68526  0.58163  0.00956  1.0000
  H   H3107     1.0  0.71195  0.56945  0.00395  1.0000
  H   H3108     1.0  0.98065  0.52253  0.17817  1.0000
  C   C3874     1.0  0.79176  0.43753  0.99545  1.0000
  H   H3109     1.0  0.88591  0.49484  0.08540  1.0000
  H   H3110     1.0  0.82803  0.49983  0.08368  1.0000
  H   H3111     1.0  0.77236  0.55112  0.00603  1.0000
  H   H3112     1.0  0.76431  0.57372  0.01630  1.0000
  C   C3875     1.0  0.96513  0.58525  0.07903  1.0000
  H   H3113     1.0  0.66658  0.36487  0.99207  1.0000
  C   C3876     1.0  0.81336  0.58016  0.18598  1.0000
  C   C3877     1.0  0.82183  0.59084  0.18193  1.0000
  C   C3878     1.0  0.83353  0.59078  0.16953  1.0000
  C   C3879     1.0  0.83670  0.58012  0.16110  1.0000
  C   C3880     1.0  0.82806  0.56952  0.16485  1.0000
  C   C3881     1.0  0.81644  0.56953  0.17749  1.0000
  P   P127      1.0  0.83104  0.55690  0.15287  1.0000
  C   C3882     1.0  0.82541  0.56699  0.13573  1.0000
  C   C3883     1.0  0.85024  0.54653  0.14905  1.0000
  C   C3884     1.0  0.85425  0.53593  0.14029  1.0000
  C   C3885     1.0  0.86873  0.52700  0.13818  1.0000
  C   C3886     1.0  0.87923  0.52834  0.14505  1.0000
  C   C3887     1.0  0.87531  0.53870  0.15393  1.0000
  C   C3888     1.0  0.86094  0.54783  0.15582  1.0000
  C   C3889     1.0  0.82413  0.58237  0.13109  1.0000
  C   C3890     1.0  0.81929  0.59005  0.11810  1.0000
  C   C3891     1.0  0.81552  0.58253  0.10967  1.0000
  C   C3892     1.0  0.81654  0.56731  0.11426  1.0000
  C   C3893     1.0  0.82166  0.55952  0.12710  1.0000
  C   C3894     1.0  0.81959  0.54355  0.16161  1.0000
  C   C3895     1.0  0.82554  0.52982  0.16990  1.0000
  C   C3896     1.0  0.81704  0.51916  0.17613  1.0000
  C   C3897     1.0  0.54739  0.60628  0.00389  1.0000
  C   C3898     1.0  0.79609  0.53616  0.16668  1.0000
  C   C3899     1.0  0.80466  0.54680  0.16029  1.0000
  H   H3114     1.0  0.80466  0.57989  0.19590  1.0000
  H   H3115     1.0  0.81970  0.59884  0.18871  1.0000
  H   H3116     1.0  0.84024  0.59893  0.16650  1.0000
  H   H3117     1.0  0.84577  0.58033  0.15150  1.0000
  H   H3118     1.0  0.80983  0.56129  0.18097  1.0000
  H   H3119     1.0  0.84611  0.53426  0.13538  1.0000
  H   H3120     1.0  0.87173  0.51879  0.13148  1.0000
  H   H3121     1.0  0.89031  0.52113  0.14378  1.0000
  H   H3122     1.0  0.88341  0.53951  0.15950  1.0000
  H   H3123     1.0  0.85818  0.55554  0.16290  1.0000
  H   H3124     1.0  0.82703  0.58861  0.13717  1.0000
  H   H3125     1.0  0.81894  0.60178  0.11431  1.0000
  H   H3126     1.0  0.81231  0.58848  0.09937  1.0000
  H   H3127     1.0  0.81363  0.56145  0.10777  1.0000
  H   H3128     1.0  0.82253  0.54768  0.13033  1.0000
  H   H3129     1.0  0.83672  0.52741  0.17170  1.0000
  C   C3900     1.0  0.82321  0.47577  0.12340  1.0000
  H   H3130     1.0  0.85515  0.47571  0.07655  1.0000
  H   H3131     1.0  0.62954  0.54668  0.99374  1.0000
  H   H3132     1.0  0.79967  0.55752  0.15435  1.0000
  C   C3901     1.0  0.90038  0.48073  0.14340  1.0000
  C   C3902     1.0  0.89605  0.46743  0.14606  1.0000
  C   C3903     1.0  0.90569  0.45573  0.13986  1.0000
  C   C3904     1.0  0.91973  0.45729  0.13113  1.0000
  C   C3905     1.0  0.92434  0.47053  0.12866  1.0000
  C   C3906     1.0  0.91441  0.48233  0.13469  1.0000
  P   P128      1.0  0.94258  0.47228  0.11724  1.0000
  C   C3907     1.0  0.95640  0.45539  0.12167  1.0000
  C   C3908     1.0  0.94198  0.47625  0.09795  1.0000
  C   C3909     1.0  0.92995  0.47436  0.09350  1.0000
  C   C3910     1.0  0.92953  0.47780  0.07854  1.0000
  C   C3911     1.0  0.94112  0.48307  0.06788  1.0000
  C   C3912     1.0  0.95310  0.48504  0.07222  1.0000
  C   C3913     1.0  0.95344  0.48183  0.08719  1.0000
  C   C3914     1.0  0.96962  0.45160  0.11128  1.0000
  C   C3915     1.0  0.98088  0.43936  0.11524  1.0000
  C   C3916     1.0  0.97917  0.43089  0.12961  1.0000
  C   C3917     1.0  0.96601  0.43444  0.13995  1.0000
  C   C3918     1.0  0.95466  0.44660  0.13602  1.0000
  C   C3919     1.0  0.94850  0.48747  0.11982  1.0000
  C   C3920     1.0  0.94107  0.50210  0.11491  1.0000
  C   C3921     1.0  0.94598  0.51394  0.11618  1.0000
  C   C3922     1.0  0.95843  0.51131  0.12223  1.0000
  C   C3923     1.0  0.96594  0.49681  0.12711  1.0000
  C   C3924     1.0  0.96110  0.48493  0.12579  1.0000
  H   H3133     1.0  0.89299  0.48973  0.14841  1.0000
  H   H3134     1.0  0.88526  0.46618  0.15306  1.0000
  H   H3135     1.0  0.90234  0.44540  0.14198  1.0000
  H   H3136     1.0  0.92709  0.44810  0.12643  1.0000
  H   H3137     1.0  0.91747  0.49267  0.13313  1.0000
  H   H3138     1.0  0.92073  0.47051  0.10150  1.0000
  H   H3139     1.0  0.92010  0.47659  0.07526  1.0000
  H   H3140     1.0  0.79579  0.51399  0.17941  1.0000
  H   H3141     1.0  0.96207  0.48927  0.06404  1.0000
  H   H3142     1.0  0.96265  0.48380  0.09034  1.0000
  H   H3143     1.0  0.97158  0.45822  0.10023  1.0000
  H   H3144     1.0  0.69704  0.48778  0.99563  1.0000
  H   H3145     1.0  0.96238  0.53879  0.22847  1.0000
  H   H3146     1.0  0.96474  0.42800  0.15117  1.0000
  H   H3147     1.0  0.94476  0.44934  0.14439  1.0000
  H   H3148     1.0  0.93147  0.50435  0.11008  1.0000
  H   H3149     1.0  0.94013  0.52514  0.11242  1.0000
  H   H3150     1.0  0.96235  0.52047  0.12305  1.0000
  H   H3151     1.0  0.97561  0.49477  0.13181  1.0000
  H   H3152     1.0  0.96733  0.47382  0.12931  1.0000
  H   H3153     1.0  0.87738  0.45238  0.08858  1.0000
  S   S527      1.0  0.99282  0.61394  0.22808  1.0000
  C   C3925     1.0  0.86807  0.46042  0.04072  1.0000
  C   C3926     1.0  0.87832  0.46075  0.09362  1.0000
  C   C3927     1.0  0.85325  0.46181  0.04849  1.0000
  H   H3154     1.0  0.82186  0.50853  0.18244  1.0000
  C   C3928     1.0  0.88230  0.47387  0.08481  1.0000
  C   C3929     1.0  0.95415  0.63507  0.17826  1.0000
  H   H3155     1.0  0.86716  0.52348  0.03200  1.0000
  H   H3156     1.0  0.88460  0.53670  0.03478  1.0000
  C   C3930     1.0  0.96001  0.42883  0.21726  1.0000
  H   H3157     1.0  0.55758  0.62465  0.02917  1.0000
  H   H3158     1.0  0.96376  0.60089  0.19985  1.0000
  C   C3931     1.0  0.78072  0.50501  0.10790  1.0000
  C   C3932     1.0  0.94459  0.47796  0.19924  1.0000
  C   C3933     1.0  0.75910  0.59310  0.07884  1.0000
  C   C3934     1.0  0.89547  0.51795  0.04925  1.0000
  H   H3159     1.0  0.78806  0.57265  0.04996  1.0000
  C   C3935     1.0  0.68989  0.44384  0.07152  1.0000
  C   C3936     1.0  0.69834  0.43265  0.06397  1.0000
  H   H3160     1.0  0.68149  0.44138  0.08137  1.0000
  C   C3937     1.0  0.90654  0.52820  0.20998  1.0000
  H   H3161     1.0  0.89115  0.55905  0.13485  1.0000
  C   C3938     1.0  0.71125  0.45021  0.04578  1.0000
  C   C3939     1.0  0.70249  0.46163  0.05302  1.0000
  H   H3162     1.0  0.69777  0.51069  0.05119  1.0000
  C   C3940     1.0  0.95998  0.58262  0.09437  1.0000
  H   H3163     1.0  0.94925  0.57875  0.03686  1.0000
  H   H3164     1.0  0.84514  0.45921  0.04420  1.0000
  C   C3941     1.0  0.76559  0.56301  0.07425  1.0000
  H   H3165     1.0  0.91143  0.53657  0.13884  1.0000
  C   C3942     1.0  0.96725  0.59488  0.13248  1.0000
  C   C3943     1.0  0.98727  0.63428  0.15596  1.0000
  H   H3166     1.0  0.93373  0.34701  0.22096  1.0000
  H   H3167     1.0  0.74721  0.52260  0.13601  1.0000
  H   H3168     1.0  0.92911  0.57668  0.05878  1.0000
  H   H3169     1.0  0.90870  0.64133  0.13629  1.0000
  H   H3170     1.0  0.94069  0.61580  0.10086  1.0000
  C   C3944     1.0  0.88505  0.52526  0.04044  1.0000
  C   C3945     1.0  0.73097  0.48089  0.00410  1.0000
  H   H3171     1.0  0.71962  0.45239  0.03583  1.0000
  H   H3172     1.0  0.81584  0.54272  0.22443  1.0000
  C   C3946     1.0  0.94880  0.48438  0.18435  1.0000
  C   C3947     1.0  0.90262  0.56000  0.13224  1.0000
  C   C3948     1.0  0.72637  0.48044  0.01927  1.0000
  C   C3949     1.0  0.62815  0.48151  0.99527  1.0000
  H   H3173     1.0  0.89708  0.58364  0.12497  1.0000
  C   C3950     1.0  0.98309  0.52219  0.14082  1.0000
  H   H3174     1.0  0.80871  0.48735  0.06667  1.0000
  H   H3175     1.0  0.85650  0.62597  0.05801  1.0000
  H   H3176     1.0  0.73470  0.47818  0.02571  1.0000
  H   H3177     1.0  0.72240  0.50299  0.03736  1.0000
  H   H3178     1.0  0.98283  0.55079  0.11126  1.0000
  Fe  Fe264     1.0  0.86748  0.47456  0.21096  1.0000
  Fe  Fe265     1.0  0.98919  0.47062  0.17119  1.0000
  H   H3179     1.0  0.93632  0.43170  0.22208  1.0000
  C   C3951     1.0  0.92888  0.54862  0.13096  1.0000
  H   H3180     1.0  0.93746  0.53865  0.13261  1.0000
  H   H3181     1.0  0.93230  0.60176  0.15364  1.0000
  H   H3182     1.0  0.93026  0.58176  0.14369  1.0000
  H   H3183     1.0  0.74880  0.53741  0.06148  1.0000
  C   C3952     1.0  0.71929  0.48296  0.05345  1.0000
  C   C3953     1.0  0.72572  0.49524  0.04700  1.0000
  C   C3954     1.0  0.79963  0.53905  0.05671  1.0000
  H   H3184     1.0  0.74269  0.51193  0.11734  1.0000
  H   H3185     1.0  0.99041  0.51195  0.14493  1.0000
  C   C3955     1.0  0.75654  0.51777  0.12813  1.0000
  H   H3186     1.0  0.71843  0.51964  0.99795  1.0000
  C   C3956     1.0  0.89754  0.55918  0.09883  1.0000
  C   C3957     1.0  0.91358  0.45881  0.22615  1.0000
  S   S528      1.0  0.68969  0.43004  0.99831  1.0000
  C   C3958     1.0  0.92092  0.63223  0.15365  1.0000
  C   C3959     1.0  0.96620  0.55983  0.07936  1.0000
  H   H3187     1.0  0.86728  0.63946  0.06957  1.0000
  C   C3960     1.0  0.93237  0.56260  0.12575  1.0000
  C   C3961     1.0  0.92083  0.57515  0.12318  1.0000
  C   C3962     1.0  0.94162  0.59703  0.14573  1.0000
  H   H3188     1.0  0.71972  0.46296  0.07056  1.0000
  C   C3963     1.0  0.56646  0.62940  0.02145  1.0000
  C   C3964     1.0  0.84521  0.54166  0.19506  1.0000
  H   H3189     1.0  0.78519  0.45382  0.07207  1.0000
  H   H3190     1.0  0.89081  0.62753  0.07803  1.0000
  C   C3965     1.0  0.94046  0.58572  0.13990  1.0000
  H   H3191     1.0  0.95783  0.59152  0.10001  1.0000
  Fe  Fe266     1.0  0.65735  0.55287  0.99113  1.0000
  Fe  Fe267     1.0  0.98984  0.57423  0.16594  1.0000
  C   C3966     1.0  0.72416  0.47275  0.06562  1.0000
  C   C3967     1.0  0.89356  0.60694  0.07148  1.0000
  C   C3968     1.0  0.80234  0.52228  0.17447  1.0000
  H   H3192     1.0  0.75062  0.56219  0.04612  1.0000
  C   C3969     1.0  0.95505  0.60151  0.14216  1.0000
  H   H3193     1.0  0.95618  0.60974  0.14727  1.0000
  H   H3194     1.0  0.92962  0.56702  0.20724  1.0000
  H   H3195     1.0  0.72154  0.60752  0.08325  1.0000
  C   C3970     1.0  0.77402  0.56821  0.09960  1.0000
  H   H3196     1.0  0.92330  0.58595  0.11888  1.0000
  H   H3197     1.0  0.75733  0.57363  0.13446  1.0000
  C   C3971     1.0  0.73660  0.49747  0.05281  1.0000
  H   H3198     1.0  0.74154  0.50694  0.04770  1.0000
  H   H3199     1.0  0.88699  0.64208  0.20651  1.0000
  C   C3972     1.0  0.91797  0.61776  0.11298  1.0000
  C   C3973     1.0  0.87301  0.62836  0.06809  1.0000
  H   H3200     1.0  0.73976  0.58348  0.08513  1.0000
  C   C3974     1.0  0.95259  0.57921  0.12991  1.0000
  C   C3975     1.0  0.79203  0.52890  0.05614  1.0000
  C   C3976     1.0  0.97863  0.54407  0.12170  1.0000
  H   H3201     1.0  0.76073  0.57883  0.05439  1.0000
  H   H3202     1.0  0.88363  0.43947  0.20630  1.0000
  C   C3977     1.0  0.98770  0.54681  0.20331  1.0000
  P   P129      1.0  0.79627  0.49792  0.09424  1.0000
  P   P130      1.0  0.95644  0.64446  0.15912  1.0000
  C   C3978     1.0  0.73336  0.60720  0.08094  1.0000
  C   C3979     1.0  0.96610  0.58368  0.12648  1.0000
  H   H3203     1.0  0.97580  0.57838  0.11928  1.0000
  H   H3204     1.0  0.97773  0.59820  0.12987  1.0000
  C   C3980     1.0  0.88630  0.62149  0.07301  1.0000
  H   H3205     1.0  0.80320  0.46898  0.05674  1.0000
  C   C3981     1.0  0.88076  0.48197  0.10712  1.0000
  H   H3206     1.0  0.80990  0.52306  0.08957  1.0000
  C   C3982     1.0  0.73520  0.47490  0.07130  1.0000
  C   C3983     1.0  0.64032  0.50184  0.98951  1.0000
  C   C3984     1.0  0.96136  0.39858  0.22771  1.0000
  H   H3207     1.0  0.89705  0.46181  0.21361  1.0000
  C   C3985     1.0  0.74374  0.59360  0.08193  1.0000
  P   P131      1.0  0.95137  0.56470  0.12204  1.0000
  H   H3208     1.0  0.94823  0.54330  0.15004  1.0000
  H   H3209     1.0  0.75559  0.40031  0.00013  1.0000
  C   C3986     1.0  0.74140  0.48726  0.06491  1.0000
  H   H3210     1.0  0.78460  0.53865  0.16566  1.0000
  H   H3211     1.0  0.75722  0.63022  0.07111  1.0000
  H   H3212     1.0  0.84608  0.47567  0.12176  1.0000
  C   C3987     1.0  0.90074  0.54048  0.21660  1.0000
  C   C3988     1.0  0.88869  0.55135  0.21237  1.0000
  C   C3989     1.0  0.89589  0.50326  0.05669  1.0000
  H   H3213     1.0  0.88971  0.46354  0.03956  1.0000
  H   H3214     1.0  0.94071  0.48587  0.05630  1.0000
  C   C3990     1.0  0.92977  0.61427  0.10131  1.0000
  C   C3991     1.0  0.73822  0.62039  0.07700  1.0000
  H   H3215     1.0  0.73931  0.46671  0.08032  1.0000
  C   C3992     1.0  0.86697  0.62081  0.06151  1.0000
  H   H3216     1.0  0.83719  0.46830  0.06744  1.0000
  C   C3993     1.0  0.96397  0.54835  0.12962  1.0000
  C   C3994     1.0  0.80495  0.52450  0.08025  1.0000
  C   C3995     1.0  0.80117  0.44667  0.99480  1.0000
  C   C3996     1.0  0.81105  0.48116  0.11653  1.0000
  C   C3997     1.0  0.94378  0.58833  0.04179  1.0000
  H   H3217     1.0  0.84919  0.49083  0.09629  1.0000
  H   H3218     1.0  0.55854  0.58402  0.01266  1.0000
  C   C3998     1.0  0.75346  0.61998  0.07410  1.0000
  C   C3999     1.0  0.76388  0.60640  0.07507  1.0000
  P   P132      1.0  0.77234  0.57545  0.08058  1.0000
  H   H3219     1.0  0.73017  0.63093  0.07624  1.0000
  H   H3220     1.0  0.75027  0.48866  0.06902  1.0000
  C   C4000     1.0  0.53913  0.61536  0.99341  1.0000
  P   P133      1.0  0.91075  0.59791  0.07765  1.0000
  C   C4001     1.0  0.92757  0.60847  0.09043  1.0000
  H   H3221     1.0  0.77561  0.60638  0.07284  1.0000
  H   H3222     1.0  0.95953  0.54621  0.10050  1.0000
  H   H3223     1.0  0.87264  0.61144  0.21343  1.0000
  C   C4002     1.0  0.64950  0.42747  0.99743  1.0000
  H   H3224     1.0  0.93694  0.60544  0.08173  1.0000
  C   C4003     1.0  0.53042  0.64070  0.00919  1.0000
  C   C4004     1.0  0.94806  0.60177  0.03555  1.0000
  C   C4005     1.0  0.88763  0.59959  0.06450  1.0000
  C   C4006     1.0  0.97753  0.63448  0.13515  1.0000
  S   S529      1.0  0.68074  0.55250  0.99131  1.0000
  C   C4007     1.0  0.92725  0.56776  0.21867  1.0000
  S   S530      1.0  0.98190  0.49396  0.17414  1.0000
  C   C4008     1.0  0.92546  0.59925  0.06123  1.0000
  C   C4009     1.0  0.93277  0.63270  0.15924  1.0000
  C   C4010     1.0  0.90165  0.60991  0.10282  1.0000
  C   C4011     1.0  0.76462  0.54881  0.08280  1.0000
  C   C4012     1.0  0.87428  0.60643  0.05972  1.0000
  C   C4013     1.0  0.87575  0.45824  0.10903  1.0000
  H   H3225     1.0  0.80113  0.54819  0.04746  1.0000
  H   H3226     1.0  0.95933  0.44060  0.21368  1.0000
  H   H3227     1.0  0.92381  0.62252  0.05932  1.0000
  H   H3228     1.0  0.88417  0.56087  0.21746  1.0000
  C   C4014     1.0  0.92429  0.56860  0.08802  1.0000
  C   C4015     1.0  0.91075  0.57886  0.08675  1.0000
  H   H3229     1.0  0.78719  0.53049  0.04671  1.0000
  H   H3230     1.0  0.55863  0.64764  0.99255  1.0000
  H   H3231     1.0  0.81207  0.54477  0.06906  1.0000
  H   H3232     1.0  0.71497  0.54655  0.99438  1.0000
  C   C4016     1.0  0.89982  0.52670  0.19934  1.0000
  C   C4017     1.0  0.52454  0.63180  0.02248  1.0000
  C   C4018     1.0  0.79791  0.47025  0.06798  1.0000
  C   C4019     1.0  0.94080  0.61408  0.04189  1.0000
  H   H3233     1.0  0.91980  0.62179  0.12164  1.0000
  C   C4020     1.0  0.80590  0.53699  0.06884  1.0000
  H   H3234     1.0  0.86943  0.60043  0.05495  1.0000
  C   C4021     1.0  0.76371  0.57442  0.11104  1.0000
  H   H3235     1.0  0.96506  0.52025  0.15989  1.0000
  P   P134      1.0  0.92061  0.51343  0.21721  1.0000
  C   C4022     1.0  0.89733  0.57413  0.09262  1.0000
  H   H3236     1.0  0.88670  0.58190  0.09225  1.0000
  C   C4023     1.0  0.87395  0.46961  0.05910  1.0000
  H   H3237     1.0  0.92992  0.41791  0.20371  1.0000
  C   C4024     1.0  0.90390  0.61570  0.11368  1.0000
  H   H3238     1.0  0.93438  0.62561  0.16981  1.0000
  C   C4025     1.0  0.97385  0.41887  0.21728  1.0000
  C   C4026     1.0  0.93878  0.56757  0.22507  1.0000
  H   H3239     1.0  0.93064  0.52006  0.18486  1.0000
  H   H3240     1.0  0.89315  0.58844  0.06300  1.0000
  H   H3241     1.0  0.93473  0.57206  0.08381  1.0000
  H   H3242     1.0  0.61929  0.35132  0.00006  1.0000
  C   C4027     1.0  0.72676  0.52518  0.99023  1.0000
  H   H3243     1.0  0.95687  0.60266  0.02573  1.0000
  H   H3244     1.0  0.94833  0.46619  0.20316  1.0000
  C   C4028     1.0  0.93437  0.50829  0.18900  1.0000
  S   S531      1.0  0.84542  0.48114  0.20428  1.0000
  C   C4029     1.0  0.79802  0.51382  0.07936  1.0000
  C   C4030     1.0  0.88946  0.42650  0.22675  1.0000
  H   H3245     1.0  0.82194  0.46923  0.13458  1.0000
  H   H3246     1.0  0.89076  0.60799  0.10376  1.0000
  C   C4031     1.0  0.92681  0.44624  0.06395  1.0000
  C   C4032     1.0  0.80091  0.48077  0.07360  1.0000
  C   C4033     1.0  0.91346  0.60632  0.09106  1.0000
  C   C4034     1.0  0.89915  0.46023  0.22440  1.0000
  C   C4035     1.0  0.88040  0.59370  0.23069  1.0000
  C   C4036     1.0  0.84876  0.46698  0.06160  1.0000
  C   C4037     1.0  0.92944  0.61287  0.05460  1.0000
  C   C4038     1.0  0.56633  0.64424  0.02015  1.0000
  H   H3247     1.0  0.95220  0.36197  0.20644  1.0000
  H   H3248     1.0  0.52275  0.62117  0.02260  1.0000
  C   C4039     1.0  0.82502  0.54617  0.21601  1.0000
  H   H3249     1.0  0.84860  0.60449  0.21743  1.0000
  C   C4040     1.0  0.94688  0.42370  0.22210  1.0000
  C   C4041     1.0  0.97453  0.40374  0.22255  1.0000
  H   H3250     1.0  0.89502  0.50118  0.22081  1.0000
  C   C4042     1.0  0.59034  0.35477  0.99180  1.0000
  C   C4043     1.0  0.94366  0.36579  0.21548  1.0000
  C   C4044     1.0  0.94287  0.37932  0.21873  1.0000
  H   H3251     1.0  0.98565  0.63584  0.16708  1.0000
  S   S532      1.0  0.72616  0.41587  0.99397  1.0000
  C   C4045     1.0  0.87005  0.60206  0.22206  1.0000
  C   C4046     1.0  0.93366  0.52167  0.22090  1.0000
  C   C4047     1.0  0.92100  0.37618  0.23810  1.0000
  C   C4048     1.0  0.68165  0.37510  0.99656  1.0000
  C   C4049     1.0  0.99609  0.50288  0.17220  1.0000
  H   H3252     1.0  0.77436  0.37965  0.99042  1.0000
  H   H3253     1.0  0.97994  0.45739  0.23885  1.0000
  H   H3254     1.0  0.76090  0.42502  0.99426  1.0000
  C   C4050     1.0  0.99723  0.52585  0.22157  1.0000
  H   H3255     1.0  0.85420  0.50387  0.23680  1.0000
  C   C4051     1.0  0.93107  0.52617  0.23427  1.0000
  H   H3256     1.0  0.50724  0.62353  0.99516  1.0000
  C   C4052     1.0  0.76615  0.40217  0.99307  1.0000
  H   H3257     1.0  0.64056  0.51237  0.99132  1.0000
  H   H3258     1.0  0.97375  0.50669  0.23322  1.0000
  H   H3259     1.0  0.55263  0.57294  0.99514  1.0000
  C   C4053     1.0  0.62044  0.34010  0.00657  1.0000
  H   H3260     1.0  0.67206  0.59534  0.98925  1.0000
  H   H3261     1.0  0.81777  0.49433  0.22557  1.0000
  H   H3262     1.0  0.71383  0.35408  0.99186  1.0000
  C   C4054     1.0  0.85809  0.52581  0.23070  1.0000
  C   C4055     1.0  0.85301  0.58626  0.23563  1.0000
  P   P135      1.0  0.93035  0.40210  0.23433  1.0000
  H   H3263     1.0  0.75913  0.54798  0.98897  1.0000
  C   C4056     1.0  0.57768  0.65046  0.01015  1.0000
  H   H3264     1.0  0.98542  0.55782  0.23456  1.0000
  H   H3265     1.0  0.51542  0.32900  0.02866  1.0000
  S   S533      1.0  0.86936  0.46144  0.23404  1.0000
  S   S534      1.0  0.99714  0.56086  0.14838  1.0000
  H   H3266     1.0  0.99549  0.52452  0.20015  1.0000
  S   S535      1.0  0.99392  0.47618  0.07430  1.0000
  C   C4057     1.0  0.99080  0.45010  0.23653  1.0000
  C   C4058     1.0  0.92181  0.36265  0.23484  1.0000
  C   C4059     1.0  0.88747  0.45901  0.23665  1.0000
  C   C4060     1.0  0.82082  0.48910  0.23614  1.0000
  C   C4061     1.0  0.67084  0.37475  0.98945  1.0000
  C   C4062     1.0  0.57920  0.36763  0.98920  1.0000
  C   C4063     1.0  0.74336  0.56924  0.98895  1.0000
  S   S536      1.0  0.95346  0.61871  0.25199  1.0000
  C   C4064     1.0  0.93242  0.47945  0.31858  1.0000
  C   C4065     1.0  0.93769  0.65576  0.28526  1.0000
  H   H3267     1.0  0.93668  0.34309  0.44915  1.0000
  C   C4066     1.0  0.91890  0.64564  0.31880  1.0000
  H   H3268     1.0  0.99013  0.63803  0.28634  1.0000
  H   H3269     1.0  0.96307  0.63013  0.44167  1.0000
  C   C4067     1.0  0.98865  0.60094  0.43344  1.0000
  S   S537      1.0  0.95192  0.63136  0.47076  1.0000
  C   C4068     1.0  0.93144  0.60580  0.47823  1.0000
  S   S538      1.0  0.99073  0.38026  0.36048  1.0000
  C   C4069     1.0  0.92683  0.64471  0.34493  1.0000
  C   C4070     1.0  0.91641  0.45641  0.24019  1.0000
  H   H3270     1.0  0.92364  0.57051  0.43761  1.0000
  H   H3271     1.0  0.92256  0.37947  0.28805  1.0000
  C   C4071     1.0  0.91688  0.35181  0.44031  1.0000
  H   H3272     1.0  0.89766  0.61084  0.27116  1.0000
  Fe  Fe268     1.0  0.95522  0.60336  0.27384  1.0000
  S   S539      1.0  0.94129  0.58922  0.27117  1.0000
  S   S540      1.0  0.95040  0.61105  0.29547  1.0000
  Fe  Fe269     1.0  0.96299  0.57584  0.26045  1.0000
  S   S541      1.0  0.97180  0.55082  0.26512  1.0000
  C   C4072     1.0  0.99146  0.39141  0.31979  1.0000
  H   H3273     1.0  0.97480  0.46711  0.30634  1.0000
  S   S542      1.0  0.97685  0.58892  0.26478  1.0000
  C   C4073     1.0  0.92204  0.41574  0.25815  1.0000
  Fe  Fe270     1.0  0.94061  0.45879  0.26044  1.0000
  S   S543      1.0  0.95435  0.47576  0.25489  1.0000
  C   C4074     1.0  0.98154  0.64415  0.40098  1.0000
  Fe  Fe271     1.0  0.94250  0.45032  0.29274  1.0000
  S   S544      1.0  0.95647  0.46643  0.28973  1.0000
  S   S545      1.0  0.93397  0.43551  0.31389  1.0000
  Fe  Fe272     1.0  0.94072  0.48218  0.27608  1.0000
  S   S546      1.0  0.93012  0.50565  0.27914  1.0000
  Fe  Fe273     1.0  0.96881  0.45844  0.26898  1.0000
  H   H3274     1.0  0.96829  0.39042  0.32548  1.0000
  S   S547      1.0  0.92574  0.46646  0.28056  1.0000
  S   S548      1.0  0.95603  0.44106  0.27307  1.0000
  S   S549      1.0  0.95741  0.38090  0.38111  1.0000
  C   C4075     1.0  0.95824  0.52199  0.31552  1.0000
  C   C4076     1.0  0.98152  0.35156  0.46010  1.0000
  C   C4077     1.0  0.92592  0.38905  0.26468  1.0000
  H   H3275     1.0  0.92183  0.62314  0.35237  1.0000
  H   H3276     1.0  0.88611  0.51130  0.27873  1.0000
  C   C4078     1.0  0.97292  0.46012  0.36093  1.0000
  H   H3277     1.0  0.91621  0.42677  0.27629  1.0000
  C   C4079     1.0  0.94470  0.43057  0.32741  1.0000
  C   C4080     1.0  0.94065  0.42063  0.34057  1.0000
  C   C4081     1.0  0.94878  0.41679  0.35169  1.0000
  Fe  Fe274     1.0  0.96922  0.36916  0.39989  1.0000
  C   C4082     1.0  0.98117  0.63373  0.29429  1.0000
  C   C4083     1.0  0.95714  0.43642  0.32527  1.0000
  H   H3278     1.0  0.93112  0.41597  0.34226  1.0000
  H   H3279     1.0  0.94542  0.40933  0.36194  1.0000
  H   H3280     1.0  0.96049  0.44389  0.31509  1.0000
  C   C4084     1.0  0.95493  0.57283  0.48042  1.0000
  C   C4085     1.0  0.96007  0.36381  0.27649  1.0000
  H   H3281     1.0  0.91553  0.64591  0.30886  1.0000
  C   C4086     1.0  0.96789  0.48407  0.37411  1.0000
  C   C4087     1.0  0.89030  0.45609  0.25083  1.0000
  C   C4088     1.0  0.90473  0.45508  0.25261  1.0000
  C   C4089     1.0  0.96572  0.35959  0.43723  1.0000
  C   C4090     1.0  0.98663  0.64617  0.41251  1.0000
  H   H3282     1.0  0.88132  0.45477  0.26032  1.0000
  H   H3283     1.0  0.90689  0.45301  0.26352  1.0000
  H   H3284     1.0  0.93109  0.57466  0.48785  1.0000
  Fe  Fe275     1.0  0.98040  0.65465  0.33484  1.0000
  C   C4091     1.0  0.94476  0.46464  0.34325  1.0000
  C   C4092     1.0  0.96112  0.33383  0.36216  1.0000
  Fe  Fe276     1.0  0.94130  0.60362  0.24835  1.0000
  H   H3285     1.0  0.90126  0.59638  0.25250  1.0000
  H   H3286     1.0  0.96329  0.35905  0.24178  1.0000
  C   C4093     1.0  0.96006  0.53838  0.26918  1.0000
  C   C4094     1.0  0.96643  0.52363  0.26782  1.0000
  C   C4095     1.0  0.95739  0.51345  0.27094  1.0000
  C   C4096     1.0  0.94193  0.51790  0.27573  1.0000
  C   C4097     1.0  0.93562  0.53253  0.27750  1.0000
  C   C4098     1.0  0.94463  0.54279  0.27411  1.0000
  H   H3287     1.0  0.97838  0.52009  0.26423  1.0000
  H   H3288     1.0  0.96237  0.50220  0.26956  1.0000
  H   H3289     1.0  0.92373  0.53597  0.28137  1.0000
  H   H3290     1.0  0.93966  0.55405  0.27545  1.0000
  H   H3291     1.0  0.97194  0.59656  0.47547  1.0000
  C   C4099     1.0  0.96597  0.63052  0.31895  1.0000
  C   C4100     1.0  0.95789  0.62278  0.31470  1.0000
  C   C4101     1.0  0.96132  0.62052  0.30022  1.0000
  C   C4102     1.0  0.97298  0.62612  0.28998  1.0000
  C   C4103     1.0  0.91824  0.63325  0.33037  1.0000
  P   P136      1.0  0.96958  0.47761  0.33324  1.0000
  H   H3292     1.0  0.97565  0.62461  0.27875  1.0000
  C   C4104     1.0  0.90129  0.35561  0.44353  1.0000
  H   H3293     1.0  0.97013  0.54862  0.43184  1.0000
  H   H3294     1.0  0.89742  0.52429  0.29017  1.0000
  S   S550      1.0  0.95821  0.65252  0.34960  1.0000
  C   C4105     1.0  0.99639  0.48544  0.27001  1.0000
  H   H3295     1.0  0.95768  0.35433  0.31458  1.0000
  H   H3296     1.0  0.86868  0.58400  0.30171  1.0000
  H   H3297     1.0  0.95121  0.48943  0.31065  1.0000
  H   H3298     1.0  0.94213  0.64774  0.29419  1.0000
  C   C4106     1.0  0.86327  0.57799  0.24441  1.0000
  H   H3299     1.0  0.90859  0.63882  0.46671  1.0000
  C   C4107     1.0  0.97050  0.46962  0.38248  1.0000
  H   H3300     1.0  0.94897  0.61844  0.32273  1.0000
  H   H3301     1.0  0.91179  0.38036  0.24647  1.0000
  S   S551      1.0  0.99184  0.34553  0.47415  1.0000
  H   H3302     1.0  0.97813  0.34233  0.32615  1.0000
  C   C4108     1.0  0.96516  0.43274  0.33649  1.0000
  C   C4109     1.0  0.88304  0.59824  0.28775  1.0000
  C   C4110     1.0  0.97030  0.47461  0.35241  1.0000
  C   C4111     1.0  0.79872  0.50812  0.30049  1.0000
  C   C4112     1.0  0.78932  0.52073  0.29394  1.0000
  C   C4113     1.0  0.79380  0.52740  0.27915  1.0000
  C   C4114     1.0  0.80773  0.52157  0.27093  1.0000
  C   C4115     1.0  0.81742  0.50918  0.27756  1.0000
  C   C4116     1.0  0.81267  0.50226  0.29230  1.0000
  P   P137      1.0  0.83494  0.50123  0.26660  1.0000
  C   C4117     1.0  0.84791  0.49065  0.27830  1.0000
  C   C4118     1.0  0.82980  0.49045  0.25692  1.0000
  C   C4119     1.0  0.82840  0.47585  0.26352  1.0000
  C   C4120     1.0  0.82398  0.46774  0.25610  1.0000
  H   H3303     1.0  0.97050  0.46766  0.39411  1.0000
  C   C4121     1.0  0.94669  0.55874  0.43360  1.0000
  C   C4122     1.0  0.82552  0.49714  0.24339  1.0000
  C   C4123     1.0  0.84949  0.49667  0.28938  1.0000
  C   C4124     1.0  0.85910  0.48849  0.29887  1.0000
  C   C4125     1.0  0.86718  0.47421  0.29740  1.0000
  C   C4126     1.0  0.86589  0.46825  0.28623  1.0000
  C   C4127     1.0  0.85661  0.47657  0.27644  1.0000
  C   C4128     1.0  0.84333  0.51593  0.25432  1.0000
  C   C4129     1.0  0.84109  0.52931  0.25868  1.0000
  H   H3304     1.0  0.98084  0.42549  0.24656  1.0000
  C   C4130     1.0  0.98599  0.56676  0.31452  1.0000
  C   C4131     1.0  0.92400  0.62486  0.45237  1.0000
  Fe  Fe277     1.0  0.96960  0.64892  0.36820  1.0000
  H   H3305     1.0  0.79512  0.50278  0.31188  1.0000
  H   H3306     1.0  0.77848  0.52520  0.30027  1.0000
  H   H3307     1.0  0.78641  0.53700  0.27397  1.0000
  H   H3308     1.0  0.81090  0.52665  0.25936  1.0000
  H   H3309     1.0  0.81962  0.49226  0.29744  1.0000
  H   H3310     1.0  0.83070  0.47070  0.27437  1.0000
  H   H3311     1.0  0.82345  0.45632  0.26099  1.0000
  H   H3312     1.0  0.97473  0.45066  0.35607  1.0000
  H   H3313     1.0  0.97075  0.59234  0.43238  1.0000
  C   C4132     1.0  0.98910  0.36255  0.30305  1.0000
  H   H3314     1.0  0.84321  0.50767  0.29075  1.0000
  H   H3315     1.0  0.86024  0.49317  0.30743  1.0000
  H   H3316     1.0  0.87460  0.46782  0.30478  1.0000
  H   H3317     1.0  0.87238  0.45727  0.28497  1.0000
  H   H3318     1.0  0.85641  0.47204  0.26738  1.0000
  H   H3319     1.0  0.83458  0.53087  0.26949  1.0000
  H   H3320     1.0  0.98669  0.64811  0.38962  1.0000
  C   C4133     1.0  0.98441  0.46181  0.31114  1.0000
  H   H3321     1.0  0.91343  0.35638  0.24084  1.0000
  H   H3322     1.0  0.95648  0.41974  0.24992  1.0000
  C   C4134     1.0  0.93492  0.61173  0.45159  1.0000
  C   C4135     1.0  0.97608  0.59490  0.43964  1.0000
  C   C4136     1.0  0.99610  0.45186  0.30414  1.0000
  C   C4137     1.0  0.93156  0.46200  0.34199  1.0000
  P   P138      1.0  0.96747  0.37296  0.28606  1.0000
  H   H3323     1.0  0.93413  0.34239  0.38813  1.0000
  H   H3324     1.0  0.89827  0.41321  0.24551  1.0000
  C   C4138     1.0  0.87592  0.58656  0.29100  1.0000
  C   C4139     1.0  0.94507  0.33849  0.40610  1.0000
  C   C4140     1.0  0.90951  0.56964  0.24191  1.0000
  C   C4141     1.0  0.95209  0.47456  0.33204  1.0000
  C   C4142     1.0  0.89417  0.54465  0.27394  1.0000
  C   C4143     1.0  0.97072  0.49631  0.32343  1.0000
  C   C4144     1.0  0.92131  0.56846  0.24854  1.0000
  H   H3325     1.0  0.99026  0.34917  0.27334  1.0000
  P   P139      1.0  0.89071  0.57082  0.25279  1.0000
  H   H3326     1.0  0.88142  0.60468  0.29592  1.0000
  Fe  Fe278     1.0  0.97419  0.39496  0.37453  1.0000
  C   C4145     1.0  0.97022  0.59282  0.45492  1.0000
  C   C4146     1.0  0.94645  0.39168  0.30361  1.0000
  H   H3327     1.0  0.93675  0.34069  0.28280  1.0000
  C   C4147     1.0  0.98431  0.51331  0.30484  1.0000
  H   H3328     1.0  0.91552  0.46684  0.32843  1.0000
  Fe  Fe279     1.0  0.93966  0.65084  0.48107  1.0000
  H   H3329     1.0  0.95990  0.35311  0.47476  1.0000
  H   H3330     1.0  0.94601  0.36066  0.45470  1.0000
  C   C4148     1.0  0.96772  0.48659  0.35914  1.0000
  H   H3331     1.0  0.89918  0.55016  0.27907  1.0000
  S   S552      1.0  0.97352  0.35824  0.34828  1.0000
  C   C4149     1.0  0.88232  0.52965  0.26047  1.0000
  H   H3332     1.0  0.94934  0.45845  0.35278  1.0000
  H   H3333     1.0  0.94610  0.35333  0.29607  1.0000
  H   H3334     1.0  0.93965  0.53526  0.24741  1.0000
  C   C4150     1.0  0.93658  0.33505  0.39833  1.0000
  H   H3335     1.0  0.92925  0.37839  0.26172  1.0000
  C   C4151     1.0  0.94257  0.36875  0.32832  1.0000
  H   H3336     1.0  0.99604  0.53121  0.24244  1.0000
  C   C4152     1.0  0.88695  0.52261  0.27372  1.0000
  C   C4153     1.0  0.93702  0.39474  0.31689  1.0000
  H   H3337     1.0  0.93470  0.59907  0.48831  1.0000
  C   C4154     1.0  0.96283  0.56488  0.44541  1.0000
  C   C4155     1.0  0.94576  0.48195  0.31968  1.0000
  H   H3338     1.0  0.91480  0.62396  0.32911  1.0000
  C   C4156     1.0  0.88768  0.58138  0.26661  1.0000
  H   H3339     1.0  0.92826  0.38574  0.33968  1.0000
  S   S553      1.0  0.93500  0.45340  0.24166  1.0000
  H   H3340     1.0  0.94924  0.34852  0.40196  1.0000
  C   C4157     1.0  0.96078  0.55664  0.43650  1.0000
  H   H3341     1.0  0.95368  0.33270  0.42563  1.0000
  H   H3342     1.0  0.99410  0.49055  0.31290  1.0000
  C   C4158     1.0  0.98915  0.35320  0.44529  1.0000
  H   H3343     1.0  0.87238  0.56935  0.28303  1.0000
  C   C4159     1.0  0.89311  0.53002  0.28031  1.0000
  H   H3344     1.0  0.94138  0.35987  0.33800  1.0000
  C   C4160     1.0  0.95792  0.50792  0.32449  1.0000
  C   C4161     1.0  0.92232  0.38959  0.27966  1.0000
  C   C4162     1.0  0.93520  0.38331  0.32927  1.0000
  C   C4163     1.0  0.94991  0.35486  0.28423  1.0000
  C   C4164     1.0  0.89219  0.60171  0.27385  1.0000
  C   C4165     1.0  0.97662  0.39630  0.31824  1.0000
  C   C4166     1.0  0.88343  0.54427  0.25406  1.0000
  C   C4167     1.0  0.92044  0.61889  0.47899  1.0000
  C   C4168     1.0  0.96592  0.35429  0.46343  1.0000
  C   C4169     1.0  0.95192  0.36565  0.31505  1.0000
  S   S554      1.0  0.91967  0.61620  0.24090  1.0000
  C   C4170     1.0  0.91865  0.40319  0.28386  1.0000
  C   C4171     1.0  0.87813  0.57821  0.28043  1.0000
  H   H3345     1.0  0.98976  0.47762  0.27680  1.0000
  Fe  Fe280     1.0  0.97147  0.64190  0.46423  1.0000
  C   C4172     1.0  0.98403  0.49921  0.31378  1.0000
  C   C4173     1.0  0.97185  0.33670  0.33606  1.0000
  C   C4174     1.0  0.96997  0.63681  0.40418  1.0000
  H   H3346     1.0  0.86023  0.56907  0.25334  1.0000
  H   H3347     1.0  0.97791  0.56308  0.32419  1.0000
  C   C4175     1.0  0.87727  0.58134  0.24164  1.0000
  C   C4176     1.0  0.96088  0.42305  0.34977  1.0000
  H   H3348     1.0  0.94820  0.53077  0.31596  1.0000
  H   H3349     1.0  0.87810  0.52369  0.25504  1.0000
  H   H3350     1.0  0.94858  0.64157  0.26982  1.0000
  H   H3351     1.0  0.97278  0.58906  0.31041  1.0000
  C   C4177     1.0  0.89435  0.59341  0.26329  1.0000
  H   H3352     1.0  0.97914  0.56744  0.47611  1.0000
  C   C4178     1.0  0.95410  0.37708  0.30262  1.0000
  H   H3353     1.0  0.95905  0.33737  0.37239  1.0000
  H   H3354     1.0  0.97464  0.43739  0.33491  1.0000
  H   H3355     1.0  0.99283  0.60301  0.42159  1.0000
  C   C4179     1.0  0.96894  0.56535  0.48372  1.0000
  H   H3356     1.0  0.93138  0.40604  0.31770  1.0000
  C   C4180     1.0  0.94455  0.34762  0.27670  1.0000
  H   H3357     1.0  0.97378  0.56305  0.44768  1.0000
  S   S555      1.0  0.98531  0.35205  0.38771  1.0000
  H   H3358     1.0  0.94794  0.40084  0.29436  1.0000
  C   C4181     1.0  0.98129  0.35715  0.43389  1.0000
  C   C4182     1.0  0.96466  0.41220  0.25599  1.0000
  H   H3359     1.0  0.99077  0.59762  0.28826  1.0000
  S   S556      1.0  0.97032  0.41929  0.36411  1.0000
  C   C4183     1.0  0.91680  0.34525  0.46646  1.0000
  C   C4184     1.0  0.96692  0.32454  0.33562  1.0000
  C   C4185     1.0  0.92544  0.46932  0.32963  1.0000
  C   C4186     1.0  0.93661  0.57723  0.44867  1.0000
  C   C4187     1.0  0.98434  0.36084  0.29120  1.0000
  H   H3360     1.0  0.92640  0.45380  0.35035  1.0000
  H   H3361     1.0  0.92776  0.48502  0.30890  1.0000
  H   H3362     1.0  0.89533  0.35944  0.43461  1.0000
  H   H3363     1.0  0.91930  0.56837  0.26017  1.0000
  H   H3364     1.0  0.97149  0.53545  0.29834  1.0000
  C   C4188     1.0  0.96863  0.34168  0.34917  1.0000
  H   H3365     1.0  0.92143  0.63244  0.44233  1.0000
  H   H3366     1.0  0.94071  0.60929  0.44087  1.0000
  H   H3367     1.0  0.99531  0.44937  0.29409  1.0000
  C   C4189     1.0  0.93863  0.60202  0.46452  1.0000
  H   H3368     1.0  0.88531  0.38008  0.47019  1.0000
  H   H3369     1.0  0.88005  0.54943  0.24369  1.0000
  C   C4190     1.0  0.97138  0.52464  0.30559  1.0000
  H   H3370     1.0  0.97296  0.37179  0.25493  1.0000
  C   C4191     1.0  0.98543  0.39347  0.27239  1.0000
  Fe  Fe281     1.0  0.97493  0.36517  0.36838  1.0000
  H   H3371     1.0  0.87882  0.48936  0.24268  1.0000
  C   C4192     1.0  0.94932  0.34918  0.26141  1.0000
  C   C4193     1.0  0.92549  0.40218  0.25381  1.0000
  S   S557      1.0  0.99241  0.64904  0.35368  1.0000
  C   C4194     1.0  0.88898  0.55201  0.26097  1.0000
  H   H3372     1.0  0.96100  0.41267  0.30639  1.0000
  C   C4195     1.0  0.92460  0.34633  0.45176  1.0000
  H   H3373     1.0  0.92303  0.35292  0.42894  1.0000
  C   C4196     1.0  0.93459  0.56897  0.43975  1.0000
  C   C4197     1.0  0.97249  0.40883  0.30755  1.0000
  C   C4198     1.0  0.98928  0.60349  0.45755  1.0000
  H   H3374     1.0  0.92210  0.42593  0.24993  1.0000
  C   C4199     1.0  0.99635  0.49023  0.25496  1.0000
  C   C4200     1.0  0.97774  0.63598  0.30878  1.0000
  H   H3375     1.0  0.92706  0.58493  0.45351  1.0000
  S   S558      1.0  0.95569  0.36388  0.42313  1.0000
  C   C4201     1.0  0.97675  0.59740  0.46379  1.0000
  H   H3376     1.0  0.88135  0.35750  0.46051  1.0000
  C   C4202     1.0  0.94781  0.32926  0.41950  1.0000
  S   S559      1.0  0.98661  0.64390  0.44156  1.0000
  H   H3377     1.0  0.95439  0.62617  0.42142  1.0000
  C   C4203     1.0  0.97992  0.64128  0.42729  1.0000
  P   P140      1.0  0.95358  0.58572  0.46303  1.0000
  S   S560      1.0  0.96390  0.63340  0.38998  1.0000
  H   H3378     1.0  0.96554  0.49786  0.35290  1.0000
  C   C4204     1.0  0.90430  0.49302  0.25929  1.0000
  C   C4205     1.0  0.89152  0.48978  0.25785  1.0000
  C   C4206     1.0  0.97181  0.38977  0.27388  1.0000
  H   H3379     1.0  0.91598  0.40362  0.29545  1.0000
  C   C4207     1.0  0.91673  0.62843  0.46607  1.0000
  C   C4208     1.0  0.91400  0.49894  0.24687  1.0000
  C   C4209     1.0  0.96489  0.36522  0.26112  1.0000
  C   C4210     1.0  0.89343  0.35451  0.45820  1.0000
  S   S561      1.0  0.98848  0.64552  0.31375  1.0000
  C   C4211     1.0  0.91868  0.41624  0.27310  1.0000
  H   H3380     1.0  0.94518  0.34352  0.25561  1.0000
  C   C4212     1.0  0.96330  0.63186  0.41891  1.0000
  C   C4213     1.0  0.94153  0.65229  0.27134  1.0000
  C   C4214     1.0  0.96814  0.63424  0.43042  1.0000
  C   C4215     1.0  0.95805  0.35838  0.45202  1.0000
  H   H3381     1.0  0.94753  0.50597  0.33186  1.0000
  C   C4216     1.0  0.92224  0.63277  0.34343  1.0000
  C   C4217     1.0  0.97300  0.45765  0.37588  1.0000
  H   H3382     1.0  0.94512  0.55240  0.42664  1.0000
  C   C4218     1.0  0.90116  0.34989  0.46975  1.0000
  H   H3383     1.0  0.99351  0.38656  0.27881  1.0000
  H   H3384     1.0  0.90662  0.49117  0.27008  1.0000
  H   H3385     1.0  0.88432  0.48485  0.26748  1.0000
  C   C4219     1.0  0.98506  0.46488  0.32431  1.0000
  C   C4220     1.0  0.95950  0.35796  0.25362  1.0000
  S   S562      1.0  0.98051  0.62979  0.48471  1.0000
  C   C4221     1.0  0.95083  0.57548  0.45126  1.0000
  H   H3386     1.0  0.96321  0.63203  0.33017  1.0000
  C   C4222     1.0  0.98304  0.41682  0.29878  1.0000
  C   C4223     1.0  0.99348  0.35052  0.28274  1.0000
  C   C4224     1.0  0.97839  0.41554  0.25419  1.0000
  C   C4225     1.0  0.96144  0.39930  0.26569  1.0000
  C   C4226     1.0  0.99524  0.60523  0.44240  1.0000
  H   H3387     1.0  0.95081  0.39684  0.26692  1.0000
  H   H3388     1.0  0.97483  0.44640  0.38235  1.0000
  S   S563      1.0  0.98479  0.38448  0.39411  1.0000
  C   C4227     1.0  0.85216  0.51414  0.24037  1.0000
  H   H3389     1.0  0.86357  0.40123  0.47152  1.0000
  H   H3390     1.0  0.96587  0.49334  0.37927  1.0000
  C   C4228     1.0  0.84690  0.54099  0.24893  1.0000
  H   H3391     1.0  0.92423  0.50055  0.24826  1.0000
  H   H3392     1.0  0.97971  0.42682  0.29083  1.0000
  H   H3393     1.0  0.84469  0.55147  0.25211  1.0000
  C   C4229     1.0  0.87540  0.37887  0.47875  1.0000
  H   H3394     1.0  0.98225  0.37036  0.30977  1.0000
  H   H3395     1.0  0.99563  0.65175  0.40995  1.0000
  S   S564      1.0  0.99388  0.45144  0.26359  1.0000
  H   H3396     1.0  0.92974  0.64440  0.35514  1.0000
  H   H3397     1.0  0.92300  0.34106  0.47521  1.0000
  C   C4230     1.0  0.98871  0.40632  0.26248  1.0000
  H   H3398     1.0  0.98726  0.35815  0.42252  1.0000
  Fe  Fe282     1.0  0.97418  0.60334  0.24262  1.0000
  H   H3399     1.0  0.92094  0.52538  0.24257  1.0000
  H   H3400     1.0  0.99656  0.63268  0.24897  1.0000
  C   C4231     1.0  0.88836  0.49250  0.24393  1.0000
  H   H3401     1.0  0.98978  0.48577  0.25047  1.0000
  C   C4232     1.0  0.92398  0.65748  0.32005  1.0000
  C   C4233     1.0  0.99337  0.58626  0.29418  1.0000
  H   H3402     1.0  0.86518  0.33990  0.48774  1.0000
  H   H3403     1.0  0.99436  0.38171  0.32820  1.0000
  H   H3404     1.0  0.91377  0.36767  0.48107  1.0000
  C   C4234     1.0  0.93586  0.56759  0.24009  1.0000
  H   H3405     1.0  0.99408  0.60731  0.46438  1.0000
  C   C4235     1.0  0.82032  0.47433  0.24235  1.0000
  C   C4236     1.0  0.98309  0.58142  0.30675  1.0000
  H   H3406     1.0  0.99444  0.51542  0.29706  1.0000
  H   H3407     1.0  0.94490  0.56673  0.24524  1.0000
  C   C4237     1.0  0.86315  0.39094  0.47957  1.0000
  P   P141      1.0  0.89107  0.35019  0.48854  1.0000
  C   C4238     1.0  0.92777  0.65701  0.33327  1.0000
  C   C4239     1.0  0.99777  0.41222  0.30059  1.0000
  C   C4240     1.0  0.99800  0.45833  0.33007  1.0000
  H   H3408     1.0  0.97711  0.41730  0.69804  1.0000
  C   C4241     1.0  0.97155  0.63267  0.56314  1.0000
  H   H3409     1.0  0.96292  0.47059  0.63970  1.0000
  C   C4242     1.0  0.91980  0.48764  0.73696  1.0000
  C   C4243     1.0  0.96208  0.45398  0.57274  1.0000
  H   H3410     1.0  0.89841  0.52287  0.65973  1.0000
  H   H3411     1.0  0.99535  0.49053  0.64494  1.0000
  Fe  Fe283     1.0  0.93487  0.54678  0.69542  1.0000
  S   S565      1.0  0.94299  0.52305  0.69370  1.0000
  S   S566      1.0  0.93154  0.55449  0.71637  1.0000
  Fe  Fe284     1.0  0.93111  0.55726  0.66358  1.0000
  S   S567      1.0  0.93905  0.53439  0.65910  1.0000
  S   S568      1.0  0.92304  0.57641  0.64614  1.0000
  Fe  Fe285     1.0  0.92485  0.52797  0.68135  1.0000
  S   S569      1.0  0.91049  0.51198  0.68591  1.0000
  Fe  Fe286     1.0  0.95646  0.53181  0.67171  1.0000
  P   P142      1.0  0.96193  0.34844  0.60603  1.0000
  S   S570      1.0  0.91535  0.55101  0.68497  1.0000
  S   S571      1.0  0.94985  0.55541  0.67426  1.0000
  C   C4244     1.0  0.95981  0.60666  0.66413  1.0000
  Fe  Fe287     1.0  0.92964  0.40745  0.70296  1.0000
  H   H3412     1.0  0.97469  0.49665  0.57759  1.0000
  S   S572      1.0  0.92258  0.39816  0.68751  1.0000
  H   H3413     1.0  0.92795  0.37299  0.49609  1.0000
  Fe  Fe288     1.0  0.94461  0.43146  0.70170  1.0000
  P   P143      1.0  0.96413  0.45955  0.55293  1.0000
  H   H3414     1.0  0.92679  0.45210  0.62388  1.0000
  S   S573      1.0  0.92055  0.43097  0.70530  1.0000
  C   C4245     1.0  0.96329  0.49944  0.58367  1.0000
  C   C4246     1.0  0.93264  0.39983  0.66896  1.0000
  C   C4247     1.0  0.94392  0.40781  0.66315  1.0000
  H   H3415     1.0  0.99320  0.64097  0.61283  1.0000
  H   H3416     1.0  0.94637  0.41364  0.66997  1.0000
  C   C4248     1.0  0.93524  0.52628  0.73433  1.0000
  S   S574      1.0  0.98008  0.52864  0.56966  1.0000
  H   H3417     1.0  0.95117  0.43646  0.57472  1.0000
  C   C4249     1.0  0.92261  0.49479  0.68456  1.0000
  C   C4250     1.0  0.93766  0.49374  0.67746  1.0000
  C   C4251     1.0  0.94757  0.47982  0.67779  1.0000
  C   C4252     1.0  0.94245  0.46702  0.68542  1.0000
  C   C4253     1.0  0.92744  0.46819  0.69253  1.0000
  C   C4254     1.0  0.91747  0.48200  0.69181  1.0000
  H   H3418     1.0  0.94175  0.50360  0.67188  1.0000
  H   H3419     1.0  0.95658  0.38653  0.55503  1.0000
  H   H3420     1.0  0.92347  0.45856  0.69880  1.0000
  H   H3421     1.0  0.90591  0.48283  0.69747  1.0000
  Fe  Fe289     1.0  0.98133  0.40288  0.60887  1.0000
  H   H3422     1.0  0.96929  0.49042  0.60474  1.0000
  C   C4255     1.0  0.92918  0.39283  0.65978  1.0000
  C   C4256     1.0  0.97990  0.47901  0.64296  1.0000
  H   H3423     1.0  0.93393  0.47607  0.61342  1.0000
  C   C4257     1.0  0.91988  0.36618  0.50131  1.0000
  C   C4258     1.0  0.89768  0.47093  0.73156  1.0000
  C   C4259     1.0  0.94479  0.56711  0.60022  1.0000
  C   C4260     1.0  0.95497  0.44238  0.58053  1.0000
  H   H3424     1.0  0.93326  0.46623  0.57067  1.0000
  C   C4261     1.0  0.97750  0.39033  0.67249  1.0000
  H   H3425     1.0  0.94484  0.48543  0.70450  1.0000
  H   H3426     1.0  0.98740  0.58971  0.49427  1.0000
  C   C4262     1.0  0.91765  0.36039  0.51650  1.0000
  H   H3427     1.0  0.93401  0.58923  0.66296  1.0000
  H   H3428     1.0  0.95780  0.54478  0.51773  1.0000
  H   H3429     1.0  0.97561  0.43776  0.70943  1.0000
  H   H3430     1.0  0.95118  0.60806  0.53911  1.0000
  H   H3431     1.0  0.95088  0.55696  0.63519  1.0000
  C   C4263     1.0  0.96385  0.50704  0.63160  1.0000
  S   S575      1.0  0.95524  0.59898  0.50560  1.0000
  C   C4264     1.0  0.93135  0.57765  0.60255  1.0000
  C   C4265     1.0  0.92495  0.58075  0.61661  1.0000
  C   C4266     1.0  0.93182  0.57312  0.62845  1.0000
  C   C4267     1.0  0.94729  0.35494  0.63343  1.0000
  H   H3432     1.0  0.97784  0.62333  0.55816  1.0000
  H   H3433     1.0  0.92585  0.58338  0.59347  1.0000
  H   H3434     1.0  0.91447  0.58878  0.61840  1.0000
  H   H3435     1.0  0.92831  0.51680  0.57819  1.0000
  C   C4268     1.0  0.90689  0.52395  0.64965  1.0000
  C   C4269     1.0  0.99773  0.48965  0.53219  1.0000
  C   C4270     1.0  0.99184  0.52247  0.67382  1.0000
  H   H3436     1.0  0.94173  0.52210  0.72463  1.0000
  C   C4271     1.0  0.94865  0.40097  0.63942  1.0000
  H   H3437     1.0  0.92259  0.32647  0.64347  1.0000
  C   C4272     1.0  0.97715  0.50553  0.63583  1.0000
  H   H3438     1.0  0.92033  0.38688  0.66405  1.0000
  H   H3439     1.0  0.97476  0.53716  0.68624  1.0000
  C   C4273     1.0  0.94555  0.49996  0.60708  1.0000
  C   C4274     1.0  0.91678  0.51128  0.64537  1.0000
  C   C4275     1.0  0.96458  0.33906  0.58021  1.0000
  H   H3440     1.0  0.93468  0.47921  0.65697  1.0000
  C   C4276     1.0  0.92897  0.45980  0.65550  1.0000
  P   P144      1.0  0.94149  0.49648  0.62696  1.0000
  C   C4277     1.0  0.97797  0.41608  0.53601  1.0000
  C   C4278     1.0  0.91197  0.36294  0.49279  1.0000
  H   H3441     1.0  0.93273  0.49342  0.51899  1.0000
  H   H3442     1.0  0.96218  0.55151  0.61031  1.0000
  C   C4279     1.0  0.98761  0.59558  0.54166  1.0000
  C   C4280     1.0  0.96482  0.45713  0.59599  1.0000
  C   C4281     1.0  0.95809  0.44533  0.60360  1.0000
  C   C4282     1.0  0.95294  0.43814  0.59589  1.0000
  C   C4283     1.0  0.96683  0.46145  0.58062  1.0000
  H   H3443     1.0  0.96879  0.46276  0.60193  1.0000
  H   H3444     1.0  0.95698  0.44162  0.61546  1.0000
  H   H3445     1.0  0.94768  0.42901  0.60180  1.0000
  C   C4284     1.0  0.94995  0.47607  0.72587  1.0000
  H   H3446     1.0  0.96363  0.36245  0.69762  1.0000
  H   H3447     1.0  0.96073  0.41432  0.64394  1.0000
  C   C4285     1.0  0.99300  0.60811  0.53360  1.0000
  C   C4286     1.0  0.95418  0.59106  0.64643  1.0000
  H   H3448     1.0  0.96138  0.47125  0.72141  1.0000
  H   H3449     1.0  0.95363  0.57603  0.53129  1.0000
  H   H3450     1.0  0.98600  0.46815  0.64752  1.0000
  H   H3451     1.0  0.89147  0.34137  0.52018  1.0000
  H   H3452     1.0  0.87384  0.50494  0.72946  1.0000
  H   H3453     1.0  0.95177  0.44839  0.53405  1.0000
  C   C4287     1.0  0.95185  0.50711  0.57614  1.0000
  C   C4288     1.0  0.98588  0.35875  0.54551  1.0000
  C   C4289     1.0  0.94198  0.56939  0.49037  1.0000
  C   C4290     1.0  0.91998  0.48090  0.55564  1.0000
  S   S576      1.0  0.95478  0.44965  0.68587  1.0000
  H   H3454     1.0  0.93700  0.35935  0.59100  1.0000
  C   C4291     1.0  0.96020  0.49594  0.59910  1.0000
  H   H3455     1.0  0.93399  0.38830  0.63807  1.0000
  H   H3456     1.0  0.96046  0.44315  0.64699  1.0000
  C   C4292     1.0  0.96927  0.58436  0.51219  1.0000
  C   C4293     1.0  0.99887  0.34079  0.62337  1.0000
  H   H3457     1.0  0.97753  0.44140  0.73753  1.0000
  H   H3458     1.0  0.99575  0.45414  0.53623  1.0000
  C   C4294     1.0  0.87229  0.48741  0.72070  1.0000
  S   S577      1.0  0.95233  0.56345  0.58249  1.0000
  H   H3459     1.0  0.93710  0.64710  0.55027  1.0000
  H   H3460     1.0  0.98569  0.46366  0.72271  1.0000
  C   C4295     1.0  0.98802  0.61955  0.61790  1.0000
  H   H3461     1.0  0.96302  0.35058  0.57465  1.0000
  H   H3462     1.0  0.92055  0.55029  0.62207  1.0000
  C   C4296     1.0  0.96772  0.37954  0.55399  1.0000
  C   C4297     1.0  0.99044  0.57309  0.63214  1.0000
  C   C4298     1.0  0.95373  0.60145  0.59671  1.0000
  C   C4299     1.0  0.97944  0.37291  0.70056  1.0000
  H   H3463     1.0  0.92406  0.36262  0.52303  1.0000
  C   C4300     1.0  0.86236  0.36456  0.50066  1.0000
  S   S578      1.0  0.95345  0.40831  0.69814  1.0000
  H   H3464     1.0  0.97608  0.62404  0.61937  1.0000
  Fe  Fe290     1.0  0.96433  0.34594  0.52695  1.0000
  H   H3465     1.0  0.95910  0.59573  0.57543  1.0000
  H   H3466     1.0  0.92260  0.51022  0.60543  1.0000
  C   C4301     1.0  0.93468  0.47962  0.63450  1.0000
  C   C4302     1.0  0.97561  0.56177  0.53031  1.0000
  S   S579      1.0  0.92859  0.39880  0.72733  1.0000
  H   H3467     1.0  0.86271  0.49393  0.71611  1.0000
  H   H3468     1.0  0.92404  0.44135  0.65072  1.0000
  C   C4303     1.0  0.93717  0.51078  0.58401  1.0000
  C   C4304     1.0  0.98600  0.46067  0.73426  1.0000
  H   H3469     1.0  0.90096  0.54780  0.64494  1.0000
  H   H3470     1.0  0.95920  0.47902  0.67237  1.0000
  H   H3471     1.0  0.91562  0.50062  0.65230  1.0000
  C   C4305     1.0  0.91937  0.53940  0.62847  1.0000
  S   S580      1.0  0.95748  0.40189  0.62064  1.0000
  C   C4306     1.0  0.93699  0.39356  0.64509  1.0000
  H   H3472     1.0  0.95440  0.51051  0.56424  1.0000
  C   C4307     1.0  0.96410  0.64549  0.55475  1.0000
  C   C4308     1.0  0.99175  0.41885  0.65646  1.0000
  S   S581      1.0  0.98001  0.51980  0.66421  1.0000
  H   H3473     1.0  0.95797  0.51802  0.62716  1.0000
  C   C4309     1.0  0.96978  0.44285  0.54569  1.0000
  C   C4310     1.0  0.94538  0.56270  0.62612  1.0000
  C   C4311     1.0  0.96993  0.55514  0.49706  1.0000
  H   H3474     1.0  0.92791  0.45506  0.66723  1.0000
  H   H3475     1.0  0.90979  0.48183  0.56408  1.0000
  C   C4312     1.0  0.99766  0.62914  0.61422  1.0000
  C   C4313     1.0  0.98588  0.42316  0.69423  1.0000
  C   C4314     1.0  0.96509  0.57424  0.52517  1.0000
  C   C4315     1.0  0.94662  0.47071  0.54846  1.0000
  C   C4316     1.0  0.93432  0.38289  0.58412  1.0000
  H   H3476     1.0  0.96233  0.49033  0.55208  1.0000
  H   H3477     1.0  0.87373  0.46817  0.71258  1.0000
  H   H3478     1.0  0.89621  0.45356  0.72232  1.0000
  S   S582      1.0  0.95773  0.36424  0.53978  1.0000
  S   S583      1.0  0.94561  0.42496  0.72566  1.0000
  C   C4317     1.0  0.92843  0.45814  0.63107  1.0000
  C   C4318     1.0  0.92810  0.51258  0.63256  1.0000
  C   C4319     1.0  0.97014  0.37078  0.69276  1.0000
  P   P145      1.0  0.99435  0.48732  0.73028  1.0000
  H   H3479     1.0  0.93896  0.60303  0.67860  1.0000
  C   C4320     1.0  0.90828  0.53799  0.64131  1.0000
  C   C4321     1.0  0.97340  0.48592  0.54620  1.0000
  C   C4322     1.0  0.93241  0.47181  0.62520  1.0000
  C   C4323     1.0  0.97761  0.47103  0.54499  1.0000
  C   C4324     1.0  0.93400  0.50711  0.59944  1.0000
  C   C4325     1.0  0.99283  0.37349  0.55842  1.0000
  C   C4326     1.0  0.91975  0.48860  0.54112  1.0000
  H   H3480     1.0  0.96223  0.61225  0.67126  1.0000
  C   C4327     1.0  0.96286  0.64391  0.58446  1.0000
  C   C4328     1.0  0.96717  0.32846  0.57186  1.0000
  H   H3481     1.0  0.97601  0.33974  0.63205  1.0000
  C   C4329     1.0  0.90227  0.52245  0.72992  1.0000
  H   H3482     1.0  0.98319  0.51807  0.71606  1.0000
  S   S584      1.0  0.98811  0.33624  0.51744  1.0000
  H   H3483     1.0  0.94206  0.60615  0.59646  1.0000
  H   H3484     1.0  0.96855  0.58562  0.54961  1.0000
  C   C4330     1.0  0.99651  0.36167  0.55126  1.0000
  C   C4331     1.0  0.95532  0.65672  0.57612  1.0000
  H   H3485     1.0  0.96486  0.64601  0.54320  1.0000
  H   H3486     1.0  0.90385  0.54485  0.71932  1.0000
  C   C4332     1.0  0.96666  0.48046  0.63862  1.0000
  C   C4333     1.0  0.95380  0.36664  0.59662  1.0000
  C   C4334     1.0  0.93281  0.47351  0.64968  1.0000
  H   H3487     1.0  0.91825  0.49548  0.71411  1.0000
  C   C4335     1.0  0.96335  0.59562  0.58481  1.0000
  C   C4336     1.0  0.98344  0.49516  0.53992  1.0000
  C   C4337     1.0  0.98752  0.38397  0.69446  1.0000
  C   C4338     1.0  0.98651  0.53214  0.68359  1.0000
  H   H3488     1.0  0.95218  0.58433  0.64013  1.0000
  C   C4339     1.0  0.89692  0.53781  0.72720  1.0000
  C   C4340     1.0  0.95205  0.40823  0.64843  1.0000
  C   C4341     1.0  0.93946  0.39515  0.58392  1.0000
  H   H3489     1.0  0.90773  0.46445  0.73535  1.0000
  H   H3490     1.0  0.92374  0.64195  0.53444  1.0000
  C   C4342     1.0  0.93993  0.33568  0.62722  1.0000
  C   C4343     1.0  0.97258  0.59553  0.54369  1.0000
  C   C4344     1.0  0.98871  0.56149  0.62700  1.0000
  H   H3491     1.0  0.93789  0.52825  0.61421  1.0000
  S   S585      1.0  0.99206  0.55882  0.56145  1.0000
  C   C4345     1.0  0.95836  0.49453  0.63312  1.0000
  C   C4346     1.0  0.93336  0.47199  0.55933  1.0000
  Fe  Fe291     1.0  0.97989  0.33708  0.49741  1.0000
  H   H3492     1.0  0.99537  0.45214  0.70027  1.0000
  C   C4347     1.0  0.95187  0.55970  0.61199  1.0000
  C   C4348     1.0  0.89121  0.46472  0.72407  1.0000
  H   H3493     1.0  0.99518  0.58284  0.59802  1.0000
  C   C4349     1.0  0.87853  0.47294  0.71863  1.0000
  H   H3494     1.0  0.97249  0.47030  0.57495  1.0000
  C   C4350     1.0  0.94054  0.48394  0.71624  1.0000
  C   C4351     1.0  0.92922  0.52680  0.62409  1.0000
  C   C4352     1.0  0.98410  0.58196  0.50431  1.0000
  H   H3495     1.0  0.98120  0.51527  0.63477  1.0000
  H   H3496     1.0  0.96736  0.33196  0.56013  1.0000
  C   C4353     1.0  0.92552  0.48967  0.72173  1.0000
  Fe  Fe292     1.0  0.95204  0.40165  0.72253  1.0000
  C   C4354     1.0  0.92683  0.45208  0.64620  1.0000
  H   H3497     1.0  0.97926  0.45085  0.62468  1.0000
  H   H3498     1.0  0.96032  0.63091  0.52621  1.0000
  H   H3499     1.0  0.92491  0.38435  0.57924  1.0000
  C   C4355     1.0  0.97145  0.36774  0.54673  1.0000
  C   C4356     1.0  0.96563  0.42695  0.53215  1.0000
  H   H3500     1.0  0.98885  0.34945  0.54026  1.0000
  H   H3501     1.0  0.84043  0.37586  0.51040  1.0000
  H   H3502     1.0  0.90936  0.49549  0.53829  1.0000
  Fe  Fe293     1.0  0.95983  0.62081  0.49184  1.0000
  C   C4357     1.0  0.94911  0.34576  0.62365  1.0000
  C   C4358     1.0  0.92912  0.54152  0.73321  1.0000
  H   H3503     1.0  0.95541  0.40272  0.59030  1.0000
  H   H3504     1.0  0.95643  0.47775  0.52538  1.0000
  H   H3505     1.0  0.91328  0.51798  0.72398  1.0000
  C   C4359     1.0  0.94630  0.47854  0.53390  1.0000
  H   H3506     1.0  0.96844  0.42347  0.66746  1.0000
  H   H3507     1.0  0.97544  0.39153  0.56534  1.0000
  C   C4360     1.0  0.97742  0.49184  0.69436  1.0000
  H   H3508     1.0  0.97716  0.39644  0.66134  1.0000
  H   H3509     1.0  0.96233  0.37755  0.67244  1.0000
  C   C4361     1.0  0.96795  0.62095  0.53036  1.0000
  C   C4362     1.0  0.93290  0.48743  0.53025  1.0000
  H   H3510     1.0  0.96813  0.37779  0.60144  1.0000
  C   C4363     1.0  0.98303  0.62091  0.52818  1.0000
  H   H3511     1.0  0.93576  0.36056  0.65444  1.0000
  C   C4364     1.0  0.96935  0.37934  0.67862  1.0000
  C   C4365     1.0  0.94393  0.59367  0.65946  1.0000
  C   C4366     1.0  0.94674  0.60145  0.66830  1.0000
  S   S586      1.0  0.96791  0.38349  0.73473  1.0000
  C   C4367     1.0  0.96275  0.60819  0.53789  1.0000
  C   C4368     1.0  0.97835  0.38237  0.55989  1.0000
  C   C4369     1.0  0.97834  0.51671  0.72775  1.0000
  Fe  Fe294     1.0  0.97529  0.54871  0.57919  1.0000
  C   C4370     1.0  0.97832  0.58915  0.58526  1.0000
  C   C4371     1.0  0.92962  0.33429  0.64072  1.0000
  H   H3512     1.0  0.96655  0.53959  0.72558  1.0000
  C   C4372     1.0  0.99027  0.55898  0.52216  1.0000
  H   H3513     1.0  0.96665  0.49554  0.69134  1.0000
  C   C4373     1.0  0.97093  0.63188  0.57797  1.0000
  C   C4374     1.0  0.97215  0.43761  0.64603  1.0000
  C   C4375     1.0  0.98510  0.43476  0.70075  1.0000
  H   H3514     1.0  0.93401  0.40615  0.57894  1.0000
  C   C4376     1.0  0.97894  0.49332  0.70788  1.0000
  C   C4377     1.0  0.96151  0.44029  0.53698  1.0000
  C   C4378     1.0  0.99654  0.53581  0.68951  1.0000
  C   C4379     1.0  0.94300  0.55933  0.50380  1.0000
  C   C4380     1.0  0.98514  0.49155  0.64156  1.0000
  S   S587      1.0  0.98387  0.41120  0.58429  1.0000
  Fe  Fe295     1.0  0.92220  0.42264  0.72911  1.0000
  P   P146      1.0  0.98106  0.59194  0.62594  1.0000
  C   C4381     1.0  0.98424  0.34230  0.62212  1.0000
  C   C4382     1.0  0.96709  0.59669  0.64187  1.0000
  H   H3515     1.0  0.96905  0.49768  0.71553  1.0000
  C   C4383     1.0  0.89133  0.48536  0.73398  1.0000
  C   C4384     1.0  0.95161  0.39321  0.59019  1.0000
  C   C4385     1.0  0.90191  0.35366  0.49939  1.0000
  C   C4386     1.0  0.94131  0.36871  0.59065  1.0000
  C   C4387     1.0  0.98684  0.38422  0.73035  1.0000
  H   H3516     1.0  0.98022  0.50659  0.54110  1.0000
  C   C4388     1.0  0.89941  0.34825  0.51474  1.0000
  S   S588      1.0  0.99104  0.53917  0.59467  1.0000
  H   H3517     1.0  0.98310  0.40737  0.72104  1.0000
  C   C4389     1.0  0.97666  0.42623  0.65753  1.0000
  S   S589      1.0  0.95653  0.34840  0.50624  1.0000
  H   H3518     1.0  0.97223  0.55408  0.54039  1.0000
  C   C4390     1.0  0.95899  0.60059  0.60919  1.0000
  C   C4391     1.0  0.95883  0.37901  0.59648  1.0000
  C   C4392     1.0  0.99148  0.39734  0.72307  1.0000
  H   H3519     1.0  0.95378  0.36329  0.63059  1.0000
  C   C4393     1.0  0.98273  0.44201  0.63358  1.0000
  H   H3520     1.0  0.96244  0.64328  0.59595  1.0000
  C   C4394     1.0  0.97392  0.59372  0.60988  1.0000
  C   C4395     1.0  0.93354  0.65584  0.54136  1.0000
  H   H3521     1.0  0.86209  0.35460  0.50920  1.0000
  C   C4396     1.0  0.97003  0.60419  0.65104  1.0000
  C   C4397     1.0  0.98609  0.39319  0.68068  1.0000
  H   H3522     1.0  0.95129  0.60502  0.61831  1.0000
  C   C4398     1.0  0.98210  0.43181  0.54955  1.0000
  C   C4399     1.0  0.99203  0.46556  0.53725  1.0000
  Fe  Fe296     1.0  0.96604  0.64949  0.49379  1.0000
  Fe  Fe297     1.0  0.95296  0.32528  0.51530  1.0000
  C   C4400     1.0  0.85013  0.37665  0.50146  1.0000
  C   C4401     1.0  0.99612  0.44292  0.69554  1.0000
  C   C4402     1.0  0.98050  0.34699  0.60817  1.0000
  S   S590      1.0  0.94610  0.63952  0.50250  1.0000
  H   H3523     1.0  0.94049  0.32907  0.61956  1.0000
  C   C4403     1.0  0.87865  0.49362  0.72834  1.0000
  C   C4404     1.0  0.87219  0.33095  0.49403  1.0000
  H   H3524     1.0  0.98035  0.36608  0.71139  1.0000
  C   C4405     1.0  0.92822  0.34314  0.65060  1.0000
  H   H3525     1.0  0.99250  0.54378  0.69654  1.0000
  H   H3526     1.0  0.98137  0.56348  0.61953  1.0000
  H   H3527     1.0  0.95918  0.42492  0.52555  1.0000
  C   C4406     1.0  0.99302  0.48885  0.71158  1.0000
  C   C4407     1.0  0.99747  0.37134  0.73423  1.0000
  C   C4408     1.0  0.95697  0.55229  0.50718  1.0000
  H   H3528     1.0  0.93296  0.55715  0.51168  1.0000
  H   H3529     1.0  0.97677  0.62194  0.58440  1.0000
  C   C4409     1.0  0.93701  0.35350  0.64692  1.0000
  H   H3530     1.0  0.99726  0.46718  0.61204  1.0000
  C   C4410     1.0  0.98132  0.50285  0.73736  1.0000
  H   H3531     1.0  0.98909  0.35306  0.58471  1.0000
  H   H3532     1.0  0.90584  0.34680  0.53495  1.0000
  H   H3533     1.0  0.98075  0.54975  0.49975  1.0000
  C   C4411     1.0  0.99453  0.56908  0.50912  1.0000
  C   C4412     1.0  0.98362  0.58825  0.59770  1.0000
  C   C4413     1.0  0.96905  0.52904  0.73314  1.0000
  C   C4414     1.0  0.98990  0.48599  0.68443  1.0000
  C   C4415     1.0  0.90737  0.35149  0.52322  1.0000
  H   H3534     1.0  0.98106  0.40566  0.53244  1.0000
  H   H3535     1.0  0.98039  0.60772  0.64840  1.0000
  H   H3536     1.0  0.99563  0.40996  0.54793  1.0000
  H   H3537     1.0  0.98867  0.48526  0.67382  1.0000
  C   C4416     1.0  0.99785  0.43519  0.63280  1.0000
  C   C4417     1.0  0.99373  0.60418  0.62013  1.0000
  H   H3538     1.0  0.92019  0.34213  0.66102  1.0000
  H   H3539     1.0  0.98574  0.58443  0.57615  1.0000
  C   C4418     1.0  0.88279  0.54408  0.73464  1.0000
  Fe  Fe298     1.0  0.99708  0.51956  0.58394  1.0000
  C   C4419     1.0  0.99170  0.34964  0.59555  1.0000
  C   C4420     1.0  0.99640  0.54701  0.63164  1.0000
  H   H3540     1.0  0.98849  0.43345  0.55644  1.0000
  H   H3541     1.0  0.98689  0.63088  0.52241  1.0000
  H   H3542     1.0  0.99514  0.38513  0.70028  1.0000
  H   H3543     1.0  0.99515  0.58588  0.54629  1.0000
  S   S591      1.0  0.99766  0.41481  0.61080  1.0000
  C   C4421     1.0  0.96439  0.33476  0.59540  1.0000
  H   H3544     1.0  0.87879  0.55600  0.73246  1.0000
  H   H3545     1.0  0.99514  0.53806  0.62764  1.0000
  C   C4422     1.0  0.92571  0.65291  0.53256  1.0000
  C   C4423     1.0  0.88560  0.33270  0.49594  1.0000
  H   H3546     1.0  0.84102  0.39919  0.49152  1.0000
  C   C4424     1.0  0.98620  0.41851  0.54471  1.0000
  P   P147      1.0  0.99767  0.40637  0.67243  1.0000
  C   C4425     1.0  0.99777  0.41938  0.68273  1.0000
  Fe  Fe299     1.0  0.99825  0.53822  0.55298  1.0000
  H   H3547     1.0  0.91529  0.62203  0.48954  1.0000
  S   S592      1.0  0.99836  0.38166  0.60659  1.0000
  C   C4426     1.0  0.85048  0.38981  0.49086  1.0000
  C   C4427     1.0  0.95569  0.65752  0.56122  1.0000
  C   C4428     1.0  0.87490  0.36543  0.48902  1.0000
  Fe  Fe300     1.0  0.93811  0.48981  0.78708  1.0000
  S   S593      1.0  0.92566  0.47417  0.80420  1.0000
  S   S594      1.0  0.92200  0.51043  0.77845  1.0000
  Fe  Fe301     1.0  0.96803  0.47150  0.79360  1.0000
  S   S595      1.0  0.95760  0.45463  0.81135  1.0000
  H   H3548     1.0  0.80545  0.45355  0.98443  1.0000
  Fe  Fe302     1.0  0.94362  0.45620  0.79552  1.0000
  S   S596      1.0  0.93768  0.43517  0.79565  1.0000
  Fe  Fe303     1.0  0.94057  0.47400  0.81847  1.0000
  S   S597      1.0  0.93133  0.47682  0.84188  1.0000
  S   S598      1.0  0.95512  0.47170  0.77700  1.0000
  S   S599      1.0  0.95200  0.49089  0.80205  1.0000
  Fe  Fe304     1.0  0.83822  0.47460  0.90838  1.0000
  S   S600      1.0  0.85371  0.48241  0.88727  1.0000
  S   S601      1.0  0.84105  0.47678  0.93021  1.0000
  Fe  Fe305     1.0  0.82299  0.46166  0.89282  1.0000
  S   S602      1.0  0.83711  0.46801  0.87057  1.0000
  S   S603      1.0  0.80365  0.45143  0.89696  1.0000
  Fe  Fe306     1.0  0.85610  0.46034  0.88240  1.0000
  S   S604      1.0  0.87760  0.44555  0.87316  1.0000
  Fe  Fe307     1.0  0.83352  0.48954  0.87724  1.0000
  S   S605      1.0  0.83052  0.51090  0.86034  1.0000
  S   S606      1.0  0.84214  0.45186  0.90421  1.0000
  S   S607      1.0  0.81778  0.48382  0.89874  1.0000
  S   S608      1.0  0.54181  0.61771  0.94210  1.0000
  Fe  Fe308     1.0  0.60802  0.52268  0.91539  1.0000
  S   S609      1.0  0.58810  0.52810  0.93337  1.0000
  S   S610      1.0  0.61865  0.50042  0.90922  1.0000
  Fe  Fe309     1.0  0.61385  0.55379  0.90695  1.0000
  S   S611      1.0  0.59479  0.56167  0.92463  1.0000
  S   S612      1.0  0.62601  0.57042  0.89052  1.0000
  Fe  Fe310     1.0  0.60238  0.53973  0.93903  1.0000
  S   S613      1.0  0.60264  0.53606  0.96298  1.0000
  Fe  Fe311     1.0  0.58206  0.54959  0.91748  1.0000
  S   S614      1.0  0.55900  0.56165  0.91388  1.0000
  S   S615      1.0  0.62282  0.53301  0.92207  1.0000
  S   S616      1.0  0.60063  0.54310  0.89872  1.0000
  Fe  Fe312     1.0  0.74651  0.54553  0.87016  1.0000
  S   S617      1.0  0.74671  0.53496  0.89384  1.0000
  S   S618      1.0  0.76664  0.54983  0.85250  1.0000
  Fe  Fe313     1.0  0.71264  0.55057  0.87489  1.0000
  S   S619      1.0  0.70971  0.54086  0.89913  1.0000
  S   S620      1.0  0.69489  0.55874  0.86137  1.0000
  Fe  Fe314     1.0  0.72667  0.55320  0.89835  1.0000
  S   S621      1.0  0.72452  0.56420  0.91663  1.0000
  Fe  Fe315     1.0  0.72993  0.52345  0.89266  1.0000
  S   S622      1.0  0.73100  0.49994  0.90478  1.0000
  S   S623      1.0  0.72760  0.56488  0.87474  1.0000
  S   S624      1.0  0.73176  0.53218  0.86835  1.0000
  C   C4429     1.0  0.80978  0.39311  0.89183  1.0000
  C   C4430     1.0  0.62604  0.32681  0.90535  1.0000
  C   C4431     1.0  0.57036  0.65259  0.97019  1.0000
  H   H3549     1.0  0.83647  0.51570  0.82516  1.0000
  Fe  Fe316     1.0  0.64443  0.41159  0.91783  1.0000
  S   S625      1.0  0.64930  0.38822  0.93047  1.0000
  S   S626      1.0  0.65669  0.42235  0.89593  1.0000
  Fe  Fe317     1.0  0.61592  0.42055  0.93917  1.0000
  S   S627      1.0  0.61781  0.39773  0.95374  1.0000
  S   S628      1.0  0.59788  0.44088  0.94334  1.0000
  Fe  Fe318     1.0  0.64195  0.39786  0.95078  1.0000
  C   C4432     1.0  0.62993  0.37859  0.87202  1.0000
  Fe  Fe319     1.0  0.62502  0.38935  0.93269  1.0000
  S   S629      1.0  0.62146  0.36760  0.93102  1.0000
  S   S630      1.0  0.63942  0.42131  0.93790  1.0000
  S   S631      1.0  0.62070  0.41213  0.91839  1.0000
  C   C4433     1.0  0.71207  0.36174  0.95052  1.0000
  C   C4434     1.0  0.50903  0.36500  0.88239  1.0000
  H   H3550     1.0  0.74065  0.36490  0.93481  1.0000
  H   H3551     1.0  0.89715  0.50503  0.76948  1.0000
  H   H3552     1.0  0.71850  0.33531  0.93024  1.0000
  S   S632      1.0  0.54805  0.65322  0.91298  1.0000
  C   C4435     1.0  0.75507  0.36246  0.91392  1.0000
  P   P148      1.0  0.71020  0.36650  0.93156  1.0000
  C   C4436     1.0  0.76944  0.37510  0.95755  1.0000
  S   S633      1.0  0.56904  0.35901  0.90755  1.0000
  C   C4437     1.0  0.62232  0.34689  0.87433  1.0000
  H   H3553     1.0  0.64251  0.38712  0.90315  1.0000
  Fe  Fe320     1.0  0.76367  0.41707  0.86918  1.0000
  S   S634      1.0  0.75199  0.43150  0.88556  1.0000
  S   S635      1.0  0.78822  0.41660  0.85921  1.0000
  Fe  Fe321     1.0  0.73524  0.40676  0.87196  1.0000
  S   S636      1.0  0.72183  0.42116  0.88787  1.0000
  S   S637      1.0  0.72251  0.39168  0.86904  1.0000
  Fe  Fe322     1.0  0.73380  0.43815  0.87299  1.0000
  S   S638      1.0  0.72233  0.46168  0.86566  1.0000
  Fe  Fe323     1.0  0.74134  0.41286  0.89867  1.0000
  S   S639      1.0  0.73785  0.40373  0.92315  1.0000
  S   S640      1.0  0.74580  0.42462  0.85588  1.0000
  S   S641      1.0  0.75440  0.39761  0.88341  1.0000
  H   H3554     1.0  0.66718  0.40595  0.94578  1.0000
  H   H3555     1.0  0.89512  0.43126  0.82725  1.0000
  C   C4438     1.0  0.73071  0.41711  0.93414  1.0000
  H   H3556     1.0  0.93969  0.38675  0.76112  1.0000
  H   H3557     1.0  0.71171  0.39268  0.90700  1.0000
  C   C4439     1.0  0.63901  0.38473  0.89446  1.0000
  C   C4440     1.0  0.72683  0.44205  0.93772  1.0000
  C   C4441     1.0  0.73159  0.43189  0.92836  1.0000
  H   H3558     1.0  0.57783  0.34855  0.81563  1.0000
  C   C4442     1.0  0.93077  0.38682  0.77092  1.0000
  H   H3559     1.0  0.72791  0.45336  0.93339  1.0000
  H   H3560     1.0  0.73629  0.43538  0.91680  1.0000
  H   H3561     1.0  0.66004  0.45831  0.89333  1.0000
  H   H3562     1.0  0.53568  0.33395  0.87675  1.0000
  C   C4443     1.0  0.71431  0.57647  0.98021  1.0000
  H   H3563     1.0  0.66934  0.35649  0.91603  1.0000
  C   C4444     1.0  0.67910  0.44192  0.95596  1.0000
  C   C4445     1.0  0.76246  0.44766  0.91123  1.0000
  H   H3564     1.0  0.68393  0.38141  0.95017  1.0000
  C   C4446     1.0  0.72091  0.43751  0.95277  1.0000
  H   H3565     1.0  0.89429  0.49362  0.79592  1.0000
  C   C4447     1.0  0.78313  0.41858  0.98119  1.0000
  H   H3566     1.0  0.67202  0.42368  0.92192  1.0000
  C   C4448     1.0  0.51636  0.64304  0.98577  1.0000
  H   H3567     1.0  0.75610  0.45146  0.90265  1.0000
  H   H3568     1.0  0.60190  0.45231  0.90290  1.0000
  H   H3569     1.0  0.52654  0.33151  0.82106  1.0000
  C   C4449     1.0  0.60676  0.36571  0.92435  1.0000
  C   C4450     1.0  0.59677  0.37793  0.91806  1.0000
  C   C4451     1.0  0.58517  0.37578  0.91302  1.0000
  C   C4452     1.0  0.58354  0.36144  0.91417  1.0000
  C   C4453     1.0  0.59354  0.34926  0.92048  1.0000
  C   C4454     1.0  0.60505  0.35142  0.92560  1.0000
  H   H3570     1.0  0.59799  0.38900  0.91706  1.0000
  H   H3571     1.0  0.57747  0.38526  0.90814  1.0000
  H   H3572     1.0  0.59238  0.33819  0.92146  1.0000
  H   H3573     1.0  0.61265  0.34196  0.93060  1.0000
  C   C4455     1.0  0.67416  0.41290  0.88743  1.0000
  C   C4456     1.0  0.67927  0.39753  0.89139  1.0000
  C   C4457     1.0  0.69390  0.39076  0.88504  1.0000
  C   C4458     1.0  0.70347  0.39943  0.87510  1.0000
  C   C4459     1.0  0.69810  0.41468  0.87086  1.0000
  C   C4460     1.0  0.68342  0.42132  0.87682  1.0000
  H   H3574     1.0  0.67211  0.39098  0.89954  1.0000
  H   H3575     1.0  0.69800  0.37896  0.88836  1.0000
  H   H3576     1.0  0.70541  0.42143  0.86320  1.0000
  H   H3577     1.0  0.67944  0.43315  0.87381  1.0000
  C   C4461     1.0  0.95849  0.38880  0.82900  1.0000
  C   C4462     1.0  0.71952  0.55131  0.93273  1.0000
  C   C4463     1.0  0.71247  0.55597  0.94593  1.0000
  C   C4464     1.0  0.70837  0.54569  0.95877  1.0000
  C   C4465     1.0  0.71082  0.53078  0.95838  1.0000
  C   C4466     1.0  0.71824  0.52608  0.94526  1.0000
  C   C4467     1.0  0.72252  0.53632  0.93243  1.0000
  H   H3578     1.0  0.71009  0.56751  0.94622  1.0000
  C   C4468     1.0  0.63714  0.33499  0.89943  1.0000
  H   H3579     1.0  0.72065  0.51451  0.94496  1.0000
  H   H3580     1.0  0.72814  0.53249  0.92237  1.0000
  C   C4469     1.0  0.72723  0.48950  0.89452  1.0000
  C   C4470     1.0  0.72284  0.49623  0.88112  1.0000
  C   C4471     1.0  0.72082  0.48767  0.87250  1.0000
  C   C4472     1.0  0.72329  0.47233  0.87726  1.0000
  C   C4473     1.0  0.72686  0.46565  0.89104  1.0000
  C   C4474     1.0  0.72884  0.47424  0.89967  1.0000
  H   H3581     1.0  0.72062  0.50804  0.87753  1.0000
  H   H3582     1.0  0.71743  0.49289  0.86214  1.0000
  H   H3583     1.0  0.72803  0.45389  0.89511  1.0000
  H   H3584     1.0  0.73177  0.46909  0.91024  1.0000
  C   C4475     1.0  0.61264  0.48417  0.91931  1.0000
  C   C4476     1.0  0.62168  0.47053  0.91658  1.0000
  C   C4477     1.0  0.61729  0.45729  0.92411  1.0000
  C   C4478     1.0  0.60370  0.45753  0.93433  1.0000
  C   C4479     1.0  0.59459  0.47120  0.93707  1.0000
  C   C4480     1.0  0.59911  0.48449  0.92967  1.0000
  H   H3585     1.0  0.63197  0.47017  0.90835  1.0000
  H   H3586     1.0  0.62418  0.44697  0.92146  1.0000
  H   H3587     1.0  0.58398  0.47152  0.94483  1.0000
  H   H3588     1.0  0.59202  0.49498  0.93179  1.0000
  C   C4481     1.0  0.64513  0.56487  0.88289  1.0000
  C   C4482     1.0  0.65003  0.56918  0.86763  1.0000
  C   C4483     1.0  0.66530  0.56682  0.86124  1.0000
  C   C4484     1.0  0.67588  0.56031  0.87006  1.0000
  C   C4485     1.0  0.67106  0.55556  0.88532  1.0000
  C   C4486     1.0  0.65564  0.55776  0.89174  1.0000
  H   H3589     1.0  0.64197  0.57461  0.86075  1.0000
  H   H3590     1.0  0.66894  0.57040  0.84945  1.0000
  H   H3591     1.0  0.67918  0.55028  0.89214  1.0000
  H   H3592     1.0  0.65187  0.55432  0.90353  1.0000
  C   C4487     1.0  0.61520  0.54451  0.96592  1.0000
  C   C4488     1.0  0.56594  0.62876  0.88376  1.0000
  C   C4489     1.0  0.63400  0.39628  0.88335  1.0000
  C   C4490     1.0  0.89482  0.47078  0.76824  1.0000
  C   C4491     1.0  0.85253  0.48625  0.80861  1.0000
  C   C4492     1.0  0.54535  0.60199  0.93473  1.0000
  C   C4493     1.0  0.54029  0.60266  0.92219  1.0000
  C   C4494     1.0  0.54368  0.58994  0.91635  1.0000
  C   C4495     1.0  0.55271  0.57679  0.92259  1.0000
  C   C4496     1.0  0.55730  0.57603  0.93542  1.0000
  C   C4497     1.0  0.55345  0.58855  0.94159  1.0000
  H   H3593     1.0  0.53392  0.61297  0.91690  1.0000
  H   H3594     1.0  0.53985  0.59045  0.90662  1.0000
  H   H3595     1.0  0.56383  0.56576  0.94060  1.0000
  H   H3596     1.0  0.55711  0.58786  0.95147  1.0000
  C   C4498     1.0  0.82504  0.48232  0.94356  1.0000
  C   C4499     1.0  0.81080  0.48664  0.94041  1.0000
  C   C4500     1.0  0.79830  0.49144  0.95106  1.0000
  C   C4501     1.0  0.82891  0.43747  0.82525  1.0000
  H   H3597     1.0  0.52207  0.33806  0.91828  1.0000
  C   C4502     1.0  0.69238  0.40928  0.91333  1.0000
  H   H3598     1.0  0.80942  0.48646  0.92971  1.0000
  H   H3599     1.0  0.78734  0.49484  0.94850  1.0000
  C   C4503     1.0  0.79372  0.40682  0.97567  1.0000
  C   C4504     1.0  0.59593  0.35375  0.87374  1.0000
  C   C4505     1.0  0.81247  0.52144  0.85902  1.0000
  C   C4506     1.0  0.81105  0.53395  0.84757  1.0000
  C   C4507     1.0  0.79691  0.54257  0.84583  1.0000
  C   C4508     1.0  0.78407  0.53886  0.85559  1.0000
  C   C4509     1.0  0.78544  0.52639  0.86716  1.0000
  C   C4510     1.0  0.79968  0.51765  0.86886  1.0000
  H   H3600     1.0  0.82091  0.53696  0.84000  1.0000
  H   H3601     1.0  0.79589  0.55218  0.83688  1.0000
  H   H3602     1.0  0.77556  0.52337  0.87465  1.0000
  H   H3603     1.0  0.80073  0.50800  0.87772  1.0000
  C   C4511     1.0  0.80141  0.44429  0.88295  1.0000
  C   C4512     1.0  0.81236  0.43294  0.87716  1.0000
  C   C4513     1.0  0.80876  0.42509  0.86869  1.0000
  C   C4514     1.0  0.79423  0.42853  0.86623  1.0000
  C   C4515     1.0  0.78410  0.44100  0.87050  1.0000
  C   C4516     1.0  0.78753  0.44866  0.87906  1.0000
  H   H3604     1.0  0.82317  0.42954  0.88007  1.0000
  H   H3605     1.0  0.81689  0.41578  0.86492  1.0000
  H   H3606     1.0  0.77335  0.44453  0.86764  1.0000
  H   H3607     1.0  0.77911  0.45763  0.88317  1.0000
  C   C4517     1.0  0.91691  0.46760  0.85111  1.0000
  C   C4518     1.0  0.91678  0.45437  0.84783  1.0000
  C   C4519     1.0  0.90487  0.44742  0.85499  1.0000
  C   C4520     1.0  0.89293  0.45385  0.86519  1.0000
  C   C4521     1.0  0.89323  0.46695  0.86861  1.0000
  C   C4522     1.0  0.90527  0.47374  0.86169  1.0000
  H   H3608     1.0  0.92581  0.44956  0.83972  1.0000
  H   H3609     1.0  0.90476  0.43725  0.85236  1.0000
  H   H3610     1.0  0.88429  0.47179  0.87668  1.0000
  H   H3611     1.0  0.90542  0.48389  0.86434  1.0000
  C   C4523     1.0  0.92813  0.43521  0.78246  1.0000
  C   C4524     1.0  0.93215  0.44209  0.76763  1.0000
  C   C4525     1.0  0.92529  0.44059  0.75707  1.0000
  C   C4526     1.0  0.91412  0.43253  0.76144  1.0000
  C   C4527     1.0  0.90979  0.42615  0.77636  1.0000
  C   C4528     1.0  0.91700  0.42717  0.78676  1.0000
  H   H3612     1.0  0.94092  0.44808  0.76427  1.0000
  H   H3613     1.0  0.98882  0.44754  0.77525  1.0000
  H   H3614     1.0  0.90112  0.42005  0.77984  1.0000
  H   H3615     1.0  0.91391  0.42175  0.79819  1.0000
  H   H3616     1.0  0.87908  0.44610  0.80988  1.0000
  C   C4529     1.0  0.92222  0.38350  0.79749  1.0000
  C   C4530     1.0  0.51354  0.33439  0.95713  1.0000
  H   H3617     1.0  0.89332  0.45270  0.78685  1.0000
  C   C4531     1.0  0.93397  0.38366  0.78499  1.0000
  H   H3618     1.0  0.50527  0.37288  0.88956  1.0000
  C   C4532     1.0  0.54086  0.34891  0.82888  1.0000
  C   C4533     1.0  0.75733  0.51169  0.93694  1.0000
  C   C4534     1.0  0.76212  0.50005  0.92949  1.0000
  C   C4535     1.0  0.77552  0.49886  0.91900  1.0000
  C   C4536     1.0  0.78406  0.50940  0.91583  1.0000
  C   C4537     1.0  0.77939  0.52105  0.92336  1.0000
  C   C4538     1.0  0.76575  0.52232  0.93369  1.0000
  P   P149      1.0  0.79012  0.53498  0.91888  1.0000
  C   C4539     1.0  0.80978  0.52631  0.91398  1.0000
  C   C4540     1.0  0.78393  0.54921  0.90379  1.0000
  C   C4541     1.0  0.79402  0.55665  0.89291  1.0000
  C   C4542     1.0  0.78930  0.56689  0.88075  1.0000
  C   C4543     1.0  0.77440  0.57012  0.87962  1.0000
  C   C4544     1.0  0.76415  0.56338  0.89080  1.0000
  C   C4545     1.0  0.76888  0.55293  0.90283  1.0000
  C   C4546     1.0  0.81863  0.52121  0.92465  1.0000
  C   C4547     1.0  0.74861  0.57731  0.93107  1.0000
  C   C4548     1.0  0.84026  0.51287  0.90640  1.0000
  C   C4549     1.0  0.83160  0.51783  0.89571  1.0000
  C   C4550     1.0  0.81638  0.52431  0.89949  1.0000
  C   C4551     1.0  0.78717  0.54288  0.93474  1.0000
  C   C4552     1.0  0.78688  0.53369  0.94883  1.0000
  C   C4553     1.0  0.78580  0.53946  0.96101  1.0000
  C   C4554     1.0  0.51152  0.33485  0.92106  1.0000
  C   C4555     1.0  0.78461  0.56390  0.94534  1.0000
  C   C4556     1.0  0.78598  0.55807  0.93308  1.0000
  H   H3619     1.0  0.74700  0.51257  0.94514  1.0000
  H   H3620     1.0  0.75535  0.49206  0.93169  1.0000
  H   H3621     1.0  0.77924  0.48980  0.91329  1.0000
  H   H3622     1.0  0.79421  0.50847  0.90744  1.0000
  H   H3623     1.0  0.76151  0.53159  0.93914  1.0000
  H   H3624     1.0  0.80559  0.55435  0.89362  1.0000
  H   H3625     1.0  0.79724  0.57211  0.87206  1.0000
  H   H3626     1.0  0.77079  0.57771  0.87000  1.0000
  H   H3627     1.0  0.75256  0.56596  0.88998  1.0000
  H   H3628     1.0  0.76075  0.54765  0.91120  1.0000
  H   H3629     1.0  0.81395  0.52190  0.93604  1.0000
  C   C4557     1.0  0.95757  0.40446  0.76651  1.0000
  H   H3630     1.0  0.83665  0.51635  0.88456  1.0000
  H   H3631     1.0  0.80979  0.52758  0.89111  1.0000
  H   H3632     1.0  0.78783  0.52195  0.95034  1.0000
  C   C4558     1.0  0.80622  0.40015  0.90367  1.0000
  C   C4559     1.0  0.69915  0.38517  0.92892  1.0000
  H   H3633     1.0  0.78375  0.57561  0.94399  1.0000
  H   H3634     1.0  0.78624  0.56540  0.92233  1.0000
  C   C4560     1.0  0.98857  0.39422  0.75929  1.0000
  H   H3635     1.0  0.62664  0.37641  0.86306  1.0000
  H   H3636     1.0  0.72009  0.37681  0.97482  1.0000
  P   P150      1.0  0.67008  0.49182  0.91825  1.0000
  H   H3637     1.0  0.84602  0.47958  0.78527  1.0000
  H   H3638     1.0  0.65181  0.48601  0.80212  1.0000
  H   H3639     1.0  0.94307  0.40959  0.82318  1.0000
  C   C4561     1.0  0.90744  0.38675  0.79590  1.0000
  C   C4562     1.0  0.89310  0.47253  0.79324  1.0000
  H   H3640     1.0  0.62727  0.48217  0.80193  1.0000
  H   H3641     1.0  0.89337  0.52150  0.79432  1.0000
  C   C4563     1.0  0.96710  0.35547  0.77219  1.0000
  C   C4564     1.0  0.95940  0.35941  0.78572  1.0000
  P   P151      1.0  0.52525  0.33115  0.85225  1.0000
  C   C4565     1.0  0.70833  0.34893  0.96025  1.0000
  H   H3642     1.0  0.65368  0.48055  0.90395  1.0000
  H   H3643     1.0  0.97396  0.36759  0.83158  1.0000
  C   C4566     1.0  0.68001  0.35179  0.91925  1.0000
  C   C4567     1.0  0.54969  0.64167  0.96309  1.0000
  C   C4568     1.0  0.81544  0.43296  0.82915  1.0000
  C   C4569     1.0  0.75680  0.46119  0.82667  1.0000
  C   C4570     1.0  0.63293  0.45808  0.87658  1.0000
  C   C4571     1.0  0.92100  0.54682  0.74590  1.0000
  C   C4572     1.0  0.64354  0.48450  0.81232  1.0000
  H   H3644     1.0  0.57389  0.61758  0.92138  1.0000
  C   C4573     1.0  0.71932  0.42294  0.95831  1.0000
  C   C4574     1.0  0.74116  0.36418  0.92369  1.0000
  H   H3645     1.0  0.68322  0.35622  0.84463  1.0000
  Fe  Fe324     1.0  0.56900  0.33567  0.90700  1.0000
  H   H3646     1.0  0.58635  0.65118  0.87117  1.0000
  C   C4575     1.0  0.63341  0.52840  0.84668  1.0000
  C   C4576     1.0  0.63037  0.53150  0.86070  1.0000
  C   C4577     1.0  0.63072  0.51992  0.87308  1.0000
  C   C4578     1.0  0.63419  0.50528  0.87151  1.0000
  C   C4579     1.0  0.63672  0.50207  0.85757  1.0000
  C   C4580     1.0  0.63656  0.51374  0.84509  1.0000
  P   P152      1.0  0.64029  0.48307  0.85596  1.0000
  C   C4581     1.0  0.65965  0.47407  0.85590  1.0000
  C   C4582     1.0  0.66630  0.46175  0.84931  1.0000
  C   C4583     1.0  0.68133  0.45482  0.84899  1.0000
  C   C4584     1.0  0.68973  0.45991  0.85550  1.0000
  C   C4585     1.0  0.68318  0.47205  0.86222  1.0000
  C   C4586     1.0  0.66819  0.47915  0.86241  1.0000
  C   C4587     1.0  0.62832  0.47335  0.87115  1.0000
  C   C4588     1.0  0.60913  0.45813  0.89384  1.0000
  C   C4589     1.0  0.60452  0.47334  0.88866  1.0000
  C   C4590     1.0  0.61401  0.48093  0.87730  1.0000
  H   H3647     1.0  0.63319  0.53738  0.83706  1.0000
  H   H3648     1.0  0.62772  0.54284  0.86203  1.0000
  H   H3649     1.0  0.62824  0.52226  0.88399  1.0000
  H   H3650     1.0  0.63466  0.49642  0.88122  1.0000
  H   H3651     1.0  0.68640  0.44521  0.84407  1.0000
  H   H3652     1.0  0.70127  0.45427  0.85553  1.0000
  H   H3653     1.0  0.68973  0.47580  0.86746  1.0000
  H   H3654     1.0  0.66335  0.48844  0.86780  1.0000
  H   H3655     1.0  0.59372  0.47932  0.89372  1.0000
  H   H3656     1.0  0.61017  0.49271  0.87344  1.0000
  C   C4591     1.0  0.80351  0.52112  0.81501  1.0000
  C   C4592     1.0  0.80914  0.51617  0.80179  1.0000
  C   C4593     1.0  0.80255  0.50648  0.79863  1.0000
  C   C4594     1.0  0.79030  0.50176  0.80870  1.0000
  C   C4595     1.0  0.78463  0.50665  0.82205  1.0000
  C   C4596     1.0  0.79142  0.51628  0.82516  1.0000
  P   P153      1.0  0.76905  0.50053  0.83550  1.0000
  C   C4597     1.0  0.75230  0.51521  0.83543  1.0000
  C   C4598     1.0  0.76512  0.48481  0.83169  1.0000
  C   C4599     1.0  0.75903  0.48670  0.81940  1.0000
  C   C4600     1.0  0.75496  0.47491  0.81687  1.0000
  C   C4601     1.0  0.76689  0.47099  0.84151  1.0000
  C   C4602     1.0  0.73826  0.51169  0.83921  1.0000
  C   C4603     1.0  0.72525  0.52290  0.83867  1.0000
  C   C4604     1.0  0.72613  0.53774  0.83448  1.0000
  C   C4605     1.0  0.74003  0.54136  0.83092  1.0000
  C   C4606     1.0  0.75306  0.53017  0.83142  1.0000
  C   C4607     1.0  0.77442  0.49518  0.85309  1.0000
  C   C4608     1.0  0.76404  0.49808  0.86600  1.0000
  C   C4609     1.0  0.76849  0.49369  0.87952  1.0000
  C   C4610     1.0  0.78321  0.48629  0.88022  1.0000
  C   C4611     1.0  0.79354  0.48326  0.86743  1.0000
  C   C4612     1.0  0.78917  0.48760  0.85392  1.0000
  H   H3657     1.0  0.80857  0.52861  0.81756  1.0000
  H   H3658     1.0  0.81862  0.51981  0.79401  1.0000
  H   H3659     1.0  0.80689  0.50266  0.78836  1.0000
  H   H3660     1.0  0.78544  0.49424  0.80603  1.0000
  H   H3661     1.0  0.78736  0.52004  0.83549  1.0000
  H   H3662     1.0  0.75710  0.49741  0.81198  1.0000
  H   H3663     1.0  0.75005  0.47648  0.80751  1.0000
  H   H3664     1.0  0.77110  0.46925  0.85134  1.0000
  H   H3665     1.0  0.73731  0.50027  0.84274  1.0000
  H   H3666     1.0  0.71445  0.52010  0.84188  1.0000
  H   H3667     1.0  0.71601  0.54643  0.83458  1.0000
  H   H3668     1.0  0.74067  0.55286  0.82828  1.0000
  H   H3669     1.0  0.76357  0.53335  0.82898  1.0000
  H   H3670     1.0  0.75253  0.50354  0.86572  1.0000
  H   H3671     1.0  0.76051  0.49591  0.88949  1.0000
  H   H3672     1.0  0.78658  0.48255  0.89071  1.0000
  H   H3673     1.0  0.80484  0.47721  0.86813  1.0000
  H   H3674     1.0  0.79723  0.48484  0.84418  1.0000
  C   C4613     1.0  0.74325  0.36305  0.89448  1.0000
  H   H3675     1.0  0.74887  0.57299  0.92169  1.0000
  H   H3676     1.0  0.89258  0.46730  0.80476  1.0000
  H   H3677     1.0  0.54505  0.63264  0.87739  1.0000
  C   C4614     1.0  0.92331  0.53416  0.80466  1.0000
  C   C4615     1.0  0.93311  0.52478  0.81347  1.0000
  C   C4616     1.0  0.92783  0.51488  0.82608  1.0000
  C   C4617     1.0  0.91284  0.51409  0.82973  1.0000
  C   C4618     1.0  0.90304  0.52311  0.82067  1.0000
  C   C4619     1.0  0.90826  0.53354  0.80839  1.0000
  P   P154      1.0  0.88367  0.52208  0.82567  1.0000
  C   C4620     1.0  0.88137  0.50336  0.83081  1.0000
  C   C4621     1.0  0.87656  0.47467  0.83766  1.0000
  C   C4622     1.0  0.89057  0.47733  0.83013  1.0000
  C   C4623     1.0  0.89302  0.49163  0.82673  1.0000
  C   C4624     1.0  0.87501  0.53118  0.84097  1.0000
  C   C4625     1.0  0.87054  0.54667  0.83845  1.0000
  C   C4626     1.0  0.86371  0.55374  0.85032  1.0000
  C   C4627     1.0  0.86150  0.54539  0.86476  1.0000
  C   C4628     1.0  0.86629  0.52998  0.86736  1.0000
  C   C4629     1.0  0.87313  0.52289  0.85554  1.0000
  H   H3678     1.0  0.92743  0.54174  0.79480  1.0000
  H   H3679     1.0  0.94483  0.52505  0.81045  1.0000
  H   H3680     1.0  0.93544  0.50749  0.83287  1.0000
  H   H3681     1.0  0.90901  0.50621  0.83947  1.0000
  H   H3682     1.0  0.90088  0.54107  0.80151  1.0000
  H   H3683     1.0  0.87481  0.46352  0.84074  1.0000
  H   H3684     1.0  0.89964  0.46821  0.82727  1.0000
  H   H3685     1.0  0.90396  0.49348  0.82101  1.0000
  H   H3686     1.0  0.87232  0.55326  0.82732  1.0000
  H   H3687     1.0  0.86017  0.56570  0.84832  1.0000
  H   H3688     1.0  0.85618  0.55084  0.87396  1.0000
  H   H3689     1.0  0.86476  0.52349  0.87855  1.0000
  H   H3690     1.0  0.87695  0.51094  0.85783  1.0000
  C   C4630     1.0  0.90433  0.39006  0.78185  1.0000
  C   C4631     1.0  0.63290  0.33566  0.97108  1.0000
  H   H3691     1.0  0.65799  0.51361  0.93671  1.0000
  H   H3692     1.0  0.57883  0.58115  0.97035  1.0000
  H   H3693     1.0  0.89290  0.39275  0.78055  1.0000
  C   C4632     1.0  0.76350  0.40596  0.95299  1.0000
  S   S642      1.0  0.90533  0.43032  0.74858  1.0000
  C   C4633     1.0  0.80236  0.44309  0.82618  1.0000
  Fe  Fe325     1.0  0.53249  0.63951  0.92812  1.0000
  H   H3694     1.0  0.70284  0.44543  0.90509  1.0000
  C   C4634     1.0  0.62513  0.62235  0.92128  1.0000
  H   H3695     1.0  0.74217  0.48518  0.95985  1.0000
  C   C4635     1.0  0.96002  0.33346  0.79689  1.0000
  H   H3696     1.0  0.76685  0.36077  0.89168  1.0000
  C   C4636     1.0  0.74216  0.57580  0.95759  1.0000
  H   H3697     1.0  0.83084  0.38192  0.95340  1.0000
  H   H3698     1.0  0.97109  0.36172  0.80924  1.0000
  C   C4637     1.0  0.70330  0.59954  0.92920  1.0000
  C   C4638     1.0  0.60502  0.44228  0.97758  1.0000
  H   H3699     1.0  0.68134  0.37227  0.92282  1.0000
  H   H3700     1.0  0.67278  0.34103  0.95074  1.0000
  H   H3701     1.0  0.81548  0.48806  0.97880  1.0000
  C   C4639     1.0  0.52606  0.34293  0.87526  1.0000
  H   H3702     1.0  0.84109  0.44491  0.93685  1.0000
  H   H3703     1.0  0.81423  0.40547  0.90487  1.0000
  H   H3704     1.0  0.58473  0.36004  0.87730  1.0000
  C   C4640     1.0  0.89547  0.49384  0.77324  1.0000
  C   C4641     1.0  0.69976  0.50458  0.93299  1.0000
  C   C4642     1.0  0.98803  0.45123  0.76378  1.0000
  H   H3705     1.0  0.69986  0.59376  0.87128  1.0000
  C   C4643     1.0  0.63492  0.36689  0.88322  1.0000
  C   C4644     1.0  0.65010  0.35175  0.95880  1.0000
  C   C4645     1.0  0.69191  0.45285  0.90529  1.0000
  H   H3706     1.0  0.62547  0.40220  0.86354  1.0000
  C   C4646     1.0  0.68441  0.48191  0.94160  1.0000
  C   C4647     1.0  0.62689  0.63138  0.97838  1.0000
  H   H3707     1.0  0.81503  0.42162  0.83469  1.0000
  C   C4648     1.0  0.78458  0.55459  0.95929  1.0000
  C   C4649     1.0  0.80277  0.45772  0.81905  1.0000
  C   C4650     1.0  0.63577  0.34989  0.96622  1.0000
  C   C4651     1.0  0.83150  0.48131  0.82844  1.0000
  H   H3708     1.0  0.63871  0.51163  0.83416  1.0000
  H   H3709     1.0  0.96001  0.39154  0.83861  1.0000
  H   H3710     1.0  0.76389  0.44867  0.84667  1.0000
  H   H3711     1.0  0.65231  0.36273  0.95540  1.0000
  C   C4652     1.0  0.62219  0.48066  0.83866  1.0000
  H   H3712     1.0  0.85810  0.50964  0.84105  1.0000
  H   H3713     1.0  0.95199  0.46863  0.74853  1.0000
  C   C4653     1.0  0.56112  0.64669  0.95200  1.0000
  C   C4654     1.0  0.70764  0.33992  0.92742  1.0000
  C   C4655     1.0  0.62938  0.39322  0.87216  1.0000
  C   C4656     1.0  0.52132  0.35324  0.88433  1.0000
  C   C4657     1.0  0.98249  0.44308  0.75747  1.0000
  H   H3714     1.0  0.69069  0.43822  0.95677  1.0000
  H   H3715     1.0  0.74396  0.40394  0.97014  1.0000
  C   C4658     1.0  0.66278  0.59473  0.87880  1.0000
  C   C4659     1.0  0.96632  0.37532  0.82503  1.0000
  H   H3716     1.0  0.88392  0.42394  0.85385  1.0000
  H   H3717     1.0  0.92444  0.38079  0.80846  1.0000
  H   H3718     1.0  0.61373  0.47921  0.84869  1.0000
  C   C4660     1.0  0.75613  0.36178  0.89935  1.0000
  H   H3719     1.0  0.65744  0.48650  0.82548  1.0000
  C   C4661     1.0  0.96637  0.41356  0.75627  1.0000
  C   C4662     1.0  0.68847  0.59445  0.87753  1.0000
  C   C4663     1.0  0.65525  0.34223  0.87009  1.0000
  H   H3720     1.0  0.78582  0.53212  0.97179  1.0000
  H   H3721     1.0  0.76065  0.41792  0.95123  1.0000
  H   H3722     1.0  0.67225  0.54017  0.92275  1.0000
  C   C4664     1.0  0.66413  0.47255  0.90493  1.0000
  H   H3723     1.0  0.65986  0.45738  0.84456  1.0000
  C   C4665     1.0  0.86493  0.48637  0.84161  1.0000
  H   H3724     1.0  0.61157  0.64894  0.94265  1.0000
  P   P155      1.0  0.73381  0.56723  0.97605  1.0000
  C   C4666     1.0  0.76276  0.45924  0.83895  1.0000
  C   C4667     1.0  0.92534  0.52193  0.76087  1.0000
  C   C4668     1.0  0.77621  0.39847  0.94434  1.0000
  C   C4669     1.0  0.87684  0.43020  0.84613  1.0000
  H   H3725     1.0  0.53003  0.35556  0.82710  1.0000
  C   C4670     1.0  0.86729  0.50066  0.83809  1.0000
  C   C4671     1.0  0.86145  0.43469  0.85131  1.0000
  H   H3726     1.0  0.96106  0.42454  0.75111  1.0000
  H   H3727     1.0  0.86431  0.43312  0.80038  1.0000
  H   H3728     1.0  0.89840  0.38674  0.80556  1.0000
  H   H3729     1.0  0.80450  0.40832  0.96903  1.0000
  C   C4672     1.0  0.62333  0.45053  0.88784  1.0000
  H   H3730     1.0  0.85297  0.53859  0.82375  1.0000
  C   C4673     1.0  0.66781  0.46018  0.89863  1.0000
  H   H3731     1.0  0.95708  0.32494  0.80639  1.0000
  C   C4674     1.0  0.85847  0.44704  0.82637  1.0000
  H   H3732     1.0  0.93976  0.40364  0.80117  1.0000
  H   H3733     1.0  0.85189  0.50726  0.90364  1.0000
  C   C4675     1.0  0.85230  0.44318  0.84151  1.0000
  C   C4676     1.0  0.66313  0.35270  0.86061  1.0000
  C   C4677     1.0  0.75390  0.39805  0.96379  1.0000
  C   C4678     1.0  0.87439  0.53005  0.81040  1.0000
  H   H3734     1.0  0.94563  0.40876  0.76938  1.0000
  C   C4679     1.0  0.63609  0.48272  0.83888  1.0000
  H   H3735     1.0  0.64393  0.45190  0.87228  1.0000
  H   H3736     1.0  0.62703  0.43881  0.89216  1.0000
  H   H3737     1.0  0.75333  0.45211  0.82496  1.0000
  C   C4680     1.0  0.87398  0.44280  0.82133  1.0000
  C   C4681     1.0  0.64671  0.48472  0.82559  1.0000
  H   H3738     1.0  0.85404  0.48446  0.84734  1.0000
  C   C4682     1.0  0.84999  0.50037  0.81137  1.0000
  C   C4683     1.0  0.96557  0.51400  0.75785  1.0000
  C   C4684     1.0  0.67408  0.47483  0.91202  1.0000
  C   C4685     1.0  0.85924  0.53738  0.81276  1.0000
  C   C4686     1.0  0.86302  0.44289  0.79163  1.0000
  C   C4687     1.0  0.94886  0.39892  0.82041  1.0000
  C   C4688     1.0  0.94696  0.39552  0.80794  1.0000
  C   C4689     1.0  0.89397  0.48735  0.78827  1.0000
  H   H3739     1.0  0.85673  0.43195  0.86303  1.0000
  C   C4690     1.0  0.73921  0.51701  0.98210  1.0000
  C   C4691     1.0  0.95559  0.34833  0.79799  1.0000
  H   H3740     1.0  0.69432  0.32946  0.84564  1.0000
  C   C4692     1.0  0.68700  0.33693  0.91930  1.0000
  C   C4693     1.0  0.85200  0.54301  0.80090  1.0000
  C   C4694     1.0  0.88190  0.52773  0.79623  1.0000
  C   C4695     1.0  0.49927  0.33310  0.96525  1.0000
  C   C4696     1.0  0.61905  0.48045  0.82536  1.0000
  C   C4697     1.0  0.62972  0.48235  0.81221  1.0000
  C   C4698     1.0  0.58696  0.60014  0.93494  1.0000
  C   C4699     1.0  0.88312  0.43435  0.83116  1.0000
  H   H3741     1.0  0.88088  0.53201  0.77341  1.0000
  H   H3742     1.0  0.84036  0.54880  0.80276  1.0000
  H   H3743     1.0  0.97885  0.43324  0.76418  1.0000
  H   H3744     1.0  0.55287  0.36313  0.81124  1.0000
  C   C4700     1.0  0.83376  0.51455  0.92085  1.0000
  H   H3745     1.0  0.60832  0.47882  0.82529  1.0000
  H   H3746     1.0  0.58872  0.63810  0.91721  1.0000
  C   C4701     1.0  0.87473  0.53350  0.78437  1.0000
  C   C4702     1.0  0.85979  0.54121  0.78669  1.0000
  H   H3747     1.0  0.57773  0.59971  0.94435  1.0000
  H   H3748     1.0  0.75854  0.59533  0.91778  1.0000
  C   C4703     1.0  0.96452  0.37195  0.81246  1.0000
  H   H3749     1.0  0.83891  0.42940  0.82761  1.0000
  C   C4704     1.0  0.83090  0.44267  0.94444  1.0000
  C   C4705     1.0  0.96418  0.38998  0.77287  1.0000
  C   C4706     1.0  0.95461  0.38196  0.80397  1.0000
  H   H3750     1.0  0.97745  0.33772  0.76058  1.0000
  C   C4707     1.0  0.89346  0.46430  0.78321  1.0000
  H   H3751     1.0  0.85425  0.54575  0.77748  1.0000
  H   H3752     1.0  0.70601  0.33634  0.98268  1.0000
  C   C4708     1.0  0.72935  0.36471  0.90422  1.0000
  H   H3753     1.0  0.83765  0.47937  0.95999  1.0000
  H   H3754     1.0  0.65858  0.36443  0.85999  1.0000
  H   H3755     1.0  0.80618  0.38489  0.94830  1.0000
  C   C4709     1.0  0.67174  0.56939  0.94387  1.0000
  C   C4710     1.0  0.67480  0.54379  0.94292  1.0000
  H   H3756     1.0  0.74910  0.37672  0.97431  1.0000
  H   H3757     1.0  0.67654  0.55079  0.96160  1.0000
  H   H3758     1.0  0.68573  0.59669  0.96318  1.0000
  H   H3759     1.0  0.98869  0.41530  0.74448  1.0000
  C   C4711     1.0  0.71639  0.37169  0.95588  1.0000
  H   H3760     1.0  0.96952  0.36385  0.76239  1.0000
  H   H3761     1.0  0.84044  0.44680  0.84581  1.0000
  P   P156      1.0  0.95309  0.37861  0.78699  1.0000
  C   C4712     1.0  0.75401  0.58992  0.92888  1.0000
  C   C4713     1.0  0.70676  0.58427  0.96880  1.0000
  C   C4714     1.0  0.67697  0.40308  0.93744  1.0000
  H   H3762     1.0  0.56457  0.64040  0.88313  1.0000
  C   C4715     1.0  0.70042  0.49463  0.94652  1.0000
  C   C4716     1.0  0.69268  0.48335  0.95083  1.0000
  C   C4717     1.0  0.74268  0.57031  0.94533  1.0000
  H   H3763     1.0  0.85748  0.50756  0.80512  1.0000
  C   C4718     1.0  0.61277  0.33549  0.86032  1.0000
  H   H3764     1.0  0.72354  0.40143  0.95368  1.0000
  H   H3765     1.0  0.67831  0.47322  0.94518  1.0000
  C   C4719     1.0  0.62472  0.33703  0.86508  1.0000
  H   H3766     1.0  0.61980  0.55670  0.94351  1.0000
  C   C4720     1.0  0.62181  0.55464  0.95448  1.0000
  H   H3767     1.0  0.63484  0.51850  0.95546  1.0000
  H   H3768     1.0  0.62713  0.35959  0.96842  1.0000
  H   H3769     1.0  0.61453  0.32756  0.85354  1.0000
  C   C4721     1.0  0.79995  0.49210  0.96489  1.0000
  H   H3770     1.0  0.62887  0.60047  0.85233  1.0000
  C   C4722     1.0  0.58793  0.36927  0.96288  1.0000
  H   H3771     1.0  0.81636  0.47367  0.80967  1.0000
  C   C4723     1.0  0.89581  0.48561  0.76312  1.0000
  C   C4724     1.0  0.50648  0.35639  0.86200  1.0000
  H   H3772     1.0  0.56164  0.64675  0.94060  1.0000
  H   H3773     1.0  0.69484  0.51559  0.86929  1.0000
  H   H3774     1.0  0.74713  0.59316  0.96449  1.0000
  C   C4725     1.0  0.68437  0.51556  0.87727  1.0000
  C   C4726     1.0  0.68386  0.50539  0.89076  1.0000
  H   H3775     1.0  0.67182  0.53386  0.86383  1.0000
  H   H3776     1.0  0.69386  0.49729  0.89304  1.0000
  H   H3777     1.0  0.78861  0.37696  0.93989  1.0000
  H   H3778     1.0  0.91351  0.39296  0.75851  1.0000
  H   H3779     1.0  0.94907  0.35121  0.80835  1.0000
  P   P157      1.0  0.84659  0.45827  0.81382  1.0000
  H   H3780     1.0  0.61800  0.60181  0.95619  1.0000
  H   H3781     1.0  0.71252  0.58499  0.95740  1.0000
  C   C4727     1.0  0.72440  0.41274  0.94909  1.0000
  C   C4728     1.0  0.56782  0.34512  0.82245  1.0000
  C   C4729     1.0  0.63684  0.50973  0.94962  1.0000
  C   C4730     1.0  0.82666  0.48270  0.95750  1.0000
  C   C4731     1.0  0.64993  0.50692  0.93896  1.0000
  C   C4732     1.0  0.62608  0.50154  0.95249  1.0000
  C   C4733     1.0  0.67140  0.52582  0.87419  1.0000
  H   H3782     1.0  0.64688  0.61602  0.84831  1.0000
  C   C4734     1.0  0.77154  0.45275  0.92997  1.0000
  H   H3783     1.0  0.82459  0.47389  0.83555  1.0000
  C   C4735     1.0  0.68352  0.49199  0.92812  1.0000
  C   C4736     1.0  0.64189  0.48713  0.93457  1.0000
  C   C4737     1.0  0.56782  0.59876  0.88615  1.0000
  H   H3784     1.0  0.63598  0.57001  0.94840  1.0000
  C   C4738     1.0  0.65255  0.49562  0.93128  1.0000
  H   H3785     1.0  0.76134  0.43864  0.96682  1.0000
  S   S643      1.0  0.51668  0.64585  0.91264  1.0000
  H   H3786     1.0  0.83434  0.42416  0.92490  1.0000
  C   C4739     1.0  0.67048  0.50563  0.90138  1.0000
  C   C4740     1.0  0.75348  0.59555  0.94098  1.0000
  H   H3787     1.0  0.58910  0.34237  0.86121  1.0000
  H   H3788     1.0  0.75736  0.46913  0.91642  1.0000
  C   C4741     1.0  0.62645  0.60880  0.85879  1.0000
  C   C4742     1.0  0.76322  0.45763  0.91898  1.0000
  C   C4743     1.0  0.65322  0.45152  0.96689  1.0000
  H   H3789     1.0  0.56870  0.34546  0.97772  1.0000
  C   C4744     1.0  0.65796  0.52590  0.88460  1.0000
  C   C4745     1.0  0.64013  0.61541  0.91688  1.0000
  C   C4746     1.0  0.63085  0.56230  0.95731  1.0000
  H   H3790     1.0  0.79262  0.46547  0.81661  1.0000
  H   H3791     1.0  0.70447  0.34134  0.95655  1.0000
  H   H3792     1.0  0.80945  0.42761  0.92028  1.0000
  C   C4747     1.0  0.63660  0.61754  0.85657  1.0000
  C   C4748     1.0  0.57842  0.61818  0.88801  1.0000
  C   C4749     1.0  0.65742  0.51567  0.89807  1.0000
  H   H3793     1.0  0.64798  0.53407  0.88233  1.0000
  H   H3794     1.0  0.75761  0.60538  0.93928  1.0000
  H   H3795     1.0  0.84035  0.51012  0.92927  1.0000
  H   H3796     1.0  0.60575  0.60345  0.87119  1.0000
  C   C4750     1.0  0.59839  0.34384  0.86464  1.0000
  C   C4751     1.0  0.80388  0.44792  0.95104  1.0000
  C   C4752     1.0  0.82799  0.41577  0.93036  1.0000
  C   C4753     1.0  0.82930  0.45229  0.81863  1.0000
  C   C4754     1.0  0.61322  0.61060  0.86952  1.0000
  C   C4755     1.0  0.85492  0.45670  0.79487  1.0000
  C   C4756     1.0  0.81380  0.41773  0.92779  1.0000
  C   C4757     1.0  0.58393  0.61102  0.97911  1.0000
  H   H3797     1.0  0.77220  0.46054  0.93585  1.0000
  S   S644      1.0  0.71560  0.44995  0.96467  1.0000
  H   H3798     1.0  0.69427  0.41689  0.90292  1.0000
  H   H3799     1.0  0.91243  0.54130  0.76929  1.0000
  C   C4758     1.0  0.91598  0.39015  0.76939  1.0000
  C   C4759     1.0  0.67204  0.54833  0.92869  1.0000
  H   H3800     1.0  0.76938  0.42533  0.90814  1.0000
  H   H3801     1.0  0.84505  0.40156  0.94172  1.0000
  C   C4760     1.0  0.69125  0.50337  0.92386  1.0000
  C   C4761     1.0  0.77008  0.43284  0.91432  1.0000
  H   H3802     1.0  0.73845  0.56064  0.94669  1.0000
  H   H3803     1.0  0.58820  0.59461  0.89337  1.0000
  C   C4762     1.0  0.63362  0.62797  0.86523  1.0000
  C   C4763     1.0  0.55706  0.32821  0.98129  1.0000
  C   C4764     1.0  0.83406  0.40298  0.93974  1.0000
  H   H3804     1.0  0.64685  0.51548  0.90577  1.0000
  C   C4765     1.0  0.68508  0.59447  0.89259  1.0000
  H   H3805     1.0  0.63374  0.40758  0.88345  1.0000
  C   C4766     1.0  0.97487  0.50164  0.75249  1.0000
  H   H3806     1.0  0.71948  0.36591  0.90016  1.0000
  C   C4767     1.0  0.58483  0.61032  0.92186  1.0000
  H   H3807     1.0  0.50082  0.35810  0.85316  1.0000
  H   H3808     1.0  0.70345  0.54934  0.96891  1.0000
  H   H3809     1.0  0.62284  0.58220  0.92346  1.0000
  H   H3810     1.0  0.64160  0.63459  0.86366  1.0000
  C   C4768     1.0  0.77899  0.43787  0.93327  1.0000
  C   C4769     1.0  0.74756  0.58854  0.95529  1.0000
  C   C4770     1.0  0.79238  0.40042  0.91364  1.0000
  H   H3811     1.0  0.67717  0.53213  0.94810  1.0000
  C   C4771     1.0  0.57808  0.37496  0.97473  1.0000
  H   H3812     1.0  0.56834  0.58708  0.88753  1.0000
  C   C4772     1.0  0.77851  0.42785  0.92528  1.0000
  C   C4773     1.0  0.80561  0.40675  0.93437  1.0000
  C   C4774     1.0  0.61236  0.59031  0.92312  1.0000
  C   C4775     1.0  0.62040  0.62981  0.87598  1.0000
  H   H3813     1.0  0.61936  0.60021  0.90041  1.0000
  C   C4776     1.0  0.60995  0.62132  0.87802  1.0000
  C   C4777     1.0  0.79947  0.38660  0.88965  1.0000
  H   H3814     1.0  0.53055  0.61585  0.97457  1.0000
  C   C4778     1.0  0.53623  0.60902  0.98327  1.0000
  C   C4779     1.0  0.76148  0.44947  0.96793  1.0000
  H   H3815     1.0  0.99390  0.37967  0.79779  1.0000
  H   H3816     1.0  0.82042  0.39304  0.88411  1.0000
  C   C4780     1.0  0.73538  0.54773  0.97777  1.0000
  H   H3817     1.0  0.78517  0.43416  0.94197  1.0000
  S   S645      1.0  0.99304  0.46507  0.79142  1.0000
  C   C4781     1.0  0.82604  0.39196  0.94631  1.0000
  C   C4782     1.0  0.78562  0.38700  0.89941  1.0000
  C   C4783     1.0  0.61033  0.60062  0.91005  1.0000
  H   H3818     1.0  0.80204  0.38159  0.88018  1.0000
  C   C4784     1.0  0.60780  0.35518  0.87869  1.0000
  H   H3819     1.0  0.56963  0.38505  0.97267  1.0000
  H   H3820     1.0  0.69061  0.51151  0.91369  1.0000
  P   P158      1.0  0.78807  0.40863  0.92952  1.0000
  H   H3821     1.0  0.66116  0.49995  0.97357  1.0000
  H   H3822     1.0  0.58711  0.37490  0.95162  1.0000
  C   C4785     1.0  0.81195  0.39374  0.94348  1.0000
  H   H3823     1.0  0.98971  0.49741  0.78099  1.0000
  C   C4786     1.0  0.77910  0.38295  0.94670  1.0000
  C   C4787     1.0  0.58370  0.58766  0.97453  1.0000
  H   H3824     1.0  0.61834  0.63785  0.88267  1.0000
  C   C4788     1.0  0.56772  0.33650  0.97354  1.0000
  C   C4789     1.0  0.78194  0.39412  0.91119  1.0000
  H   H3825     1.0  0.77765  0.38197  0.89772  1.0000
  H   H3826     1.0  0.77094  0.39470  0.91837  1.0000
  C   C4790     1.0  0.60071  0.59015  0.93560  1.0000
  H   H3827     1.0  0.60219  0.58198  0.94563  1.0000
  C   C4791     1.0  0.59659  0.61083  0.90940  1.0000
  C   C4792     1.0  0.57906  0.60310  0.88951  1.0000
  H   H3828     1.0  0.66319  0.62265  0.92690  1.0000
  C   C4793     1.0  0.97151  0.34061  0.77111  1.0000
  P   P159      1.0  0.59322  0.62341  0.89238  1.0000
  C   C4794     1.0  0.97977  0.38503  0.76943  1.0000
  H   H3829     1.0  0.69631  0.46685  0.91670  1.0000
  C   C4795     1.0  0.58787  0.64258  0.89409  1.0000
  S   S646      1.0  0.64425  0.56949  0.97547  1.0000
  C   C4796     1.0  0.75680  0.38268  0.96607  1.0000
  C   C4797     1.0  0.86964  0.44161  0.77702  1.0000
  C   C4798     1.0  0.51846  0.34417  0.86430  1.0000
  H   H3830     1.0  0.81656  0.45815  0.93062  1.0000
  H   H3831     1.0  0.86204  0.48268  0.80022  1.0000
  C   C4799     1.0  0.83160  0.43243  0.95776  1.0000
  C   C4800     1.0  0.67975  0.41308  0.92409  1.0000
  C   C4801     1.0  0.66832  0.44686  0.96771  1.0000
  C   C4802     1.0  0.51135  0.33217  0.84231  1.0000
  C   C4803     1.0  0.64911  0.45154  0.95394  1.0000
  C   C4804     1.0  0.81413  0.48757  0.96817  1.0000
  C   C4805     1.0  0.55611  0.32820  0.84284  1.0000
  C   C4806     1.0  0.68810  0.46498  0.91199  1.0000
  C   C4807     1.0  0.81706  0.45018  0.94096  1.0000
  H   H3832     1.0  0.79335  0.45437  0.94833  1.0000
  C   C4808     1.0  0.86802  0.45401  0.76553  1.0000
  C   C4809     1.0  0.67045  0.59465  0.90088  1.0000
  H   H3833     1.0  0.56801  0.60811  0.96862  1.0000
  H   H3834     1.0  0.89571  0.46391  0.76072  1.0000
  C   C4810     1.0  0.81621  0.46230  0.81518  1.0000
  C   C4811     1.0  0.69320  0.59334  0.92617  1.0000
  C   C4812     1.0  0.68657  0.38916  0.93987  1.0000
  C   C4813     1.0  0.70214  0.39541  0.91568  1.0000
  H   H3835     1.0  0.74393  0.36319  0.88301  1.0000
  C   C4814     1.0  0.91888  0.53706  0.75959  1.0000
  C   C4815     1.0  0.83820  0.50496  0.82264  1.0000
  C   C4816     1.0  0.67455  0.55433  0.95051  1.0000
  C   C4817     1.0  0.66915  0.56339  0.92203  1.0000
  H   H3836     1.0  0.52721  0.35213  0.89286  1.0000
  H   H3837     1.0  0.59916  0.63146  0.96242  1.0000
  H   H3838     1.0  0.61289  0.47990  0.97632  1.0000
  C   C4818     1.0  0.68683  0.36073  0.92328  1.0000
  H   H3839     1.0  0.66721  0.56660  0.91098  1.0000
  C   C4819     1.0  0.80448  0.43790  0.96461  1.0000
  C   C4820     1.0  0.70067  0.35484  0.92747  1.0000
  C   C4821     1.0  0.72819  0.36519  0.91895  1.0000
  H   H3840     1.0  0.75640  0.54459  0.96207  1.0000
  C   C4822     1.0  0.84307  0.47675  0.81688  1.0000
  C   C4823     1.0  0.55376  0.35329  0.81996  1.0000
  C   C4824     1.0  0.54095  0.59377  0.98400  1.0000
  P   P160      1.0  0.78771  0.43620  0.97863  1.0000
  H   H3841     1.0  0.64451  0.59012  0.94869  1.0000
  H   H3842     1.0  0.51208  0.61801  0.94072  1.0000
  C   C4825     1.0  0.66167  0.32709  0.87066  1.0000
  C   C4826     1.0  0.66912  0.57406  0.92949  1.0000
  C   C4827     1.0  0.57141  0.65221  0.95554  1.0000
  H   H3843     1.0  0.76497  0.36196  0.91760  1.0000
  H   H3844     1.0  0.71889  0.38182  0.94856  1.0000
  H   H3845     1.0  0.96041  0.51291  0.76949  1.0000
  H   H3846     1.0  0.63389  0.65529  0.94538  1.0000
  C   C4828     1.0  0.68436  0.62219  0.93088  1.0000
  S   S647      1.0  0.70442  0.51795  0.97397  1.0000
  H   H3847     1.0  0.67162  0.57731  0.95001  1.0000
  C   C4829     1.0  0.67110  0.39977  0.97580  1.0000
  C   C4830     1.0  0.75064  0.47582  0.96373  1.0000
  H   H3848     1.0  0.87340  0.45296  0.75425  1.0000
  C   C4831     1.0  0.65940  0.59447  0.89389  1.0000
  C   C4832     1.0  0.85282  0.46899  0.78318  1.0000
  C   C4833     1.0  0.63970  0.47435  0.98523  1.0000
  C   C4834     1.0  0.62416  0.60578  0.94525  1.0000
  C   C4835     1.0  0.63917  0.59895  0.94090  1.0000
  C   C4836     1.0  0.55466  0.62437  0.88054  1.0000
  H   H3849     1.0  0.70586  0.51326  0.92946  1.0000
  H   H3850     1.0  0.79192  0.43952  0.82946  1.0000
  H   H3851     1.0  0.64829  0.59356  0.90016  1.0000
  C   C4837     1.0  0.61707  0.61733  0.93537  1.0000
  H   H3852     1.0  0.64357  0.47822  0.92911  1.0000
  C   C4838     1.0  0.55900  0.64744  0.98132  1.0000
  H   H3853     1.0  0.97700  0.49132  0.76028  1.0000
  H   H3854     1.0  0.60530  0.62226  0.93857  1.0000
  P   P161      1.0  0.66613  0.59350  0.92059  1.0000
  C   C4839     1.0  0.64710  0.60327  0.92651  1.0000
  H   H3855     1.0  0.69672  0.58216  0.92434  1.0000
  H   H3856     1.0  0.65428  0.59422  0.87363  1.0000
  C   C4840     1.0  0.67871  0.60156  0.92519  1.0000
  C   C4841     1.0  0.67431  0.61606  0.92761  1.0000
  C   C4842     1.0  0.79055  0.39282  0.97898  1.0000
  H   H3857     1.0  0.68094  0.63339  0.93268  1.0000
  C   C4843     1.0  0.67731  0.59465  0.87062  1.0000
  C   C4844     1.0  0.55566  0.60939  0.88161  1.0000
  H   H3858     1.0  0.71459  0.59311  0.92951  1.0000
  C   C4845     1.0  0.69887  0.61395  0.93162  1.0000
  H   H3859     1.0  0.54171  0.63758  0.96011  1.0000
  H   H3860     1.0  0.58446  0.45518  0.97131  1.0000
  H   H3861     1.0  0.70672  0.61874  0.93396  1.0000
  C   C4846     1.0  0.85951  0.46767  0.76858  1.0000
  H   H3862     1.0  0.64618  0.61937  0.90589  1.0000
  C   C4847     1.0  0.82903  0.49540  0.83122  1.0000
  H   H3863     1.0  0.69403  0.59386  0.89773  1.0000
  H   H3864     1.0  0.87614  0.43103  0.77452  1.0000
  H   H3865     1.0  0.60555  0.36251  0.88620  1.0000
  H   H3866     1.0  0.61966  0.63134  0.91364  1.0000
  H   H3867     1.0  0.68010  0.59402  0.85908  1.0000
  P   P162      1.0  0.63730  0.34795  0.88183  1.0000
  C   C4848     1.0  0.58659  0.64645  0.90752  1.0000
  H   H3868     1.0  0.66068  0.47597  0.96961  1.0000
  H   H3869     1.0  0.53873  0.58902  0.97604  1.0000
  H   H3870     1.0  0.71406  0.41948  0.96970  1.0000
  H   H3871     1.0  0.64313  0.36152  0.90337  1.0000
  H   H3872     1.0  0.54682  0.60596  0.87930  1.0000
  H   H3873     1.0  0.64361  0.64418  0.96831  1.0000
  C   C4849     1.0  0.87922  0.51960  0.74759  1.0000
  C   C4850     1.0  0.68207  0.40010  0.98296  1.0000
  H   H3874     1.0  0.68646  0.40990  0.98037  1.0000
  H   H3875     1.0  0.85819  0.47722  0.75959  1.0000
  C   C4851     1.0  0.57765  0.60279  0.97356  1.0000
  C   C4852     1.0  0.59455  0.45545  0.97423  1.0000
  H   H3876     1.0  0.82021  0.49879  0.84030  1.0000
  H   H3877     1.0  0.57892  0.62258  0.97855  1.0000
  C   C4853     1.0  0.93351  0.51648  0.74823  1.0000
  C   C4854     1.0  0.59741  0.46894  0.97397  1.0000
  H   H3878     1.0  0.63568  0.33027  0.86176  1.0000
  H   H3879     1.0  0.68481  0.44125  0.89324  1.0000
  C   C4855     1.0  0.62863  0.49022  0.94499  1.0000
  H   H3880     1.0  0.65677  0.44672  0.93217  1.0000
  H   H3881     1.0  0.84235  0.42669  0.96044  1.0000
  H   H3882     1.0  0.62022  0.48397  0.94705  1.0000
  C   C4856     1.0  0.98186  0.40844  0.75267  1.0000
  C   C4857     1.0  0.67496  0.44172  0.94324  1.0000
  C   C4858     1.0  0.68176  0.45045  0.89866  1.0000
  H   H3883     1.0  0.70688  0.49563  0.95371  1.0000
  C   C4859     1.0  0.51510  0.33230  0.82713  1.0000
  H   H3884     1.0  0.63756  0.45514  0.95292  1.0000
  C   C4860     1.0  0.92948  0.48022  0.74668  1.0000
  H   H3885     1.0  0.68342  0.43769  0.93427  1.0000
  H   H3886     1.0  0.98515  0.37404  0.77447  1.0000
  C   C4861     1.0  0.59655  0.60438  0.98529  1.0000
  H   H3887     1.0  0.87223  0.51264  0.75545  1.0000
  C   C4862     1.0  0.81844  0.42996  0.96778  1.0000
  H   H3888     1.0  0.81914  0.42227  0.97825  1.0000
  H   H3889     1.0  0.66685  0.40949  0.96809  1.0000
  C   C4863     1.0  0.76170  0.47798  0.96932  1.0000
  C   C4864     1.0  0.65999  0.44670  0.94213  1.0000
  C   C4865     1.0  0.61833  0.44258  0.98076  1.0000
  S   S648      1.0  0.65176  0.38525  0.97082  1.0000
  H   H3890     1.0  0.69307  0.47574  0.96138  1.0000
  S   S649      1.0  0.78406  0.49949  0.97730  1.0000
  C   C4866     1.0  0.99191  0.46448  0.75554  1.0000
  H   H3891     1.0  0.78370  0.55906  0.96875  1.0000
  H   H3892     1.0  0.62647  0.43228  0.98281  1.0000
  C   C4867     1.0  0.63943  0.37011  0.89446  1.0000
  H   H3893     1.0  0.58495  0.34009  0.95400  1.0000
  H   H3894     1.0  0.74201  0.45993  0.95860  1.0000
  H   H3895     1.0  0.61571  0.50415  0.96038  1.0000
  H   H3896     1.0  0.98586  0.40689  0.78990  1.0000
  H   H3897     1.0  0.78115  0.46789  0.97846  1.0000
  C   C4868     1.0  0.66552  0.38698  0.97899  1.0000
  C   C4869     1.0  0.62850  0.64751  0.95412  1.0000
  H   H3898     1.0  0.60651  0.35202  0.95624  1.0000
  H   H3899     1.0  0.75951  0.51768  0.96573  1.0000
  S   S650      1.0  0.55767  0.33029  0.89211  1.0000
  C   C4870     1.0  0.54844  0.64211  0.97783  1.0000
  C   C4871     1.0  0.77259  0.46589  0.97436  1.0000
  C   C4872     1.0  0.74797  0.53935  0.96983  1.0000
  C   C4873     1.0  0.67717  0.34808  0.85185  1.0000
  H   H3900     1.0  0.61686  0.32875  0.90004  1.0000
  C   C4874     1.0  0.60889  0.63397  0.96387  1.0000
  C   C4875     1.0  0.56897  0.33265  0.83393  1.0000
  H   H3901     1.0  0.79883  0.38370  0.97499  1.0000
  C   C4876     1.0  0.59904  0.35643  0.96547  1.0000
  H   H3902     1.0  0.93857  0.50481  0.74915  1.0000
  C   C4877     1.0  0.71362  0.35600  0.98028  1.0000
  C   C4878     1.0  0.54196  0.33611  0.84015  1.0000
  C   C4879     1.0  0.62745  0.54892  0.98276  1.0000
  H   H3903     1.0  0.67172  0.44695  0.97750  1.0000
  C   C4880     1.0  0.71720  0.36882  0.97067  1.0000
  S   S651      1.0  0.66250  0.52967  0.98813  1.0000
  S   S652      1.0  0.52013  0.65695  0.94120  1.0000
  H   H3904     1.0  0.95523  0.53719  0.75229  1.0000
  C   C4881     1.0  0.96804  0.32960  0.78346  1.0000
  C   C4882     1.0  0.74980  0.52409  0.97191  1.0000
  H   H3905     1.0  0.57983  0.32649  0.83611  1.0000
  C   C4883     1.0  0.77259  0.45151  0.97370  1.0000
  H   H3906     1.0  0.58948  0.47919  0.97092  1.0000
  H   H3907     1.0  0.86288  0.53985  0.75044  1.0000
  H   H3908     1.0  0.77158  0.36319  0.95916  1.0000
  C   C4884     1.0  0.75050  0.46158  0.96309  1.0000
  C   C4885     1.0  0.61592  0.64393  0.95258  1.0000
  H   H3909     1.0  0.50689  0.33367  0.80794  1.0000
  C   C4886     1.0  0.66165  0.33949  0.95617  1.0000
  H   H3910     1.0  0.92549  0.47866  0.75852  1.0000
  C   C4887     1.0  0.61436  0.62751  0.97683  1.0000
  C   C4888     1.0  0.60062  0.34935  0.97988  1.0000
  C   C4889     1.0  0.50172  0.36668  0.87110  1.0000
  C   C4890     1.0  0.58524  0.65387  0.88169  1.0000
  C   C4891     1.0  0.63350  0.55961  0.97152  1.0000
  C   C4892     1.0  0.50086  0.61881  0.94737  1.0000
  P   P163      1.0  0.61518  0.33287  0.98272  1.0000
  H   H3911     1.0  0.50271  0.59530  0.95283  1.0000
  C   C4893     1.0  0.63398  0.64124  0.96702  1.0000
  C   C4894     1.0  0.99748  0.40136  0.78669  1.0000
  C   C4895     1.0  0.61074  0.46928  0.97709  1.0000
  C   C4896     1.0  0.70916  0.34606  0.97509  1.0000
  C   C4897     1.0  0.69157  0.59104  0.97205  1.0000
  H   H3912     1.0  0.51491  0.34162  0.94630  1.0000
  C   C4898     1.0  0.65160  0.48114  0.97738  1.0000
  H   H3913     1.0  0.76196  0.48903  0.96967  1.0000
  C   C4899     1.0  0.57689  0.33350  0.96019  1.0000
  C   C4900     1.0  0.96271  0.52770  0.74819  1.0000
  C   C4901     1.0  0.62129  0.45609  0.98062  1.0000
  P   P164      1.0  0.63937  0.45643  0.98283  1.0000
  C   C4902     1.0  0.65191  0.49481  0.97956  1.0000
  H   H3914     1.0  0.53700  0.32757  0.95630  1.0000
  H   H3915     1.0  0.65128  0.42440  0.98698  1.0000
  C   C4903     1.0  0.94455  0.47447  0.74108  1.0000
  H   H3916     1.0  0.65788  0.33779  0.90205  1.0000
  C   C4904     1.0  0.68344  0.33300  0.85244  1.0000
  H   H3917     1.0  0.60303  0.43189  0.97717  1.0000
  H   H3918     1.0  0.74055  0.50522  0.98361  1.0000
  H   H3919     1.0  0.72377  0.48411  0.98383  1.0000
  H   H3920     1.0  0.99580  0.47085  0.76074  1.0000
  C   C4905     1.0  0.59605  0.58085  0.98094  1.0000
  C   C4906     1.0  0.50401  0.33340  0.81967  1.0000
  H   H3921     1.0  0.57806  0.65730  0.97289  1.0000
  H   H3922     1.0  0.57986  0.65671  0.94687  1.0000
  C   C4907     1.0  0.64894  0.33197  0.90665  1.0000
  H   H3923     1.0  0.60057  0.56910  0.98180  1.0000
  C   C4908     1.0  0.61824  0.54145  0.97998  1.0000
  H   H3924     1.0  0.92858  0.44576  0.74560  1.0000
  C   C4909     1.0  0.72480  0.54049  0.98806  1.0000
  C   C4910     1.0  0.89347  0.51321  0.74016  1.0000
  C   C4911     1.0  0.70079  0.33099  0.92341  1.0000
  H   H3925     1.0  0.63450  0.59728  0.98441  1.0000
  P   P165      1.0  0.89995  0.49330  0.74358  1.0000
  H   H3926     1.0  0.91622  0.55855  0.74510  1.0000
  H   H3927     1.0  0.99397  0.36118  0.73999  1.0000
  C   C4912     1.0  0.87389  0.53498  0.74480  1.0000
  C   C4913     1.0  0.98162  0.44773  0.74263  1.0000
  C   C4914     1.0  0.60259  0.58913  0.98619  1.0000
  C   C4915     1.0  0.52611  0.32637  0.96291  1.0000
  H   H3928     1.0  0.68180  0.33007  0.91600  1.0000
  C   C4916     1.0  0.65887  0.32529  0.96087  1.0000
  C   C4917     1.0  0.77680  0.39049  0.98772  1.0000
  Fe  Fe326     1.0  0.71088  0.43794  0.98831  1.0000
  C   C4918     1.0  0.99061  0.46954  0.74078  1.0000
  C   C4919     1.0  0.68386  0.59024  0.98673  1.0000
  H   H3929     1.0  0.63108  0.62699  0.98844  1.0000
  H   H3930     1.0  0.61329  0.53345  0.98879  1.0000
  C   C4920     1.0  0.50811  0.97671  0.05301  1.0000
  H   H3931     1.0  0.60009  0.95298  0.00969  1.0000
  H   H3932     1.0  0.52078  0.71728  0.06772  1.0000
  Fe  Fe327     1.0  0.57429  0.87567  0.18420  1.0000
  S   S653      1.0  0.56686  0.89788  0.17029  1.0000
  S   S654      1.0  0.57061  0.85468  0.18122  1.0000
  H   H3933     1.0  0.53401  0.82165  0.03240  1.0000
  Fe  Fe328     1.0  0.58863  0.90187  0.17092  1.0000
  S   S655      1.0  0.60453  0.91006  0.15033  1.0000
  S   S656      1.0  0.59689  0.87889  0.18327  1.0000
  C   C4921     1.0  0.51908  0.82050  0.10335  1.0000
  C   C4922     1.0  0.56765  0.97879  0.03157  1.0000
  C   C4923     1.0  0.51396  0.88591  0.20893  1.0000
  C   C4924     1.0  0.62764  0.92904  0.23776  1.0000
  H   H3934     1.0  0.62736  0.89404  0.16826  1.0000
  H   H3935     1.0  0.63065  0.87724  0.21362  1.0000
  H   H3936     1.0  0.53322  0.92028  0.22980  1.0000
  C   C4925     1.0  0.52208  0.90905  0.19961  1.0000
  C   C4926     1.0  0.51290  0.83625  0.16828  1.0000
  C   C4927     1.0  0.55060  0.86870  0.16257  1.0000
  C   C4928     1.0  0.60726  0.94190  0.19670  1.0000
  C   C4929     1.0  0.54376  0.94160  0.14150  1.0000
  H   H3937     1.0  0.92645  0.69537  0.16033  1.0000
  C   C4930     1.0  0.52543  0.89359  0.20385  1.0000
  C   C4931     1.0  0.60672  0.92797  0.14836  1.0000
  C   C4932     1.0  0.59543  0.93851  0.15499  1.0000
  C   C4933     1.0  0.59750  0.95283  0.15308  1.0000
  C   C4934     1.0  0.61090  0.95651  0.14463  1.0000
  C   C4935     1.0  0.62223  0.94590  0.13818  1.0000
  C   C4936     1.0  0.62008  0.93170  0.13991  1.0000
  H   H3938     1.0  0.58505  0.93568  0.16142  1.0000
  H   H3939     1.0  0.58869  0.96101  0.15809  1.0000
  H   H3940     1.0  0.63259  0.94871  0.13167  1.0000
  H   H3941     1.0  0.62881  0.92356  0.13478  1.0000
  H   H3942     1.0  0.67349  0.93042  0.15786  1.0000
  S   S657      1.0  0.58443  0.98761  0.17603  1.0000
  H   H3943     1.0  0.52057  0.86974  0.23569  1.0000
  C   C4937     1.0  0.59654  0.89198  0.23556  1.0000
  C   C4938     1.0  0.51975  0.95566  0.20615  1.0000
  C   C4939     1.0  0.52244  0.83427  0.10129  1.0000
  H   H3944     1.0  0.52718  0.95737  0.19543  1.0000
  C   C4940     1.0  0.53456  0.84115  0.20278  1.0000
  H   H3945     1.0  0.57736  0.66208  0.00892  1.0000
  C   C4941     1.0  0.93761  0.68835  0.15899  1.0000
  C   C4942     1.0  0.56028  0.85564  0.16819  1.0000
  C   C4943     1.0  0.56155  0.84261  0.16374  1.0000
  H   H3946     1.0  0.52322  0.79758  0.11508  1.0000
  H   H3947     1.0  0.52081  0.87499  0.18074  1.0000
  H   H3948     1.0  0.54931  0.87877  0.16614  1.0000
  H   H3949     1.0  0.56888  0.83248  0.16809  1.0000
  C   C4944     1.0  0.63833  0.93911  0.17867  1.0000
  H   H3950     1.0  0.52117  0.78953  0.08618  1.0000
  H   H3951     1.0  0.65661  0.91978  0.18011  1.0000
  C   C4945     1.0  0.50158  0.91665  0.23362  1.0000
  H   H3952     1.0  0.92992  0.66876  0.16161  1.0000
  H   H3953     1.0  0.55493  0.83249  0.14998  1.0000
  H   H3954     1.0  0.54064  0.94735  0.07682  1.0000
  Fe  Fe329     1.0  0.51373  0.70410  0.02260  1.0000
  H   H3955     1.0  0.53489  0.87867  0.14811  1.0000
  H   H3956     1.0  0.56572  0.96374  0.20132  1.0000
  H   H3957     1.0  0.65138  0.94150  0.19899  1.0000
  H   H3958     1.0  0.62969  0.87298  0.18972  1.0000
  S   S658      1.0  0.61986  0.97897  0.23512  1.0000
  Fe  Fe330     1.0  0.59352  0.98965  0.15176  1.0000
  H   H3959     1.0  0.52199  0.90087  0.17074  1.0000
  C   C4946     1.0  0.50932  0.81488  0.06496  1.0000
  C   C4947     1.0  0.51318  0.75706  0.03706  1.0000
  S   S659      1.0  0.53562  0.91913  0.19688  1.0000
  S   S660      1.0  0.54219  0.72699  0.99748  1.0000
  C   C4948     1.0  0.54409  0.85559  0.14769  1.0000
  S   S661      1.0  0.56481  0.88267  0.20579  1.0000
  H   H3960     1.0  0.62605  0.91917  0.17062  1.0000
  C   C4949     1.0  0.54782  0.94353  0.09714  1.0000
  H   H3961     1.0  0.53671  0.88752  0.20372  1.0000
  S   S662      1.0  0.59672  0.88090  0.22359  1.0000
  C   C4950     1.0  0.52899  0.75612  0.05319  1.0000
  C   C4951     1.0  0.52525  0.84671  0.19265  1.0000
  C   C4952     1.0  0.51851  0.76782  0.05882  1.0000
  C   C4953     1.0  0.63338  0.97640  0.19194  1.0000
  C   C4954     1.0  0.65281  0.93089  0.17404  1.0000
  C   C4955     1.0  0.54238  0.86863  0.15240  1.0000
  C   C4956     1.0  0.59763  0.95758  0.11409  1.0000
  C   C4957     1.0  0.53162  0.78260  0.99247  1.0000
  C   C4958     1.0  0.50019  0.90749  0.16561  1.0000
  C   C4959     1.0  0.49914  0.89367  0.20965  1.0000
  C   C4960     1.0  0.59067  0.90737  0.23332  1.0000
  C   C4961     1.0  0.62950  0.88398  0.19069  1.0000
  C   C4962     1.0  0.56269  0.97744  0.06754  1.0000
  C   C4963     1.0  0.52560  0.80833  0.11325  1.0000
  H   H3962     1.0  0.52065  0.77196  0.06722  1.0000
  C   C4964     1.0  0.58712  0.96103  0.20637  1.0000
  H   H3963     1.0  0.53024  0.84873  0.18097  1.0000
  C   C4965     1.0  0.57494  0.89410  0.13321  1.0000
  H   H3964     1.0  0.53227  0.83085  0.07393  1.0000
  C   C4966     1.0  0.51494  0.82040  0.07386  1.0000
  P   P166      1.0  0.50645  0.81867  0.09335  1.0000
  S   S663      1.0  0.51143  0.92700  0.10905  1.0000
  Fe  Fe331     1.0  0.51848  0.72967  0.99630  1.0000
  C   C4967     1.0  0.54009  0.95194  0.08608  1.0000
  H   H3965     1.0  0.50277  0.80200  0.01454  1.0000
  H   H3966     1.0  0.56793  0.85379  0.23157  1.0000
  H   H3967     1.0  0.54403  0.83176  0.04784  1.0000
  C   C4968     1.0  0.57053  0.74686  0.00946  1.0000
  H   H3968     1.0  0.62925  0.90216  0.21634  1.0000
  C   C4969     1.0  0.64479  0.93775  0.20972  1.0000
  C   C4970     1.0  0.62728  0.91010  0.18007  1.0000
  S   S664      1.0  0.53504  0.85463  0.13441  1.0000
  H   H3969     1.0  0.50815  0.84187  0.23460  1.0000
  H   H3970     1.0  0.92540  0.65827  0.12194  1.0000
  H   H3971     1.0  0.49978  0.96292  0.19742  1.0000
  H   H3972     1.0  0.50629  0.67654  0.00493  1.0000
  Fe  Fe332     1.0  0.58640  0.88847  0.20354  1.0000
  H   H3973     1.0  0.50762  0.92302  0.22398  1.0000
  H   H3974     1.0  0.58327  0.97001  0.21214  1.0000
  C   C4971     1.0  0.50966  0.85020  0.19753  1.0000
  C   C4972     1.0  0.50495  0.83341  0.14758  1.0000
  C   C4973     1.0  0.62762  0.91268  0.19365  1.0000
  S   S665      1.0  0.52006  0.70566  0.99822  1.0000
  C   C4974     1.0  0.93964  0.67326  0.15964  1.0000
  C   C4975     1.0  0.57726  0.95757  0.20019  1.0000
  H   H3975     1.0  0.51263  0.98402  0.18223  1.0000
  C   C4976     1.0  0.50982  0.77205  0.99954  1.0000
  C   C4977     1.0  0.50742  0.91660  0.19880  1.0000
  C   C4978     1.0  0.66243  0.93690  0.16151  1.0000
  C   C4979     1.0  0.55361  0.84261  0.15350  1.0000
  C   C4980     1.0  0.53223  0.83584  0.10888  1.0000
  C   C4981     1.0  0.53858  0.82375  0.11879  1.0000
  C   C4982     1.0  0.53528  0.80999  0.12097  1.0000
  H   H3976     1.0  0.54543  0.96204  0.04813  1.0000
  H   H3977     1.0  0.53474  0.84654  0.10723  1.0000
  H   H3978     1.0  0.54594  0.82518  0.12485  1.0000
  H   H3979     1.0  0.54023  0.80063  0.12867  1.0000
  H   H3980     1.0  0.50448  0.76365  0.99929  1.0000
  H   H3981     1.0  0.60940  0.95618  0.20961  1.0000
  C   C4983     1.0  0.63010  0.88638  0.20416  1.0000
  P   P167      1.0  0.55596  0.93847  0.12420  1.0000
  Fe  Fe333     1.0  0.55866  0.90516  0.19182  1.0000
  C   C4984     1.0  0.59737  0.93877  0.19019  1.0000
  C   C4985     1.0  0.64331  0.95941  0.15817  1.0000
  C   C4986     1.0  0.63355  0.95333  0.17052  1.0000
  C   C4987     1.0  0.51150  0.88245  0.17643  1.0000
  H   H3982     1.0  0.58267  0.97593  0.12295  1.0000
  C   C4988     1.0  0.51890  0.94473  0.15719  1.0000
  H   H3983     1.0  0.57486  0.94430  0.18672  1.0000
  H   H3984     1.0  0.60110  0.93033  0.18374  1.0000
  H   H3985     1.0  0.66501  0.95587  0.14380  1.0000
  H   H3986     1.0  0.63954  0.97041  0.15198  1.0000
  H   H3987     1.0  0.62227  0.95971  0.17352  1.0000
  H   H3988     1.0  0.59310  0.74087  0.01250  1.0000
  C   C4989     1.0  0.62402  0.92748  0.22527  1.0000
  C   C4990     1.0  0.62910  0.90066  0.20569  1.0000
  C   C4991     1.0  0.52877  0.82126  0.04394  1.0000
  C   C4992     1.0  0.62814  0.89583  0.17864  1.0000
  C   C4993     1.0  0.51223  0.89726  0.17075  1.0000
  C   C4994     1.0  0.58244  0.94660  0.19193  1.0000
  H   H3989     1.0  0.54659  0.83874  0.19883  1.0000
  H   H3990     1.0  0.61434  0.92323  0.22652  1.0000
  C   C4995     1.0  0.65768  0.95121  0.15360  1.0000
  Fe  Fe334     1.0  0.54324  0.70276  0.00078  1.0000
  H   H3991     1.0  0.65682  0.97135  0.19168  1.0000
  C   C4996     1.0  0.63254  0.93177  0.21116  1.0000
  H   H3992     1.0  0.53486  0.66247  0.99913  1.0000
  H   H3993     1.0  0.52035  0.83195  0.17583  1.0000
  C   C4997     1.0  0.50892  0.79361  0.00823  1.0000
  C   C4998     1.0  0.65132  0.98796  0.17263  1.0000
  C   C4999     1.0  0.50183  0.80076  0.10017  1.0000
  C   C5000     1.0  0.60204  0.95326  0.20467  1.0000
  H   H3994     1.0  0.63068  0.96896  0.20247  1.0000
  H   H3995     1.0  0.53912  0.75121  0.05735  1.0000
  C   C5001     1.0  0.53978  0.91649  0.23822  1.0000
  C   C5002     1.0  0.52762  0.82638  0.06755  1.0000
  S   S666      1.0  0.57962  0.91169  0.19115  1.0000
  P   P168      1.0  0.62637  0.93130  0.19517  1.0000
  H   H3996     1.0  0.50647  0.82761  0.13891  1.0000
  C   C5003     1.0  0.55708  0.85824  0.23792  1.0000
  C   C5004     1.0  0.52841  0.83914  0.21791  1.0000
  S   S667      1.0  0.52518  0.88748  0.10128  1.0000
  H   H3997     1.0  0.50473  0.92850  0.19509  1.0000
  C   C5005     1.0  0.51627  0.81517  0.05014  1.0000
  C   C5006     1.0  0.53444  0.82687  0.05264  1.0000
  H   H3998     1.0  0.51745  0.84385  0.09379  1.0000
  S   S668      1.0  0.53718  0.69949  0.02545  1.0000
  C   C5007     1.0  0.52373  0.79335  0.00087  1.0000
  C   C5008     1.0  0.52631  0.75054  0.04242  1.0000
  S   S669      1.0  0.53948  0.73522  0.03634  1.0000
  H   H3999     1.0  0.60518  0.96443  0.02743  1.0000
  C   C5009     1.0  0.59107  0.96022  0.01573  1.0000
  Fe  Fe335     1.0  0.53312  0.72421  0.02187  1.0000
  H   H4000     1.0  0.58619  0.91312  0.22359  1.0000
  C   C5010     1.0  0.51293  0.84290  0.22290  1.0000
  H   H4001     1.0  0.50711  0.94509  0.15907  1.0000
  C   C5011     1.0  0.57107  0.95956  0.12346  1.0000
  Fe  Fe336     1.0  0.51844  0.87307  0.12334  1.0000
  H   H4002     1.0  0.60013  0.76294  0.99446  1.0000
  H   H4003     1.0  0.51655  0.87402  0.21248  1.0000
  H   H4004     1.0  0.51195  0.81056  0.04354  1.0000
  C   C5012     1.0  0.56376  0.76974  0.99191  1.0000
  C   C5013     1.0  0.52727  0.65990  0.02248  1.0000
  C   C5014     1.0  0.50532  0.77420  0.05362  1.0000
  H   H4005     1.0  0.50651  0.73974  0.07740  1.0000
  C   C5015     1.0  0.52462  0.77176  0.99207  1.0000
  H   H4006     1.0  0.54018  0.91911  0.11849  1.0000
  C   C5016     1.0  0.51116  0.78843  0.09463  1.0000
  H   H4007     1.0  0.66276  0.98893  0.16804  1.0000
  C   C5017     1.0  0.50276  0.71585  0.05918  1.0000
  H   H4008     1.0  0.53765  0.94796  0.21766  1.0000
  C   C5018     1.0  0.53513  0.97045  0.04833  1.0000
  H   H4009     1.0  0.55472  0.93269  0.09598  1.0000
  H   H4010     1.0  0.51105  0.75303  0.02864  1.0000
  C   C5019     1.0  0.55019  0.91232  0.12216  1.0000
  H   H4011     1.0  0.60742  0.96196  0.11213  1.0000
  C   C5020     1.0  0.94994  0.69435  0.15677  1.0000
  Fe  Fe337     1.0  0.50650  0.90513  0.11022  1.0000
  C   C5021     1.0  0.59392  0.96665  0.02576  1.0000
  H   H4012     1.0  0.55879  0.79784  0.00018  1.0000
  H   H4013     1.0  0.52880  0.80170  0.00168  1.0000
  C   C5022     1.0  0.64831  0.93948  0.22225  1.0000
  C   C5023     1.0  0.55729  0.80560  0.98990  1.0000
  H   H4014     1.0  0.56749  0.73718  0.01729  1.0000
  H   H4015     1.0  0.49967  0.81010  0.06956  1.0000
  S   S670      1.0  0.51289  0.87252  0.07342  1.0000
  C   C5024     1.0  0.55988  0.91871  0.12578  1.0000
  H   H4016     1.0  0.54530  0.85931  0.22138  1.0000
  H   H4017     1.0  0.57442  0.95847  0.00548  1.0000
  C   C5025     1.0  0.50742  0.77464  0.09969  1.0000
  H   H4018     1.0  0.52392  0.81908  0.15601  1.0000
  Fe  Fe338     1.0  0.50741  0.88157  0.09421  1.0000
  C   C5026     1.0  0.66092  0.97912  0.11409  1.0000
  H   H4019     1.0  0.51409  0.85480  0.05337  1.0000
  C   C5027     1.0  0.54622  0.94898  0.10973  1.0000
  H   H4020     1.0  0.56999  0.96680  0.08798  1.0000
  S   S671      1.0  0.50217  0.86581  0.11552  1.0000
  H   H4021     1.0  0.59249  0.98065  0.22658  1.0000
  H   H4022     1.0  0.58421  0.88700  0.13802  1.0000
  H   H4023     1.0  0.54419  0.94741  0.17469  1.0000
  H   H4024     1.0  0.52346  0.98265  0.10047  1.0000
  H   H4025     1.0  0.66469  0.97178  0.10639  1.0000
  H   H4026     1.0  0.55454  0.94618  0.23627  1.0000
  H   H4027     1.0  0.54878  0.75533  0.00458  1.0000
  H   H4028     1.0  0.52502  0.97251  0.07892  1.0000
  H   H4029     1.0  0.51442  0.76528  0.09505  1.0000
  C   C5028     1.0  0.52455  0.94681  0.16821  1.0000
  C   C5029     1.0  0.57660  0.96329  0.01339  1.0000
  C   C5030     1.0  0.56494  0.97264  0.02118  1.0000
  H   H4030     1.0  0.97387  0.68987  0.15361  1.0000
  S   S672      1.0  0.54396  0.98082  0.18172  1.0000
  H   H4031     1.0  0.68296  0.97709  0.11714  1.0000
  C   C5031     1.0  0.50192  0.78310  0.00740  1.0000
  H   H4032     1.0  0.53567  0.83500  0.22573  1.0000
  H   H4033     1.0  0.55384  0.97511  0.01905  1.0000
  C   C5032     1.0  0.56499  0.97712  0.08138  1.0000
  C   C5033     1.0  0.55991  0.75722  0.00215  1.0000
  C   C5034     1.0  0.58890  0.76137  0.99660  1.0000
  C   C5035     1.0  0.50041  0.95674  0.10558  1.0000
  C   C5036     1.0  0.64804  0.97795  0.18597  1.0000
  H   H4034     1.0  0.56590  0.96724  0.06360  1.0000
  C   C5037     1.0  0.53766  0.96331  0.11063  1.0000
  C   C5038     1.0  0.52157  0.96608  0.05214  1.0000
  C   C5039     1.0  0.58638  0.93818  0.11365  1.0000
  H   H4035     1.0  0.53649  0.96796  0.12006  1.0000
  C   C5040     1.0  0.57239  0.94573  0.12044  1.0000
  C   C5041     1.0  0.96431  0.68525  0.15522  1.0000
  H   H4036     1.0  0.60985  0.93780  0.10610  1.0000
  H   H4037     1.0  0.58474  0.98112  0.04106  1.0000
  H   H4038     1.0  0.94836  0.70603  0.15635  1.0000
  C   C5042     1.0  0.64571  0.98539  0.11817  1.0000
  C   C5043     1.0  0.50936  0.72211  0.06648  1.0000
  C   C5044     1.0  0.53028  0.97178  0.09942  1.0000
  S   S673      1.0  0.50927  0.72852  0.02054  1.0000
  C   C5045     1.0  0.51618  0.94804  0.23285  1.0000
  C   C5046     1.0  0.58498  0.74893  0.00674  1.0000
  H   H4039     1.0  0.52396  0.94039  0.13543  1.0000
  H   H4040     1.0  0.57894  0.91394  0.13579  1.0000
  C   C5047     1.0  0.59899  0.94398  0.11072  1.0000
  C   C5048     1.0  0.51475  0.82861  0.15721  1.0000
  H   H4041     1.0  0.52143  0.95444  0.05477  1.0000
  C   C5049     1.0  0.96638  0.67015  0.15585  1.0000
  C   C5050     1.0  0.52566  0.95031  0.21885  1.0000
  H   H4042     1.0  0.61084  0.98293  0.18875  1.0000
  H   H4043     1.0  0.55156  0.89657  0.23036  1.0000
  C   C5051     1.0  0.57196  0.90942  0.13184  1.0000
  C   C5052     1.0  0.58366  0.96543  0.12030  1.0000
  C   C5053     1.0  0.52847  0.94208  0.14387  1.0000
  C   C5054     1.0  0.53131  0.96607  0.08724  1.0000
  H   H4044     1.0  0.58765  0.92776  0.11072  1.0000
  C   C5055     1.0  0.54942  0.94329  0.15278  1.0000
  H   H4045     1.0  0.54572  0.89213  0.12068  1.0000
  H   H4046     1.0  0.56790  0.87601  0.13012  1.0000
  H   H4047     1.0  0.56035  0.96578  0.12840  1.0000
  S   S674      1.0  0.61368  0.97438  0.14162  1.0000
  H   H4048     1.0  0.56124  0.94238  0.15145  1.0000
  C   C5056     1.0  0.53979  0.94610  0.16600  1.0000
  C   C5057     1.0  0.55323  0.89700  0.12349  1.0000
  C   C5058     1.0  0.56570  0.88791  0.12885  1.0000
  C   C5059     1.0  0.50265  0.76885  0.04270  1.0000
  C   C5060     1.0  0.95406  0.66402  0.15803  1.0000
  C   C5061     1.0  0.59721  0.98979  0.21975  1.0000
  H   H4049     1.0  0.51719  0.94859  0.17861  1.0000
  C   C5062     1.0  0.58229  0.97601  0.03356  1.0000
  H   H4050     1.0  0.56600  0.96679  0.23356  1.0000
  C   C5063     1.0  0.63970  0.93517  0.23626  1.0000
  H   H4051     1.0  0.56190  0.98978  0.09778  1.0000
  H   H4052     1.0  0.52791  0.67099  0.02241  1.0000
  S   S675      1.0  0.50094  0.89096  0.13292  1.0000
  C   C5064     1.0  0.50133  0.73479  0.07188  1.0000
  H   H4053     1.0  0.97761  0.66336  0.15473  1.0000
  H   H4054     1.0  0.65751  0.94443  0.22111  1.0000
  C   C5065     1.0  0.50153  0.84914  0.16941  1.0000
  C   C5066     1.0  0.50435  0.95882  0.20728  1.0000
  H   H4055     1.0  0.50956  0.98492  0.22165  1.0000
  C   C5067     1.0  0.54433  0.86134  0.23218  1.0000
  C   C5068     1.0  0.55018  0.90295  0.23851  1.0000
  C   C5069     1.0  0.56040  0.99004  0.08693  1.0000
  H   H4056     1.0  0.63763  0.98273  0.11388  1.0000
  C   C5070     1.0  0.65938  0.98421  0.23065  1.0000
  H   H4057     1.0  0.56207  0.82320  0.99636  1.0000
  H   H4058     1.0  0.94642  0.65928  0.13167  1.0000
  C   C5071     1.0  0.62212  0.98444  0.18432  1.0000
  H   H4059     1.0  0.65093  0.97775  0.23516  1.0000
  C   C5072     1.0  0.67119  0.98211  0.12017  1.0000
  C   C5073     1.0  0.53528  0.98552  0.04521  1.0000
  S   S676      1.0  0.50023  0.68870  0.03874  1.0000
  C   C5074     1.0  0.55597  0.99076  0.05906  1.0000
  C   C5075     1.0  0.50359  0.84847  0.21276  1.0000
  H   H4060     1.0  0.50061  0.91903  0.16166  1.0000
  C   C5076     1.0  0.57836  0.77171  0.98918  1.0000
  C   C5077     1.0  0.50070  0.95154  0.23390  1.0000
  C   C5078     1.0  0.50248  0.85955  0.05737  1.0000
  H   H4061     1.0  0.50719  0.95609  0.11316  1.0000
  H   H4062     1.0  0.65673  0.98765  0.20844  1.0000
  C   C5079     1.0  0.66264  0.98984  0.21544  1.0000
  C   C5080     1.0  0.49978  0.94377  0.10211  1.0000
  H   H4063     1.0  0.52068  0.89888  0.23635  1.0000
  H   H4064     1.0  0.50896  0.70598  0.05502  1.0000
  Fe  Fe339     1.0  0.94647  0.86123  0.38606  1.0000
  S   S677      1.0  0.94895  0.83871  0.40071  1.0000
  S   S678      1.0  0.94586  0.86607  0.36196  1.0000
  S   S679      1.0  0.96275  0.86836  0.39417  1.0000
  S   S680      1.0  0.92668  0.87136  0.40164  1.0000
  S   S681      1.0  0.89393  0.77774  0.42051  1.0000
  C   C5081     1.0  0.95953  0.74868  0.29739  1.0000
  C   C5082     1.0  0.68852  0.97718  0.45789  1.0000
  C   C5083     1.0  0.96090  0.86735  0.28096  1.0000
  C   C5084     1.0  0.89228  0.72589  0.41986  1.0000
  H   H4065     1.0  0.54583  0.92608  0.26730  1.0000
  C   C5085     1.0  0.69538  0.94392  0.39618  1.0000
  C   C5086     1.0  0.97844  0.89115  0.42306  1.0000
  H   H4066     1.0  0.96851  0.75003  0.41180  1.0000
  S   S682      1.0  0.70583  0.95949  0.32605  1.0000
  C   C5087     1.0  0.98029  0.73386  0.36075  1.0000
  C   C5088     1.0  0.88646  0.81834  0.37203  1.0000
  Fe  Fe340     1.0  0.60078  0.95814  0.28818  1.0000
  H   H4067     1.0  0.99412  0.82680  0.29767  1.0000
  S   S683      1.0  0.60981  0.95533  0.30849  1.0000
  Fe  Fe341     1.0  0.59372  0.94004  0.27020  1.0000
  S   S684      1.0  0.58510  0.96007  0.25400  1.0000
  S   S685      1.0  0.59519  0.91604  0.27116  1.0000
  Fe  Fe342     1.0  0.60475  0.96797  0.25474  1.0000
  C   C5089     1.0  0.90595  0.67778  0.48309  1.0000
  Fe  Fe343     1.0  0.57376  0.96996  0.27400  1.0000
  C   C5090     1.0  0.99500  0.80421  0.37403  1.0000
  S   S686      1.0  0.61438  0.94711  0.26951  1.0000
  S   S687      1.0  0.58082  0.94928  0.29024  1.0000
  Fe  Fe344     1.0  0.75760  0.95071  0.38957  1.0000
  S   S688      1.0  0.77555  0.93572  0.37645  1.0000
  S   S689      1.0  0.75294  0.97448  0.37746  1.0000
  Fe  Fe345     1.0  0.74681  0.92464  0.41198  1.0000
  S   S690      1.0  0.76375  0.90793  0.40019  1.0000
  S   S691      1.0  0.73045  0.91498  0.43107  1.0000
  Fe  Fe346     1.0  0.77942  0.92201  0.39848  1.0000
  S   S692      1.0  0.80196  0.91192  0.40421  1.0000
  Fe  Fe347     1.0  0.75784  0.92343  0.37956  1.0000
  S   S693      1.0  0.75443  0.91591  0.36072  1.0000
  S   S694      1.0  0.76276  0.93790  0.41162  1.0000
  S   S695      1.0  0.73970  0.93907  0.39151  1.0000
  H   H4068     1.0  0.97134  0.72759  0.30754  1.0000
  C   C5091     1.0  0.89660  0.86218  0.37291  1.0000
  C   C5092     1.0  0.88428  0.70219  0.40650  1.0000
  S   S696      1.0  0.90229  0.78810  0.48146  1.0000
  H   H4069     1.0  0.93934  0.65982  0.24871  1.0000
  H   H4070     1.0  0.99172  0.76434  0.29979  1.0000
  S   S697      1.0  0.81761  0.96205  0.42387  1.0000
  Fe  Fe348     1.0  0.93888  0.77308  0.32915  1.0000
  S   S698      1.0  0.96198  0.76520  0.33354  1.0000
  S   S699      1.0  0.92707  0.76049  0.32128  1.0000
  Fe  Fe349     1.0  0.93420  0.80305  0.33722  1.0000
  S   S700      1.0  0.95679  0.79743  0.34238  1.0000
  S   S701      1.0  0.91981  0.82595  0.33770  1.0000
  Fe  Fe350     1.0  0.96473  0.78819  0.32195  1.0000
  H   H4071     1.0  0.98425  0.80038  0.42171  1.0000
  Fe  Fe351     1.0  0.95162  0.77535  0.35346  1.0000
  S   S702      1.0  0.95585  0.76452  0.37604  1.0000
  S   S703      1.0  0.94240  0.79529  0.31592  1.0000
  S   S704      1.0  0.92820  0.78159  0.34989  1.0000
  C   C5093     1.0  0.87707  0.75056  0.42144  1.0000
  P   P169      1.0  0.66069  0.98156  0.25968  1.0000
  C   C5094     1.0  0.91892  0.71963  0.33396  1.0000
  C   C5095     1.0  0.91791  0.73479  0.32834  1.0000
  C   C5096     1.0  0.92911  0.74135  0.32857  1.0000
  C   C5097     1.0  0.94160  0.73254  0.33423  1.0000
  C   C5098     1.0  0.94282  0.71716  0.33953  1.0000
  H   H4072     1.0  0.58548  0.92698  0.24245  1.0000
  H   H4073     1.0  0.90826  0.74152  0.32398  1.0000
  H   H4074     1.0  0.99385  0.66642  0.48569  1.0000
  H   H4075     1.0  0.86697  0.84723  0.34295  1.0000
  C   C5099     1.0  0.90525  0.68502  0.31036  1.0000
  H   H4076     1.0  0.96029  0.76872  0.43956  1.0000
  C   C5100     1.0  0.92754  0.67652  0.26153  1.0000
  H   H4077     1.0  0.79649  0.96272  0.40796  1.0000
  H   H4078     1.0  0.91551  0.92556  0.42327  1.0000
  C   C5101     1.0  0.93659  0.80590  0.42202  1.0000
  C   C5102     1.0  0.97541  0.73078  0.45521  1.0000
  S   S705      1.0  0.91728  0.76987  0.44838  1.0000
  C   C5103     1.0  0.52454  0.96930  0.25326  1.0000
  H   H4079     1.0  0.55152  0.98885  0.24365  1.0000
  H   H4080     1.0  0.98195  0.83470  0.36968  1.0000
  H   H4081     1.0  0.96743  0.72417  0.42355  1.0000
  H   H4082     1.0  0.92526  0.81719  0.28744  1.0000
  C   C5104     1.0  0.52487  0.95991  0.30773  1.0000
  C   C5105     1.0  0.53742  0.96457  0.29798  1.0000
  C   C5106     1.0  0.50078  0.92991  0.26793  1.0000
  H   H4083     1.0  0.65572  0.93818  0.30926  1.0000
  H   H4084     1.0  0.74310  0.96060  0.42445  1.0000
  H   H4085     1.0  0.54846  0.95769  0.29832  1.0000
  C   C5107     1.0  0.59587  0.90762  0.25674  1.0000
  C   C5108     1.0  0.60176  0.89237  0.25873  1.0000
  H   H4086     1.0  0.95565  0.66336  0.30466  1.0000
  H   H4087     1.0  0.92375  0.66375  0.44004  1.0000
  C   C5109     1.0  0.93792  0.68316  0.30513  1.0000
  P   P170      1.0  0.98577  0.69587  0.41730  1.0000
  H   H4088     1.0  0.60597  0.88641  0.26857  1.0000
  C   C5110     1.0  0.92339  0.67547  0.43780  1.0000
  C   C5111     1.0  0.93015  0.83123  0.29860  1.0000
  H   H4089     1.0  0.55325  0.92641  0.33432  1.0000
  H   H4090     1.0  0.51163  0.84986  0.28499  1.0000
  Fe  Fe352     1.0  0.89837  0.76493  0.44268  1.0000
  C   C5112     1.0  0.81849  0.97240  0.28840  1.0000
  C   C5113     1.0  0.97105  0.87662  0.27570  1.0000
  C   C5114     1.0  0.63001  0.96400  0.31767  1.0000
  C   C5115     1.0  0.61885  0.96852  0.30945  1.0000
  C   C5116     1.0  0.92368  0.68001  0.27549  1.0000
  C   C5117     1.0  0.51048  0.96885  0.30747  1.0000
  H   H4091     1.0  0.97939  0.77942  0.36772  1.0000
  H   H4092     1.0  0.63302  0.95252  0.32312  1.0000
  C   C5118     1.0  0.72262  0.98112  0.35984  1.0000
  C   C5119     1.0  0.96619  0.80947  0.45247  1.0000
  C   C5120     1.0  0.71872  0.94719  0.33625  1.0000
  C   C5121     1.0  0.71718  0.94671  0.35123  1.0000
  C   C5122     1.0  0.72800  0.93698  0.35888  1.0000
  C   C5123     1.0  0.74042  0.92788  0.35157  1.0000
  C   C5124     1.0  0.74165  0.92809  0.33671  1.0000
  C   C5125     1.0  0.73084  0.93769  0.32909  1.0000
  H   H4093     1.0  0.70768  0.95384  0.35684  1.0000
  H   H4094     1.0  0.72665  0.93633  0.37048  1.0000
  H   H4095     1.0  0.75111  0.92096  0.33102  1.0000
  H   H4096     1.0  0.73202  0.93793  0.31755  1.0000
  C   C5126     1.0  0.91116  0.77433  0.40810  1.0000
  C   C5127     1.0  0.91396  0.78403  0.39446  1.0000
  C   C5128     1.0  0.92800  0.78146  0.38491  1.0000
  C   C5129     1.0  0.93901  0.76885  0.38868  1.0000
  C   C5130     1.0  0.93631  0.75934  0.40241  1.0000
  C   C5131     1.0  0.92245  0.76211  0.41209  1.0000
  H   H4097     1.0  0.90544  0.79362  0.39136  1.0000
  H   H4098     1.0  0.93033  0.78933  0.37470  1.0000
  H   H4099     1.0  0.94479  0.74966  0.40551  1.0000
  H   H4100     1.0  0.92055  0.75464  0.42257  1.0000
  H   H4101     1.0  0.93053  0.87218  0.33870  1.0000
  C   C5132     1.0  0.72815  0.91922  0.44826  1.0000
  H   H4102     1.0  0.71594  0.90230  0.45953  1.0000
  H   H4103     1.0  0.73991  0.93680  0.44027  1.0000
  H   H4104     1.0  0.93029  0.79283  0.41083  1.0000
  H   H4105     1.0  0.87071  0.72667  0.45450  1.0000
  S   S706      1.0  0.90656  0.74029  0.44876  1.0000
  H   H4106     1.0  0.63724  0.94105  0.29134  1.0000
  S   S707      1.0  0.94827  0.73409  0.44886  1.0000
  H   H4107     1.0  0.78982  0.96883  0.38368  1.0000
  C   C5133     1.0  0.81386  0.94780  0.41845  1.0000
  C   C5134     1.0  0.82187  0.93311  0.42172  1.0000
  C   C5135     1.0  0.81841  0.92199  0.41720  1.0000
  C   C5136     1.0  0.80711  0.92565  0.40926  1.0000
  C   C5137     1.0  0.79951  0.94038  0.40566  1.0000
  C   C5138     1.0  0.80272  0.95138  0.41042  1.0000
  H   H4108     1.0  0.83059  0.93035  0.42784  1.0000
  H   H4109     1.0  0.82425  0.91059  0.42010  1.0000
  H   H4110     1.0  0.79117  0.94337  0.39912  1.0000
  H   H4111     1.0  0.96903  0.67290  0.43041  1.0000
  C   C5139     1.0  0.93808  0.85464  0.35614  1.0000
  C   C5140     1.0  0.93904  0.83965  0.36294  1.0000
  C   C5141     1.0  0.93364  0.83065  0.35725  1.0000
  C   C5142     1.0  0.92690  0.83673  0.34504  1.0000
  C   C5143     1.0  0.92551  0.85179  0.33863  1.0000
  C   C5144     1.0  0.93132  0.86063  0.34397  1.0000
  H   H4112     1.0  0.94434  0.83489  0.37227  1.0000
  H   H4113     1.0  0.93459  0.81904  0.36238  1.0000
  H   H4114     1.0  0.92024  0.85655  0.32929  1.0000
  C   C5145     1.0  0.84769  0.87887  0.38031  1.0000
  H   H4115     1.0  0.95173  0.66451  0.42144  1.0000
  H   H4116     1.0  0.94770  0.90902  0.26354  1.0000
  H   H4117     1.0  0.52754  0.90605  0.28978  1.0000
  H   H4118     1.0  0.98051  0.85341  0.25765  1.0000
  H   H4119     1.0  0.98670  0.81457  0.39291  1.0000
  C   C5146     1.0  0.97167  0.73910  0.30298  1.0000
  C   C5147     1.0  0.87091  0.74546  0.43626  1.0000
  H   H4120     1.0  0.86306  0.75314  0.44270  1.0000
  C   C5148     1.0  0.50874  0.98242  0.29745  1.0000
  Fe  Fe353     1.0  0.83252  0.94899  0.47361  1.0000
  S   S708      1.0  0.96374  0.67288  0.36859  1.0000
  P   P171      1.0  0.96719  0.84808  0.28928  1.0000
  C   C5149     1.0  0.87945  0.85468  0.32130  1.0000
  C   C5150     1.0  0.81264  0.96965  0.37298  1.0000
  C   C5151     1.0  0.51114  0.93826  0.26647  1.0000
  C   C5152     1.0  0.80844  0.97832  0.30006  1.0000
  C   C5153     1.0  0.50075  0.86394  0.26750  1.0000
  C   C5154     1.0  0.99594  0.74193  0.33716  1.0000
  C   C5155     1.0  0.52065  0.89321  0.27882  1.0000
  C   C5156     1.0  0.99657  0.83112  0.28591  1.0000
  C   C5157     1.0  0.96832  0.84639  0.30811  1.0000
  H   H4121     1.0  0.87296  0.97325  0.40713  1.0000
  C   C5158     1.0  0.83141  0.87188  0.44310  1.0000
  C   C5159     1.0  0.99304  0.79396  0.36718  1.0000
  C   C5160     1.0  0.72013  0.91115  0.46066  1.0000
  C   C5161     1.0  0.93693  0.79275  0.41835  1.0000
  C   C5162     1.0  0.92850  0.69597  0.44400  1.0000
  C   C5163     1.0  0.92225  0.70570  0.43249  1.0000
  C   C5164     1.0  0.88782  0.74088  0.41328  1.0000
  C   C5165     1.0  0.91861  0.72383  0.39514  1.0000
  C   C5166     1.0  0.91413  0.73057  0.38166  1.0000
  C   C5167     1.0  0.92321  0.73838  0.37005  1.0000
  C   C5168     1.0  0.93687  0.73945  0.37177  1.0000
  C   C5169     1.0  0.94137  0.73282  0.38512  1.0000
  C   C5170     1.0  0.93226  0.72515  0.39681  1.0000
  C   C5171     1.0  0.89402  0.68581  0.30317  1.0000
  H   H4122     1.0  0.93248  0.70025  0.45113  1.0000
  H   H4123     1.0  0.92138  0.71745  0.43096  1.0000
  H   H4124     1.0  0.89284  0.74528  0.40201  1.0000
  H   H4125     1.0  0.87397  0.76219  0.41640  1.0000
  H   H4126     1.0  0.90361  0.72982  0.38007  1.0000
  H   H4127     1.0  0.91968  0.74363  0.35971  1.0000
  H   H4128     1.0  0.94388  0.74559  0.36282  1.0000
  H   H4129     1.0  0.95180  0.73391  0.38656  1.0000
  H   H4130     1.0  0.93609  0.72023  0.40697  1.0000
  H   H4131     1.0  0.91717  0.69094  0.27684  1.0000
  H   H4132     1.0  0.92975  0.81618  0.41720  1.0000
  C   C5172     1.0  0.62894  0.94888  0.44071  1.0000
  C   C5173     1.0  0.62053  0.95368  0.45359  1.0000
  C   C5174     1.0  0.62773  0.95473  0.46396  1.0000
  C   C5175     1.0  0.64331  0.95129  0.46130  1.0000
  C   C5176     1.0  0.65185  0.94725  0.44806  1.0000
  C   C5177     1.0  0.64456  0.94550  0.43801  1.0000
  P   P172      1.0  0.67196  0.94299  0.44496  1.0000
  C   C5178     1.0  0.67845  0.95668  0.44951  1.0000
  C   C5179     1.0  0.67695  0.92529  0.45702  1.0000
  C   C5180     1.0  0.67825  0.92459  0.47138  1.0000
  H   H4133     1.0  0.62978  0.98425  0.25848  1.0000
  H   H4134     1.0  0.64218  0.93678  0.24594  1.0000
  C   C5181     1.0  0.68223  0.89843  0.46202  1.0000
  C   C5182     1.0  0.67863  0.91213  0.45251  1.0000
  C   C5183     1.0  0.69300  0.95327  0.45190  1.0000
  H   H4135     1.0  0.96154  0.78512  0.39063  1.0000
  C   C5184     1.0  0.99757  0.71812  0.39549  1.0000
  C   C5185     1.0  0.99095  0.84029  0.36724  1.0000
  C   C5186     1.0  0.66922  0.97070  0.45073  1.0000
  C   C5187     1.0  0.68090  0.94300  0.42588  1.0000
  C   C5188     1.0  0.67497  0.95386  0.41467  1.0000
  H   H4136     1.0  0.94945  0.77124  0.28866  1.0000
  C   C5189     1.0  0.87858  0.69428  0.39996  1.0000
  C   C5190     1.0  0.70159  0.93334  0.40732  1.0000
  C   C5191     1.0  0.69448  0.93300  0.42212  1.0000
  H   H4137     1.0  0.62336  0.94786  0.43277  1.0000
  H   H4138     1.0  0.60844  0.95654  0.45560  1.0000
  H   H4139     1.0  0.62130  0.95839  0.47400  1.0000
  H   H4140     1.0  0.64875  0.95201  0.46951  1.0000
  H   H4141     1.0  0.65086  0.94158  0.42810  1.0000
  H   H4142     1.0  0.67673  0.93459  0.47525  1.0000
  C   C5192     1.0  0.75572  0.97585  0.32721  1.0000
  H   H4143     1.0  0.98261  0.87231  0.27662  1.0000
  H   H4144     1.0  0.68391  0.88829  0.45835  1.0000
  H   H4145     1.0  0.67730  0.91245  0.44161  1.0000
  H   H4146     1.0  0.70044  0.94263  0.45073  1.0000
  H   H4147     1.0  0.97417  0.89868  0.26547  1.0000
  H   H4148     1.0  0.83775  0.95538  0.28225  1.0000
  C   C5193     1.0  0.76107  0.98862  0.39457  1.0000
  H   H4149     1.0  0.65805  0.97377  0.44872  1.0000
  H   H4150     1.0  0.66480  0.96199  0.41740  1.0000
  H   H4151     1.0  0.75060  0.91743  0.48770  1.0000
  C   C5194     1.0  0.88368  0.87111  0.36817  1.0000
  H   H4152     1.0  0.71209  0.92554  0.40456  1.0000
  H   H4153     1.0  0.69973  0.92507  0.43060  1.0000
  H   H4154     1.0  0.97423  0.69443  0.47892  1.0000
  H   H4155     1.0  0.68677  0.88721  0.48350  1.0000
  C   C5195     1.0  0.69142  0.93980  0.30673  1.0000
  C   C5196     1.0  0.69395  0.93017  0.32001  1.0000
  C   C5197     1.0  0.68288  0.92292  0.32928  1.0000
  C   C5198     1.0  0.66893  0.92619  0.32551  1.0000
  P   P173      1.0  0.68577  0.91083  0.34669  1.0000
  C   C5199     1.0  0.68017  0.89368  0.34968  1.0000
  C   C5200     1.0  0.70526  0.90502  0.34755  1.0000
  C   C5201     1.0  0.71584  0.89930  0.33597  1.0000
  C   C5202     1.0  0.73087  0.89407  0.33686  1.0000
  C   C5203     1.0  0.73536  0.89424  0.34944  1.0000
  C   C5204     1.0  0.72484  0.89961  0.36113  1.0000
  C   C5205     1.0  0.70985  0.90499  0.36023  1.0000
  C   C5206     1.0  0.68008  0.88381  0.36343  1.0000
  C   C5207     1.0  0.67620  0.87028  0.36586  1.0000
  C   C5208     1.0  0.67262  0.86639  0.35451  1.0000
  C   C5209     1.0  0.67308  0.87597  0.34068  1.0000
  C   C5210     1.0  0.67698  0.88951  0.33820  1.0000
  C   C5211     1.0  0.67547  0.92141  0.36056  1.0000
  C   C5212     1.0  0.67990  0.93400  0.36082  1.0000
  C   C5213     1.0  0.67226  0.94220  0.37165  1.0000
  C   C5214     1.0  0.66011  0.93795  0.38223  1.0000
  C   C5215     1.0  0.65534  0.92570  0.38176  1.0000
  C   C5216     1.0  0.66291  0.91750  0.37088  1.0000
  C   C5217     1.0  0.83135  0.89272  0.47020  1.0000
  C   C5218     1.0  0.60218  0.88466  0.24822  1.0000
  C   C5219     1.0  0.85299  0.97720  0.39897  1.0000
  H   H4156     1.0  0.70442  0.92871  0.32312  1.0000
  H   H4157     1.0  0.65996  0.92134  0.33288  1.0000
  H   H4158     1.0  0.71248  0.89893  0.32624  1.0000
  H   H4159     1.0  0.74705  0.89053  0.35006  1.0000
  H   H4160     1.0  0.72846  0.89995  0.37075  1.0000
  H   H4161     1.0  0.70196  0.90905  0.36948  1.0000
  H   H4162     1.0  0.68310  0.88657  0.37225  1.0000
  H   H4163     1.0  0.67054  0.87284  0.33181  1.0000
  H   H4164     1.0  0.67770  0.89650  0.32727  1.0000
  H   H4165     1.0  0.68927  0.93748  0.35263  1.0000
  H   H4166     1.0  0.67567  0.95197  0.37174  1.0000
  H   H4167     1.0  0.65427  0.94428  0.39068  1.0000
  H   H4168     1.0  0.64574  0.92262  0.38980  1.0000
  H   H4169     1.0  0.65887  0.90822  0.37056  1.0000
  C   C5220     1.0  0.82350  0.89069  0.37429  1.0000
  H   H4170     1.0  0.95824  0.69855  0.44019  1.0000
  C   C5221     1.0  0.82715  0.90281  0.45777  1.0000
  C   C5222     1.0  0.80535  0.89520  0.48268  1.0000
  C   C5223     1.0  0.64548  0.94424  0.28157  1.0000
  H   H4171     1.0  0.70091  0.94419  0.38474  1.0000
  C   C5224     1.0  0.97100  0.76927  0.29292  1.0000
  H   H4172     1.0  0.87136  0.87646  0.46966  1.0000
  C   C5225     1.0  0.80978  0.87494  0.43314  1.0000
  H   H4173     1.0  0.82226  0.95382  0.32873  1.0000
  C   C5226     1.0  0.88710  0.87369  0.33389  1.0000
  C   C5227     1.0  0.95437  0.83754  0.28912  1.0000
  C   C5228     1.0  0.97663  0.74112  0.40723  1.0000
  C   C5229     1.0  0.56225  0.97853  0.35629  1.0000
  H   H4174     1.0  0.96353  0.87864  0.42201  1.0000
  H   H4175     1.0  0.91016  0.88853  0.37898  1.0000
  H   H4176     1.0  0.73907  0.88996  0.32778  1.0000
  H   H4177     1.0  0.87672  0.84709  0.31650  1.0000
  C   C5230     1.0  0.83000  0.96001  0.29128  1.0000
  H   H4178     1.0  0.62086  0.92574  0.24859  1.0000
  H   H4179     1.0  0.86710  0.69323  0.40395  1.0000
  C   C5231     1.0  0.96630  0.89158  0.26942  1.0000
  H   H4180     1.0  0.78587  0.91513  0.44038  1.0000
  C   C5232     1.0  0.98509  0.80708  0.38720  1.0000
  H   H4181     1.0  0.96873  0.71736  0.36154  1.0000
  H   H4182     1.0  0.82948  0.89155  0.39394  1.0000
  C   C5233     1.0  0.73449  0.97045  0.42575  1.0000
  H   H4183     1.0  0.57608  0.97135  0.37237  1.0000
  C   C5234     1.0  0.88573  0.72077  0.43470  1.0000
  C   C5235     1.0  0.88050  0.88647  0.36725  1.0000
  C   C5236     1.0  0.99701  0.86368  0.43200  1.0000
  C   C5237     1.0  0.85268  0.87382  0.36703  1.0000
  Fe  Fe354     1.0  0.95448  0.67674  0.34873  1.0000
  H   H4184     1.0  0.89634  0.81033  0.36813  1.0000
  C   C5238     1.0  0.66649  0.95255  0.25622  1.0000
  C   C5239     1.0  0.88879  0.86404  0.31259  1.0000
  H   H4185     1.0  0.84009  0.94364  0.30810  1.0000
  S   S709      1.0  0.93208  0.69168  0.34609  1.0000
  H   H4186     1.0  0.65733  0.98430  0.28981  1.0000
  H   H4187     1.0  0.87535  0.80191  0.38728  1.0000
  H   H4188     1.0  0.99066  0.82970  0.45129  1.0000
  C   C5240     1.0  0.95938  0.78217  0.46873  1.0000
  H   H4189     1.0  0.96543  0.80258  0.40325  1.0000
  C   C5241     1.0  0.96666  0.69913  0.39876  1.0000
  C   C5242     1.0  0.66651  0.98738  0.23999  1.0000
  H   H4190     1.0  0.50027  0.92607  0.25862  1.0000
  C   C5243     1.0  0.90271  0.88368  0.37608  1.0000
  H   H4191     1.0  0.81227  0.89734  0.37710  1.0000
  H   H4192     1.0  0.79785  0.87865  0.43379  1.0000
  H   H4193     1.0  0.95002  0.74456  0.29763  1.0000
  H   H4194     1.0  0.52899  0.93976  0.34720  1.0000
  H   H4195     1.0  0.94956  0.81528  0.26947  1.0000
  H   H4196     1.0  0.95245  0.71033  0.34385  1.0000
  H   H4197     1.0  0.84307  0.88820  0.47029  1.0000
  H   H4198     1.0  0.67147  0.92986  0.25405  1.0000
  C   C5244     1.0  0.95919  0.76376  0.29237  1.0000
  H   H4199     1.0  0.85507  0.87638  0.38787  1.0000
  C   C5245     1.0  0.96292  0.74208  0.48076  1.0000
  H   H4200     1.0  0.97600  0.86181  0.36536  1.0000
  C   C5246     1.0  0.84045  0.98770  0.39504  1.0000
  C   C5247     1.0  0.69464  0.97673  0.28765  1.0000
  H   H4201     1.0  0.95329  0.69804  0.46679  1.0000
  H   H4202     1.0  0.90962  0.68395  0.37414  1.0000
  H   H4203     1.0  0.95358  0.70008  0.38338  1.0000
  H   H4204     1.0  0.85124  0.84707  0.38599  1.0000
  H   H4205     1.0  0.90994  0.69085  0.32855  1.0000
  C   C5248     1.0  0.87459  0.81364  0.38270  1.0000
  H   H4206     1.0  0.50305  0.94231  0.30209  1.0000
  H   H4207     1.0  0.89326  0.86373  0.30103  1.0000
  C   C5249     1.0  0.87075  0.82137  0.41956  1.0000
  C   C5250     1.0  0.88443  0.82084  0.40950  1.0000
  C   C5251     1.0  0.89040  0.83338  0.40422  1.0000
  C   C5252     1.0  0.88287  0.84642  0.40924  1.0000
  C   C5253     1.0  0.86929  0.84696  0.41964  1.0000
  C   C5254     1.0  0.86314  0.83440  0.42455  1.0000
  P   P174      1.0  0.86083  0.86266  0.42835  1.0000
  C   C5255     1.0  0.86610  0.85868  0.44596  1.0000
  C   C5256     1.0  0.86686  0.87927  0.41739  1.0000
  C   C5257     1.0  0.85675  0.89149  0.41105  1.0000
  C   C5258     1.0  0.86096  0.90491  0.40425  1.0000
  C   C5259     1.0  0.87529  0.90624  0.40366  1.0000
  C   C5260     1.0  0.88550  0.89409  0.40965  1.0000
  C   C5261     1.0  0.88131  0.88068  0.41655  1.0000
  H   H4208     1.0  0.68413  0.98879  0.39368  1.0000
  C   C5262     1.0  0.53557  0.97820  0.28796  1.0000
  C   C5263     1.0  0.88999  0.89270  0.37120  1.0000
  C   C5264     1.0  0.82279  0.97164  0.35946  1.0000
  C   C5265     1.0  0.53907  0.98787  0.37905  1.0000
  C   C5266     1.0  0.84080  0.86624  0.43093  1.0000
  C   C5267     1.0  0.94592  0.87331  0.27987  1.0000
  H   H4209     1.0  0.93132  0.66619  0.33463  1.0000
  C   C5268     1.0  0.96409  0.68234  0.30270  1.0000
  C   C5269     1.0  0.81902  0.86908  0.42113  1.0000
  C   C5270     1.0  0.83448  0.86469  0.42004  1.0000
  H   H4210     1.0  0.86639  0.81146  0.42387  1.0000
  H   H4211     1.0  0.89062  0.81054  0.40619  1.0000
  H   H4212     1.0  0.90130  0.83274  0.39688  1.0000
  H   H4213     1.0  0.88814  0.85569  0.40563  1.0000
  H   H4214     1.0  0.85287  0.83444  0.43283  1.0000
  H   H4215     1.0  0.84544  0.89095  0.41176  1.0000
  H   H4216     1.0  0.85292  0.91442  0.39987  1.0000
  H   H4217     1.0  0.87843  0.91675  0.39883  1.0000
  H   H4218     1.0  0.89654  0.89520  0.40940  1.0000
  H   H4219     1.0  0.88920  0.87159  0.42172  1.0000
  C   C5271     1.0  0.54688  0.91964  0.25928  1.0000
  C   C5272     1.0  0.90603  0.70364  0.48019  1.0000
  H   H4220     1.0  0.84635  0.87326  0.34727  1.0000
  H   H4221     1.0  0.52631  0.94939  0.31545  1.0000
  C   C5273     1.0  0.78017  0.95771  0.33889  1.0000
  H   H4222     1.0  0.73687  0.96967  0.44757  1.0000
  H   H4223     1.0  0.98025  0.72639  0.44530  1.0000
  H   H4224     1.0  0.84070  0.97201  0.48240  1.0000
  H   H4225     1.0  0.81421  0.86830  0.41249  1.0000
  H   H4226     1.0  0.84153  0.86049  0.41050  1.0000
  C   C5274     1.0  0.55345  0.98143  0.38164  1.0000
  C   C5275     1.0  0.87395  0.85478  0.33630  1.0000
  C   C5276     1.0  0.63589  0.98856  0.39429  1.0000
  H   H4227     1.0  0.76255  0.89419  0.48250  1.0000
  C   C5277     1.0  0.60555  0.97369  0.34824  1.0000
  H   H4228     1.0  0.96692  0.84681  0.46018  1.0000
  C   C5278     1.0  0.96062  0.69749  0.30240  1.0000
  H   H4229     1.0  0.99598  0.87529  0.36019  1.0000
  C   C5279     1.0  0.95990  0.73574  0.45928  1.0000
  H   H4230     1.0  0.97552  0.67604  0.30209  1.0000
  H   H4231     1.0  0.96879  0.86935  0.30561  1.0000
  S   S710      1.0  0.82885  0.96972  0.45635  1.0000
  H   H4232     1.0  0.81613  0.96813  0.38321  1.0000
  H   H4233     1.0  0.91004  0.71478  0.33394  1.0000
  H   H4234     1.0  0.67610  0.86274  0.37651  1.0000
  Fe  Fe355     1.0  0.83135  0.95483  0.44111  1.0000
  C   C5280     1.0  0.92835  0.66945  0.28756  1.0000
  H   H4235     1.0  0.99026  0.80597  0.44662  1.0000
  H   H4236     1.0  0.98849  0.90965  0.46931  1.0000
  H   H4237     1.0  0.93401  0.67328  0.45552  1.0000
  C   C5281     1.0  0.53298  0.95645  0.24819  1.0000
  C   C5282     1.0  0.98315  0.75972  0.29858  1.0000
  H   H4238     1.0  0.99528  0.90072  0.42510  1.0000
  H   H4239     1.0  0.63594  0.96677  0.36303  1.0000
  S   S711      1.0  0.86576  0.98421  0.44389  1.0000
  H   H4240     1.0  0.52095  0.98275  0.32361  1.0000
  H   H4241     1.0  0.99749  0.72214  0.28583  1.0000
  H   H4242     1.0  0.94182  0.74561  0.47507  1.0000
  H   H4243     1.0  0.79803  0.93772  0.47047  1.0000
  S   S712      1.0  0.91494  0.65929  0.48217  1.0000
  C   C5283     1.0  0.67774  0.94249  0.30273  1.0000
  H   H4244     1.0  0.55556  0.97984  0.39253  1.0000
  H   H4245     1.0  0.96934  0.70289  0.30179  1.0000
  C   C5284     1.0  0.61930  0.98725  0.36133  1.0000
  H   H4246     1.0  0.69218  0.98494  0.46161  1.0000
  H   H4247     1.0  0.74618  0.98287  0.32281  1.0000
  H   H4248     1.0  0.76396  0.97793  0.40172  1.0000
  H   H4249     1.0  0.94314  0.71730  0.30314  1.0000
  C   C5285     1.0  0.97612  0.72641  0.41392  1.0000
  C   C5286     1.0  0.87083  0.86736  0.46535  1.0000
  C   C5287     1.0  0.95138  0.89741  0.26836  1.0000
  H   H4250     1.0  0.71129  0.90820  0.48406  1.0000
  C   C5288     1.0  0.65414  0.93383  0.27316  1.0000
  H   H4251     1.0  0.85416  0.96565  0.39913  1.0000
  H   H4252     1.0  0.83198  0.98407  0.39231  1.0000
  H   H4253     1.0  0.87894  0.85047  0.48298  1.0000
  C   C5289     1.0  0.97089  0.79041  0.38604  1.0000
  H   H4254     1.0  0.71164  0.97183  0.26862  1.0000
  C   C5290     1.0  0.73366  0.93061  0.44980  1.0000
  C   C5291     1.0  0.98973  0.78938  0.42658  1.0000
  P   P175      1.0  0.87163  0.86333  0.36241  1.0000
  C   C5292     1.0  0.87512  0.85276  0.47281  1.0000
  C   C5293     1.0  0.66645  0.93579  0.31219  1.0000
  H   H4255     1.0  0.97997  0.77973  0.47536  1.0000
  Fe  Fe356     1.0  0.94293  0.87644  0.41118  1.0000
  S   S713      1.0  0.93701  0.89892  0.41660  1.0000
  Fe  Fe357     1.0  0.96380  0.84645  0.41008  1.0000
  C   C5294     1.0  0.72029  0.98863  0.44023  1.0000
  H   H4256     1.0  0.95032  0.73754  0.33441  1.0000
  C   C5295     1.0  0.93636  0.66260  0.25949  1.0000
  C   C5296     1.0  0.97837  0.73710  0.47681  1.0000
  H   H4257     1.0  0.69364  0.97442  0.25334  1.0000
  C   C5297     1.0  0.79326  0.97210  0.36014  1.0000
  C   C5298     1.0  0.73069  0.93418  0.46372  1.0000
  C   C5299     1.0  0.94570  0.77945  0.42453  1.0000
  H   H4258     1.0  0.94585  0.76919  0.42188  1.0000
  C   C5300     1.0  0.76505  0.89657  0.47057  1.0000
  C   C5301     1.0  0.95747  0.82924  0.27826  1.0000
  H   H4259     1.0  0.96802  0.82814  0.27040  1.0000
  H   H4260     1.0  0.82067  0.88806  0.35382  1.0000
  P   P176      1.0  0.90687  0.71339  0.40984  1.0000
  C   C5302     1.0  0.94505  0.80583  0.43184  1.0000
  H   H4261     1.0  0.94493  0.81624  0.43410  1.0000
  H   H4262     1.0  0.89175  0.88291  0.44572  1.0000
  H   H4263     1.0  0.89994  0.88071  0.31219  1.0000
  S   S714      1.0  0.85607  0.95168  0.43329  1.0000
  C   C5303     1.0  0.91673  0.70039  0.42334  1.0000
  H   H4264     1.0  0.97047  0.78104  0.28949  1.0000
  Fe  Fe358     1.0  0.92440  0.74553  0.45607  1.0000
  H   H4265     1.0  0.73469  0.94314  0.46492  1.0000
  C   C5304     1.0  0.91141  0.81405  0.46731  1.0000
  C   C5305     1.0  0.95290  0.81890  0.45806  1.0000
  S   S715      1.0  0.94532  0.85509  0.42801  1.0000
  C   C5306     1.0  0.87788  0.86416  0.34277  1.0000
  H   H4266     1.0  0.88455  0.70578  0.33569  1.0000
  C   C5307     1.0  0.67932  0.98013  0.29359  1.0000
  C   C5308     1.0  0.97305  0.80026  0.39312  1.0000
  H   H4267     1.0  0.89659  0.81724  0.43276  1.0000
  H   H4268     1.0  0.78083  0.97474  0.43853  1.0000
  C   C5309     1.0  0.95360  0.79242  0.43837  1.0000
  C   C5310     1.0  0.95379  0.77923  0.43467  1.0000
  C   C5311     1.0  0.52061  0.89846  0.29100  1.0000
  S   S716      1.0  0.83217  0.93451  0.45914  1.0000
  C   C5312     1.0  0.88562  0.83343  0.36628  1.0000
  H   H4269     1.0  0.91973  0.83167  0.30674  1.0000
  C   C5313     1.0  0.78080  0.96366  0.44502  1.0000
  C   C5314     1.0  0.79786  0.96996  0.37328  1.0000
  C   C5315     1.0  0.96855  0.77848  0.47895  1.0000
  Fe  Fe359     1.0  0.93039  0.84941  0.41717  1.0000
  H   H4270     1.0  0.66966  0.85588  0.35638  1.0000
  H   H4271     1.0  0.97061  0.86658  0.33125  1.0000
  Fe  Fe360     1.0  0.85387  0.96544  0.44956  1.0000
  H   H4272     1.0  0.93819  0.84434  0.30813  1.0000
  C   C5316     1.0  0.93140  0.71073  0.33945  1.0000
  C   C5317     1.0  0.78110  0.93470  0.46123  1.0000
  C   C5318     1.0  0.75555  0.98982  0.38215  1.0000
  H   H4273     1.0  0.86498  0.70794  0.32226  1.0000
  S   S717      1.0  0.71434  0.97360  0.48103  1.0000
  C   C5319     1.0  0.91031  0.91626  0.42820  1.0000
  C   C5320     1.0  0.91848  0.90195  0.42673  1.0000
  H   H4274     1.0  0.89329  0.79657  0.45390  1.0000
  C   C5321     1.0  0.88767  0.68773  0.38829  1.0000
  H   H4275     1.0  0.99567  0.85521  0.39579  1.0000
  C   C5322     1.0  0.89253  0.87360  0.31887  1.0000
  C   C5323     1.0  0.55732  0.90610  0.25950  1.0000
  Fe  Fe361     1.0  0.85695  0.93232  0.45247  1.0000
  C   C5324     1.0  0.90251  0.68899  0.38321  1.0000
  C   C5325     1.0  0.91170  0.88998  0.43314  1.0000
  H   H4276     1.0  0.91787  0.87890  0.43214  1.0000
  H   H4277     1.0  0.76378  0.96120  0.43591  1.0000
  H   H4278     1.0  0.79776  0.96312  0.45606  1.0000
  C   C5326     1.0  0.94698  0.82196  0.27763  1.0000
  C   C5327     1.0  0.84283  0.87710  0.35751  1.0000
  C   C5328     1.0  0.80337  0.97400  0.34653  1.0000
  H   H4279     1.0  0.89050  0.88091  0.33855  1.0000
  C   C5329     1.0  0.67411  0.98042  0.27019  1.0000
  C   C5330     1.0  0.98672  0.71476  0.40824  1.0000
  C   C5331     1.0  0.83321  0.88739  0.38383  1.0000
  C   C5332     1.0  0.89911  0.70364  0.40132  1.0000
  S   S718      1.0  0.97597  0.67935  0.33294  1.0000
  C   C5333     1.0  0.56078  0.96041  0.32721  1.0000
  H   H4280     1.0  0.82592  0.97634  0.33587  1.0000
  C   C5334     1.0  0.89529  0.91858  0.43588  1.0000
  H   H4281     1.0  0.88897  0.92964  0.43691  1.0000
  C   C5335     1.0  0.72234  0.92625  0.47603  1.0000
  S   S719      1.0  0.98455  0.82996  0.41554  1.0000
  H   H4282     1.0  0.91279  0.68074  0.41955  1.0000
  C   C5336     1.0  0.96676  0.83624  0.45838  1.0000
  C   C5337     1.0  0.75859  0.89008  0.46329  1.0000
  H   H4283     1.0  0.87079  0.89369  0.36330  1.0000
  C   C5338     1.0  0.97409  0.87812  0.42443  1.0000
  C   C5339     1.0  0.88854  0.90655  0.44220  1.0000
  C   C5340     1.0  0.77117  0.95595  0.44350  1.0000
  C   C5341     1.0  0.79030  0.95711  0.45489  1.0000
  P   P177      1.0  0.96567  0.79168  0.45017  1.0000
  C   C5342     1.0  0.95662  0.69445  0.39388  1.0000
  H   H4284     1.0  0.87095  0.69481  0.30174  1.0000
  C   C5343     1.0  0.98359  0.78249  0.44088  1.0000
  C   C5344     1.0  0.89683  0.89226  0.44089  1.0000
  S   S720      1.0  0.59278  0.97960  0.27336  1.0000
  H   H4285     1.0  0.56445  0.90226  0.26744  1.0000
  S   S721      1.0  0.64092  0.97752  0.48178  1.0000
  H   H4286     1.0  0.96997  0.82076  0.34032  1.0000
  P   P178      1.0  0.51083  0.87821  0.26391  1.0000
  C   C5345     1.0  0.81595  0.87623  0.44419  1.0000
  H   H4287     1.0  0.56986  0.96590  0.32159  1.0000
  Fe  Fe362     1.0  0.98587  0.67354  0.35298  1.0000
  H   H4288     1.0  0.93715  0.78353  0.46608  1.0000
  S   S722      1.0  0.88288  0.76684  0.46459  1.0000
  C   C5346     1.0  0.99026  0.76782  0.44659  1.0000
  C   C5347     1.0  0.90077  0.81640  0.44232  1.0000
  C   C5348     1.0  0.98211  0.69523  0.43689  1.0000
  C   C5349     1.0  0.86113  0.83922  0.38199  1.0000
  H   H4289     1.0  0.57122  0.97441  0.34769  1.0000
  C   C5350     1.0  0.98375  0.74450  0.30330  1.0000
  H   H4290     1.0  0.97114  0.90173  0.41956  1.0000
  H   H4291     1.0  0.97577  0.73455  0.37220  1.0000
  P   P179      1.0  0.79664  0.97940  0.32964  1.0000
  C   C5351     1.0  0.77186  0.90161  0.43974  1.0000
  C   C5352     1.0  0.83136  0.95343  0.30583  1.0000
  S   S723      1.0  0.90901  0.84199  0.42753  1.0000
  C   C5353     1.0  0.94457  0.78056  0.47368  1.0000
  H   H4292     1.0  0.88752  0.90453  0.37048  1.0000
  C   C5354     1.0  0.89896  0.80463  0.45433  1.0000
  C   C5355     1.0  0.65760  0.96311  0.26449  1.0000
  H   H4293     1.0  0.98509  0.80489  0.48214  1.0000
  C   C5356     1.0  0.98894  0.84592  0.26339  1.0000
  H   H4294     1.0  0.51106  0.89862  0.31396  1.0000
  Fe  Fe363     1.0  0.89311  0.74255  0.47129  1.0000
  C   C5357     1.0  0.56501  0.97668  0.37028  1.0000
  C   C5358     1.0  0.77109  0.94161  0.45177  1.0000
  H   H4295     1.0  0.70902  0.96058  0.45841  1.0000
  H   H4296     1.0  0.97885  0.71600  0.33543  1.0000
  H   H4297     1.0  0.76328  0.93598  0.45067  1.0000
  C   C5359     1.0  0.95278  0.67516  0.30424  1.0000
  H   H4298     1.0  0.91577  0.86142  0.38088  1.0000
  Fe  Fe364     1.0  0.90262  0.76996  0.47076  1.0000
  C   C5360     1.0  0.54191  0.86730  0.25969  1.0000
  C   C5361     1.0  0.50238  0.93889  0.29253  1.0000
  H   H4299     1.0  0.65259  0.92259  0.27642  1.0000
  H   H4300     1.0  0.79934  0.98769  0.29770  1.0000
  C   C5362     1.0  0.69794  0.96345  0.45619  1.0000
  C   C5363     1.0  0.87520  0.73056  0.44288  1.0000
  C   C5364     1.0  0.91725  0.68517  0.42615  1.0000
  Fe  Fe365     1.0  0.66091  0.98415  0.36121  1.0000
  C   C5365     1.0  0.90826  0.69680  0.38976  1.0000
  H   H4301     1.0  0.85282  0.82039  0.39606  1.0000
  H   H4302     1.0  0.79634  0.95925  0.48423  1.0000
  H   H4303     1.0  0.87838  0.82976  0.47261  1.0000
  H   H4304     1.0  0.96772  0.82315  0.31476  1.0000
  C   C5366     1.0  0.95371  0.74160  0.47194  1.0000
  S   S724      1.0  0.85751  0.94559  0.46807  1.0000
  C   C5367     1.0  0.90806  0.82696  0.44257  1.0000
  H   H4305     1.0  0.60185  0.98924  0.38754  1.0000
  C   C5368     1.0  0.90591  0.86843  0.37708  1.0000
  H   H4306     1.0  0.64049  0.96673  0.28396  1.0000
  H   H4307     1.0  0.97145  0.70823  0.39176  1.0000
  H   H4308     1.0  0.65864  0.98693  0.40545  1.0000
  H   H4309     1.0  0.91548  0.81313  0.47702  1.0000
  C   C5369     1.0  0.86354  0.98146  0.40353  1.0000
  C   C5370     1.0  0.52911  0.87078  0.25380  1.0000
  S   S725      1.0  0.86978  0.90890  0.45168  1.0000
  H   H4310     1.0  0.97999  0.85438  0.42960  1.0000
  C   C5371     1.0  0.93460  0.69853  0.30420  1.0000
  C   C5372     1.0  0.96992  0.83124  0.33255  1.0000
  C   C5373     1.0  0.95550  0.67446  0.41535  1.0000
  H   H4311     1.0  0.94236  0.81582  0.46027  1.0000
  C   C5374     1.0  0.79048  0.94267  0.46297  1.0000
  C   C5375     1.0  0.86193  0.82407  0.38766  1.0000
  H   H4312     1.0  0.83414  0.97175  0.35927  1.0000
  H   H4313     1.0  0.78951  0.95055  0.34352  1.0000
  C   C5376     1.0  0.98011  0.82662  0.45339  1.0000
  H   H4314     1.0  0.52753  0.89695  0.26821  1.0000
  H   H4315     1.0  0.89969  0.85042  0.37330  1.0000
  C   C5377     1.0  0.96855  0.83270  0.31811  1.0000
  H   H4316     1.0  0.70001  0.94540  0.29973  1.0000
  C   C5378     1.0  0.53801  0.92490  0.24865  1.0000
  H   H4317     1.0  0.92591  0.68598  0.47797  1.0000
  Fe  Fe366     1.0  0.73655  0.97810  0.47896  1.0000
  H   H4318     1.0  0.77453  0.90360  0.42780  1.0000
  C   C5379     1.0  0.97642  0.69471  0.46722  1.0000
  C   C5380     1.0  0.68952  0.97644  0.26442  1.0000
  C   C5381     1.0  0.76185  0.89275  0.44787  1.0000
  C   C5382     1.0  0.96922  0.85859  0.31289  1.0000
  C   C5383     1.0  0.77825  0.90817  0.44695  1.0000
  H   H4319     1.0  0.75649  0.88813  0.44220  1.0000
  C   C5384     1.0  0.97984  0.81321  0.45058  1.0000
  H   H4320     1.0  0.60669  0.87282  0.25006  1.0000
  C   C5385     1.0  0.87617  0.70149  0.31899  1.0000
  C   C5386     1.0  0.82827  0.88549  0.36117  1.0000
  H   H4321     1.0  0.89480  0.83688  0.35786  1.0000
  C   C5387     1.0  0.96533  0.67925  0.42040  1.0000
  H   H4322     1.0  0.88904  0.70931  0.44015  1.0000
  C   C5388     1.0  0.93327  0.82307  0.28772  1.0000
  C   C5389     1.0  0.86628  0.87032  0.45201  1.0000
  C   C5390     1.0  0.98092  0.78724  0.37310  1.0000
  H   H4323     1.0  0.93781  0.86651  0.28390  1.0000
  C   C5391     1.0  0.87299  0.84400  0.37117  1.0000
  C   C5392     1.0  0.90429  0.80337  0.46683  1.0000
  H   H4324     1.0  0.56728  0.88744  0.24902  1.0000
  C   C5393     1.0  0.95102  0.68214  0.40219  1.0000
  C   C5394     1.0  0.97087  0.84339  0.33715  1.0000
  H   H4325     1.0  0.52049  0.94821  0.27852  1.0000
  H   H4326     1.0  0.99286  0.75039  0.35659  1.0000
  C   C5395     1.0  0.81209  0.90956  0.45800  1.0000
  C   C5396     1.0  0.81813  0.97406  0.34626  1.0000
  H   H4327     1.0  0.75082  0.88323  0.46959  1.0000
  C   C5397     1.0  0.68166  0.91089  0.48092  1.0000
  S   S726      1.0  0.95856  0.66243  0.47291  1.0000
  C   C5398     1.0  0.76774  0.95216  0.34025  1.0000
  C   C5399     1.0  0.53628  0.98975  0.36505  1.0000
  C   C5400     1.0  0.88717  0.70030  0.32654  1.0000
  H   H4328     1.0  0.52479  0.99069  0.25589  1.0000
  H   H4329     1.0  0.56581  0.85879  0.25605  1.0000
  H   H4330     1.0  0.91983  0.69759  0.38570  1.0000
  C   C5401     1.0  0.53576  0.96040  0.34192  1.0000
  C   C5402     1.0  0.90160  0.69194  0.32238  1.0000
  C   C5403     1.0  0.55156  0.93796  0.33450  1.0000
  C   C5404     1.0  0.54705  0.96808  0.33436  1.0000
  C   C5405     1.0  0.99225  0.73205  0.33109  1.0000
  C   C5406     1.0  0.94070  0.83831  0.29942  1.0000
  H   H4331     1.0  0.54125  0.86926  0.27040  1.0000
  P   P180      1.0  0.54454  0.98705  0.33547  1.0000
  C   C5407     1.0  0.66912  0.98195  0.28491  1.0000
  H   H4332     1.0  0.91211  0.71224  0.47753  1.0000
  H   H4333     1.0  0.88327  0.68164  0.38319  1.0000
  H   H4334     1.0  0.80901  0.91780  0.44854  1.0000
  S   S727      1.0  0.99578  0.68839  0.36013  1.0000
  H   H4335     1.0  0.91864  0.83427  0.45545  1.0000
  H   H4336     1.0  0.87711  0.70714  0.41556  1.0000
  H   H4337     1.0  0.97131  0.84237  0.34849  1.0000
  C   C5408     1.0  0.91338  0.82585  0.45510  1.0000
  H   H4338     1.0  0.87057  0.83477  0.44923  1.0000
  H   H4339     1.0  0.76751  0.94084  0.34592  1.0000
  C   C5409     1.0  0.91384  0.68881  0.48034  1.0000
  C   C5410     1.0  0.77442  0.90619  0.46241  1.0000
  H   H4340     1.0  0.52522  0.96595  0.34784  1.0000
  C   C5411     1.0  0.55894  0.89775  0.24912  1.0000
  C   C5412     1.0  0.97043  0.85708  0.32738  1.0000
  H   H4341     1.0  0.99475  0.78072  0.33008  1.0000
  H   H4342     1.0  0.98540  0.76209  0.45734  1.0000
  C   C5413     1.0  0.97091  0.69167  0.41220  1.0000
  C   C5414     1.0  0.94588  0.70558  0.30316  1.0000
  H   H4343     1.0  0.89630  0.67983  0.29449  1.0000
  C   C5415     1.0  0.92919  0.68084  0.44657  1.0000
  C   C5416     1.0  0.71742  0.91453  0.47451  1.0000
  C   C5417     1.0  0.87030  0.84403  0.45363  1.0000
  C   C5418     1.0  0.98749  0.85573  0.36483  1.0000
  C   C5419     1.0  0.99207  0.89050  0.42624  1.0000
  H   H4344     1.0  0.83565  0.90591  0.44820  1.0000
  C   C5420     1.0  0.52119  0.98699  0.28771  1.0000
  H   H4345     1.0  0.74582  0.95698  0.33573  1.0000
  H   H4346     1.0  0.79998  0.98758  0.44089  1.0000
  S   S728      1.0  0.91159  0.74588  0.47924  1.0000
  H   H4347     1.0  0.92963  0.89281  0.27280  1.0000
  C   C5421     1.0  0.67422  0.98083  0.45508  1.0000
  P   P181      1.0  0.78189  0.91587  0.47132  1.0000
  C   C5422     1.0  0.87478  0.84111  0.46700  1.0000
  H   H4348     1.0  0.86322  0.88175  0.44632  1.0000
  C   C5423     1.0  0.96465  0.69658  0.46042  1.0000
  C   C5424     1.0  0.87956  0.69415  0.30739  1.0000
  C   C5425     1.0  0.59902  0.98812  0.35037  1.0000
  H   H4349     1.0  0.63262  0.97199  0.41426  1.0000
  H   H4350     1.0  0.92378  0.68461  0.25225  1.0000
  C   C5426     1.0  0.73105  0.97560  0.43874  1.0000
  C   C5427     1.0  0.54795  0.98543  0.35345  1.0000
  C   C5428     1.0  0.98336  0.86442  0.42883  1.0000
  C   C5429     1.0  0.95316  0.83233  0.46082  1.0000
  H   H4351     1.0  0.78169  0.97269  0.36062  1.0000
  H   H4352     1.0  0.80877  0.88087  0.45345  1.0000
  H   H4353     1.0  0.57370  0.93946  0.32204  1.0000
  H   H4354     1.0  0.99663  0.72763  0.46079  1.0000
  C   C5430     1.0  0.78039  0.97243  0.33177  1.0000
  H   H4355     1.0  0.94359  0.67822  0.39821  1.0000
  C   C5431     1.0  0.99097  0.69362  0.45880  1.0000
  H   H4356     1.0  0.99290  0.88922  0.45669  1.0000
  C   C5432     1.0  0.68218  0.95432  0.39988  1.0000
  H   H4357     1.0  0.94277  0.83978  0.46463  1.0000
  C   C5433     1.0  0.80114  0.90614  0.47063  1.0000
  H   H4358     1.0  0.92337  0.70514  0.30437  1.0000
  H   H4359     1.0  0.51280  0.97036  0.25844  1.0000
  C   C5434     1.0  0.63026  0.98367  0.40938  1.0000
  C   C5435     1.0  0.62561  0.97272  0.35951  1.0000
  S   S729      1.0  0.66425  0.97295  0.34253  1.0000
  C   C5436     1.0  0.94121  0.88828  0.27357  1.0000
  C   C5437     1.0  0.96748  0.69678  0.44534  1.0000
  C   C5438     1.0  0.97627  0.72428  0.35472  1.0000
  C   C5439     1.0  0.53794  0.94547  0.34177  1.0000
  C   C5440     1.0  0.56304  0.94538  0.32742  1.0000
  H   H4360     1.0  0.83602  0.87321  0.45160  1.0000
  H   H4361     1.0  0.99824  0.81833  0.34097  1.0000
  H   H4362     1.0  0.67487  0.95553  0.24653  1.0000
  C   C5441     1.0  0.82133  0.95935  0.31751  1.0000
  C   C5442     1.0  0.75551  0.96124  0.33449  1.0000
  S   S730      1.0  0.64785  0.97559  0.38392  1.0000
  H   H4363     1.0  0.62380  0.95476  0.35134  1.0000
  P   P182      1.0  0.52412  0.94200  0.24908  1.0000
  S   S731      1.0  0.98310  0.79544  0.30350  1.0000
  C   C5443     1.0  0.99879  0.86334  0.36170  1.0000
  H   H4364     1.0  0.67530  0.98115  0.30501  1.0000
  H   H4365     1.0  0.67758  0.96283  0.39131  1.0000
  C   C5444     1.0  0.53123  0.98095  0.25164  1.0000
  H   H4366     1.0  0.60061  0.96859  0.34260  1.0000
  C   C5445     1.0  0.72703  0.97814  0.41433  1.0000
  C   C5446     1.0  0.99008  0.74271  0.35197  1.0000
  C   C5447     1.0  0.68380  0.89781  0.47619  1.0000
  P   P183      1.0  0.92382  0.67389  0.30555  1.0000
  C   C5448     1.0  0.71756  0.97248  0.37349  1.0000
  S   S732      1.0  0.98953  0.73877  0.48771  1.0000
  Fe  Fe367     1.0  0.68749  0.97658  0.33644  1.0000
  H   H4367     1.0  0.73026  0.97400  0.40432  1.0000
  C   C5449     1.0  0.98215  0.72343  0.33992  1.0000
  C   C5450     1.0  0.61870  0.96591  0.35304  1.0000
  H   H4368     1.0  0.98798  0.75572  0.38944  1.0000
  H   H4369     1.0  0.70891  0.97151  0.39665  1.0000
  C   C5451     1.0  0.81004  0.97208  0.31466  1.0000
  H   H4370     1.0  0.67577  0.94998  0.29246  1.0000
  C   C5452     1.0  0.98467  0.73139  0.46402  1.0000
  C   C5453     1.0  0.50188  0.88501  0.30597  1.0000
  C   C5454     1.0  0.61499  0.98339  0.30247  1.0000
  S   S733      1.0  0.68494  0.98549  0.35654  1.0000
  H   H4371     1.0  0.71790  0.96103  0.37437  1.0000
  C   C5455     1.0  0.69975  0.97479  0.27309  1.0000
  C   C5456     1.0  0.55586  0.86115  0.25169  1.0000
  C   C5457     1.0  0.98755  0.74433  0.39462  1.0000
  C   C5458     1.0  0.99377  0.69424  0.44363  1.0000
  C   C5459     1.0  0.51216  0.94238  0.27903  1.0000
  H   H4372     1.0  0.64603  0.97053  0.32506  1.0000
  H   H4373     1.0  0.70250  0.97529  0.29448  1.0000
  C   C5460     1.0  0.63730  0.97424  0.31891  1.0000
  C   C5461     1.0  0.66470  0.93797  0.26052  1.0000
  C   C5462     1.0  0.64722  0.95882  0.27728  1.0000
  C   C5463     1.0  0.71259  0.97847  0.38611  1.0000
  C   C5464     1.0  0.53040  0.86749  0.24015  1.0000
  S   S734      1.0  0.55083  0.98509  0.27606  1.0000
  C   C5465     1.0  0.82045  0.88866  0.48253  1.0000
  C   C5466     1.0  0.89036  0.70726  0.48354  1.0000
  H   H4374     1.0  0.72672  0.97634  0.35014  1.0000
  C   C5467     1.0  0.59027  0.91521  0.24399  1.0000
  C   C5468     1.0  0.98554  0.84115  0.27882  1.0000
  C   C5469     1.0  0.88257  0.69611  0.48676  1.0000
  C   C5470     1.0  0.50127  0.89498  0.25352  1.0000
  H   H4375     1.0  0.81726  0.97733  0.27714  1.0000
  C   C5471     1.0  0.51126  0.89433  0.30459  1.0000
  C   C5472     1.0  0.54793  0.95572  0.24081  1.0000
  S   S735      1.0  0.74925  0.98883  0.45783  1.0000
  H   H4376     1.0  0.60646  0.98695  0.29605  1.0000
  C   C5473     1.0  0.89033  0.68149  0.48633  1.0000
  S   S736      1.0  0.88011  0.72546  0.48429  1.0000
  C   C5474     1.0  0.50193  0.87972  0.29378  1.0000
  C   C5475     1.0  0.51161  0.88350  0.28020  1.0000
  C   C5476     1.0  0.83498  0.98333  0.48312  1.0000
  C   C5477     1.0  0.99795  0.73282  0.38871  1.0000
  P   P184      1.0  0.99871  0.73209  0.31164  1.0000
  C   C5478     1.0  0.93903  0.77542  0.48869  1.0000
  C   C5479     1.0  0.54621  0.98000  0.24461  1.0000
  C   C5480     1.0  0.76816  0.98141  0.32573  1.0000
  C   C5481     1.0  0.50898  0.90301  0.24078  1.0000
  H   H4377     1.0  0.61869  0.99010  0.43008  1.0000
  H   H4378     1.0  0.59460  0.98927  0.41397  1.0000
  C   C5482     1.0  0.50369  0.85107  0.27836  1.0000
  C   C5483     1.0  0.63322  0.98918  0.31226  1.0000
  H   H4379     1.0  0.93395  0.71348  0.48828  1.0000
  C   C5484     1.0  0.81960  0.98680  0.48868  1.0000
  H   H4380     1.0  0.88418  0.67301  0.48847  1.0000
  C   C5485     1.0  0.55448  0.96747  0.23907  1.0000
  C   C5486     1.0  0.54493  0.97687  0.61873  1.0000
  C   C5487     1.0  0.60358  0.95838  0.51946  1.0000
  H   H4381     1.0  0.79705  0.89206  0.49238  1.0000
  H   H4382     1.0  0.95371  0.71681  0.49825  1.0000
  H   H4383     1.0  0.52355  0.96552  0.58126  1.0000
  C   C5488     1.0  0.93669  0.66987  0.53855  1.0000
  H   H4384     1.0  0.64978  0.96907  0.57745  1.0000
  S   S737      1.0  0.71746  0.93078  0.49344  1.0000
  C   C5489     1.0  0.90806  0.69976  0.58134  1.0000
  H   H4385     1.0  0.53001  0.87915  0.68851  1.0000
  H   H4386     1.0  0.95872  0.79212  0.53432  1.0000
  C   C5490     1.0  0.50379  0.95770  0.61342  1.0000
  C   C5491     1.0  0.67599  0.97680  0.49780  1.0000
  H   H4387     1.0  0.94931  0.66596  0.58132  1.0000
  H   H4388     1.0  0.59234  0.93816  0.58701  1.0000
  C   C5492     1.0  0.98774  0.66204  0.50944  1.0000
  C   C5493     1.0  0.53460  0.98906  0.61267  1.0000
  H   H4389     1.0  0.97747  0.69996  0.50607  1.0000
  C   C5494     1.0  0.50524  0.86673  0.71913  1.0000
  H   H4390     1.0  0.60913  0.97219  0.61051  1.0000
  H   H4391     1.0  0.98610  0.78319  0.52756  1.0000
  C   C5495     1.0  0.61053  0.96956  0.51874  1.0000
  H   H4392     1.0  0.67248  0.97889  0.53859  1.0000
  Fe  Fe368     1.0  0.73822  0.96433  0.51021  1.0000
  H   H4393     1.0  0.61323  0.90444  0.56238  1.0000
  S   S738      1.0  0.75299  0.95908  0.52634  1.0000
  C   C5496     1.0  0.50421  0.85846  0.69791  1.0000
  Fe  Fe369     1.0  0.53573  0.95856  0.69366  1.0000
  S   S739      1.0  0.57659  0.96137  0.67427  1.0000
  H   H4394     1.0  0.54984  0.95616  0.58340  1.0000
  S   S740      1.0  0.71580  0.95864  0.51590  1.0000
  P   P185      1.0  0.57801  0.95325  0.56148  1.0000
  C   C5497     1.0  0.50643  0.93613  0.58882  1.0000
  C   C5498     1.0  0.54909  0.97683  0.63161  1.0000
  H   H4395     1.0  0.56716  0.98166  0.57042  1.0000
  H   H4396     1.0  0.76917  0.96482  0.49544  1.0000
  H   H4397     1.0  0.52858  0.90828  0.72829  1.0000
  H   H4398     1.0  0.50571  0.97785  0.67744  1.0000
  H   H4399     1.0  0.91919  0.68668  0.50975  1.0000
  C   C5499     1.0  0.52865  0.97058  0.55752  1.0000
  C   C5500     1.0  0.92092  0.67700  0.57293  1.0000
  H   H4400     1.0  0.51377  0.97541  0.63392  1.0000
  C   C5501     1.0  0.52000  0.91430  0.60315  1.0000
  H   H4401     1.0  0.99817  0.80826  0.51864  1.0000
  H   H4402     1.0  0.55998  0.93058  0.57396  1.0000
  H   H4403     1.0  0.68598  0.96879  0.50025  1.0000
  H   H4404     1.0  0.56696  0.90336  0.57899  1.0000
  C   C5502     1.0  0.51467  0.97416  0.73546  1.0000
  H   H4405     1.0  0.91504  0.66159  0.51393  1.0000
  H   H4406     1.0  0.51481  0.92842  0.66848  1.0000
  C   C5503     1.0  0.59776  0.97103  0.54397  1.0000
  C   C5504     1.0  0.97944  0.69618  0.54162  1.0000
  C   C5505     1.0  0.94812  0.77205  0.49884  1.0000
  C   C5506     1.0  0.50828  0.93235  0.67832  1.0000
  C   C5507     1.0  0.66066  0.95203  0.53153  1.0000
  C   C5508     1.0  0.51527  0.86587  0.68922  1.0000
  H   H4407     1.0  0.58045  0.97219  0.61167  1.0000
  C   C5509     1.0  0.96008  0.68483  0.54062  1.0000
  H   H4408     1.0  0.98478  0.65869  0.53299  1.0000
  C   C5510     1.0  0.79252  0.95666  0.49609  1.0000
  C   C5511     1.0  0.91825  0.70714  0.57072  1.0000
  C   C5512     1.0  0.88678  0.67641  0.53897  1.0000
  C   C5513     1.0  0.57163  0.92510  0.57126  1.0000
  C   C5514     1.0  0.52876  0.92095  0.57664  1.0000
  C   C5515     1.0  0.66473  0.97259  0.53864  1.0000
  H   H4409     1.0  0.58825  0.94497  0.53271  1.0000
  C   C5516     1.0  0.57553  0.90962  0.57416  1.0000
  C   C5517     1.0  0.67032  0.96018  0.53223  1.0000
  H   H4410     1.0  0.88215  0.70941  0.51468  1.0000
  C   C5518     1.0  0.64542  0.95602  0.53764  1.0000
  C   C5519     1.0  0.56299  0.90318  0.68724  1.0000
  H   H4411     1.0  0.57630  0.89031  0.70308  1.0000
  H   H4412     1.0  0.68213  0.95717  0.52737  1.0000
  S   S741      1.0  0.97020  0.65868  0.51098  1.0000
  C   C5520     1.0  0.55495  0.96523  0.54585  1.0000
  C   C5521     1.0  0.80291  0.95026  0.50514  1.0000
  C   C5522     1.0  0.79789  0.94727  0.52049  1.0000
  C   C5523     1.0  0.78260  0.95032  0.52682  1.0000
  C   C5524     1.0  0.77213  0.95634  0.51786  1.0000
  C   C5525     1.0  0.77712  0.95975  0.50246  1.0000
  H   H4413     1.0  0.79190  0.92039  0.49553  1.0000
  H   H4414     1.0  0.80589  0.94242  0.52753  1.0000
  H   H4415     1.0  0.77887  0.94773  0.53869  1.0000
  H   H4416     1.0  0.97004  0.77042  0.50174  1.0000
  C   C5526     1.0  0.63985  0.96822  0.54438  1.0000
  S   S742      1.0  0.82228  0.94593  0.49799  1.0000
  C   C5527     1.0  0.96292  0.77339  0.49394  1.0000
  H   H4417     1.0  0.53946  0.90175  0.59078  1.0000
  H   H4418     1.0  0.95803  0.74605  0.49084  1.0000
  C   C5528     1.0  0.89290  0.67999  0.54880  1.0000
  C   C5529     1.0  0.64941  0.97675  0.54471  1.0000
  H   H4419     1.0  0.91714  0.71884  0.56982  1.0000
  C   C5530     1.0  0.58755  0.95423  0.60021  1.0000
  C   C5531     1.0  0.53231  0.96523  0.57138  1.0000
  H   H4420     1.0  0.60654  0.93173  0.55733  1.0000
  C   C5532     1.0  0.90937  0.68471  0.58241  1.0000
  C   C5533     1.0  0.63817  0.97450  0.58085  1.0000
  C   C5534     1.0  0.60161  0.91021  0.56482  1.0000
  C   C5535     1.0  0.78031  0.91966  0.49938  1.0000
  C   C5536     1.0  0.53031  0.91142  0.59022  1.0000
  H   H4421     1.0  0.59276  0.94652  0.60887  1.0000
  H   H4422     1.0  0.51623  0.91275  0.63765  1.0000
  C   C5537     1.0  0.96457  0.79490  0.52295  1.0000
  C   C5538     1.0  0.53716  0.90144  0.69365  1.0000
  C   C5539     1.0  0.57309  0.97397  0.57855  1.0000
  C   C5540     1.0  0.89030  0.70534  0.53468  1.0000
  S   S743      1.0  0.74636  0.95510  0.48974  1.0000
  H   H4423     1.0  0.98591  0.69860  0.54794  1.0000
  H   H4424     1.0  0.50118  0.86699  0.73073  1.0000
  C   C5541     1.0  0.63027  0.96945  0.59503  1.0000
  C   C5542     1.0  0.92988  0.69943  0.56129  1.0000
  H   H4425     1.0  0.93223  0.69221  0.52578  1.0000
  H   H4426     1.0  0.82375  0.88072  0.49209  1.0000
  H   H4427     1.0  0.51912  0.86558  0.67762  1.0000
  C   C5543     1.0  0.98261  0.70052  0.52624  1.0000
  P   P186      1.0  0.89378  0.72356  0.53132  1.0000
  C   C5544     1.0  0.88148  0.73741  0.52061  1.0000
  C   C5545     1.0  0.89009  0.73031  0.54802  1.0000
  C   C5546     1.0  0.88081  0.72430  0.56099  1.0000
  C   C5547     1.0  0.87727  0.73021  0.57361  1.0000
  C   C5548     1.0  0.88273  0.74231  0.57331  1.0000
  C   C5549     1.0  0.89154  0.74866  0.56031  1.0000
  C   C5550     1.0  0.89504  0.74282  0.54767  1.0000
  C   C5551     1.0  0.88620  0.75002  0.51148  1.0000
  C   C5552     1.0  0.61526  0.97616  0.59954  1.0000
  H   H4428     1.0  0.52607  0.90523  0.69126  1.0000
  C   C5553     1.0  0.85718  0.74735  0.51411  1.0000
  C   C5554     1.0  0.86675  0.73635  0.52220  1.0000
  C   C5555     1.0  0.91279  0.72200  0.52097  1.0000
  C   C5556     1.0  0.91648  0.71816  0.50717  1.0000
  C   C5557     1.0  0.93120  0.71624  0.49905  1.0000
  C   C5558     1.0  0.94234  0.71822  0.50464  1.0000
  C   C5559     1.0  0.93881  0.72200  0.51841  1.0000
  C   C5560     1.0  0.92412  0.72371  0.52666  1.0000
  C   C5561     1.0  0.57355  0.97863  0.59090  1.0000
  H   H4429     1.0  0.58159  0.97668  0.63957  1.0000
  C   C5562     1.0  0.55387  0.88690  0.70992  1.0000
  H   H4430     1.0  0.90011  0.69682  0.55390  1.0000
  C   C5563     1.0  0.51361  0.94119  0.68413  1.0000
  H   H4431     1.0  0.87595  0.71534  0.56130  1.0000
  H   H4432     1.0  0.87003  0.72559  0.58354  1.0000
  H   H4433     1.0  0.87982  0.74700  0.58303  1.0000
  H   H4434     1.0  0.89537  0.75835  0.55992  1.0000
  H   H4435     1.0  0.90135  0.74826  0.53751  1.0000
  H   H4436     1.0  0.92768  0.77403  0.49244  1.0000
  H   H4437     1.0  0.92177  0.66535  0.57381  1.0000
  H   H4438     1.0  0.53716  0.97492  0.53401  1.0000
  H   H4439     1.0  0.84601  0.74623  0.51495  1.0000
  H   H4440     1.0  0.86266  0.72699  0.52954  1.0000
  H   H4441     1.0  0.90790  0.71678  0.50261  1.0000
  C   C5564     1.0  0.50794  0.92668  0.60258  1.0000
  C   C5565     1.0  0.99194  0.66160  0.52240  1.0000
  H   H4442     1.0  0.94756  0.72348  0.52266  1.0000
  H   H4443     1.0  0.92176  0.72620  0.53743  1.0000
  H   H4444     1.0  0.63793  0.94974  0.53702  1.0000
  H   H4445     1.0  0.60577  0.95362  0.50989  1.0000
  C   C5566     1.0  0.53968  0.89088  0.70651  1.0000
  C   C5567     1.0  0.74999  0.91974  0.50936  1.0000
  C   C5568     1.0  0.75790  0.92176  0.51862  1.0000
  C   C5569     1.0  0.77305  0.92171  0.51362  1.0000
  C   C5570     1.0  0.92323  0.67809  0.51858  1.0000
  C   C5571     1.0  0.52133  0.87373  0.69546  1.0000
  C   C5572     1.0  0.50584  0.89572  0.65243  1.0000
  C   C5573     1.0  0.58273  0.93326  0.56505  1.0000
  C   C5574     1.0  0.59776  0.92568  0.56192  1.0000
  H   H4446     1.0  0.81342  0.97816  0.49219  1.0000
  P   P187      1.0  0.94612  0.67412  0.55030  1.0000
  C   C5575     1.0  0.77256  0.91722  0.49010  1.0000
  C   C5576     1.0  0.96826  0.68835  0.54878  1.0000
  C   C5577     1.0  0.75720  0.91782  0.49504  1.0000
  C   C5578     1.0  0.92077  0.66396  0.52102  1.0000
  C   C5579     1.0  0.54725  0.96000  0.57253  1.0000
  C   C5580     1.0  0.59366  0.95355  0.53239  1.0000
  H   H4447     1.0  0.57190  0.90825  0.68003  1.0000
  H   H4448     1.0  0.54931  0.96731  0.61372  1.0000
  H   H4449     1.0  0.96614  0.68486  0.56068  1.0000
  S   S744      1.0  0.55184  0.95973  0.70613  1.0000
  H   H4450     1.0  0.53134  0.98895  0.60287  1.0000
  C   C5581     1.0  0.60004  0.95178  0.72926  1.0000
  C   C5582     1.0  0.87652  0.76112  0.50364  1.0000
  H   H4451     1.0  0.56163  0.97619  0.72219  1.0000
  H   H4452     1.0  0.89913  0.70571  0.58872  1.0000
  H   H4453     1.0  0.73810  0.92038  0.51304  1.0000
  H   H4454     1.0  0.75217  0.92396  0.52945  1.0000
  H   H4455     1.0  0.77907  0.92382  0.52058  1.0000
  C   C5583     1.0  0.98771  0.79335  0.50435  1.0000
  H   H4456     1.0  0.93765  0.70532  0.55313  1.0000
  H   H4457     1.0  0.89737  0.75133  0.51035  1.0000
  S   S745      1.0  0.55177  0.94160  0.68163  1.0000
  H   H4458     1.0  0.61807  0.97345  0.50865  1.0000
  H   H4459     1.0  0.94380  0.76801  0.51042  1.0000
  C   C5584     1.0  0.88478  0.70146  0.52450  1.0000
  S   S746      1.0  0.56101  0.96119  0.64006  1.0000
  C   C5585     1.0  0.51620  0.87438  0.71047  1.0000
  H   H4460     1.0  0.59351  0.89018  0.57322  1.0000
  C   C5586     1.0  0.93083  0.68112  0.52753  1.0000
  H   H4461     1.0  0.89646  0.67154  0.55794  1.0000
  H   H4462     1.0  0.90143  0.67899  0.59060  1.0000
  S   S747      1.0  0.58263  0.92343  0.70388  1.0000
  C   C5587     1.0  0.60220  0.98057  0.64084  1.0000
  C   C5588     1.0  0.96411  0.80707  0.49751  1.0000
  Fe  Fe370     1.0  0.55808  0.96091  0.66429  1.0000
  C   C5589     1.0  0.53997  0.97048  0.54477  1.0000
  H   H4463     1.0  0.60793  0.95831  0.70577  1.0000
  H   H4464     1.0  0.51500  0.89098  0.65809  1.0000
  Fe  Fe371     1.0  0.56819  0.94389  0.69293  1.0000
  C   C5590     1.0  0.52291  0.95956  0.73753  1.0000
  H   H4465     1.0  0.54677  0.91550  0.67402  1.0000
  C   C5591     1.0  0.57975  0.95933  0.57698  1.0000
  H   H4466     1.0  0.50473  0.97709  0.73095  1.0000
  H   H4467     1.0  0.99879  0.73636  0.52241  1.0000
  H   H4468     1.0  0.59554  0.97624  0.55321  1.0000
  C   C5592     1.0  0.59848  0.95938  0.71500  1.0000
  H   H4469     1.0  0.94456  0.80727  0.51511  1.0000
  H   H4470     1.0  0.95786  0.68630  0.51839  1.0000
  C   C5593     1.0  0.51671  0.90976  0.72938  1.0000
  C   C5594     1.0  0.51682  0.93330  0.57595  1.0000
  C   C5595     1.0  0.59064  0.95986  0.54475  1.0000
  Fe  Fe372     1.0  0.55885  0.97704  0.68674  1.0000
  H   H4471     1.0  0.51707  0.97512  0.55668  1.0000
  C   C5596     1.0  0.54885  0.90731  0.68390  1.0000
  C   C5597     1.0  0.88289  0.68710  0.52674  1.0000
  C   C5598     1.0  0.56548  0.89303  0.70026  1.0000
  C   C5599     1.0  0.57250  0.91436  0.72032  1.0000
  H   H4472     1.0  0.55183  0.93085  0.72027  1.0000
  S   S748      1.0  0.72988  0.98775  0.49905  1.0000
  P   P188      1.0  0.52423  0.88386  0.71910  1.0000
  C   C5600     1.0  0.50995  0.96711  0.63127  1.0000
  S   S749      1.0  0.54072  0.97781  0.67570  1.0000
  H   H4473     1.0  0.62806  0.97111  0.54923  1.0000
  C   C5601     1.0  0.89486  0.69434  0.54654  1.0000
  H   H4474     1.0  0.87868  0.68420  0.51878  1.0000
  H   H4475     1.0  0.52387  0.94449  0.67841  1.0000
  H   H4476     1.0  0.66503  0.94273  0.52609  1.0000
  C   C5602     1.0  0.96337  0.68929  0.52516  1.0000
  C   C5603     1.0  0.57955  0.90067  0.72776  1.0000
  H   H4477     1.0  0.60505  0.97010  0.64841  1.0000
  H   H4478     1.0  0.56347  0.96575  0.53580  1.0000
  C   C5604     1.0  0.51124  0.89972  0.72532  1.0000
  C   C5605     1.0  0.93137  0.68427  0.56244  1.0000
  C   C5606     1.0  0.58465  0.96820  0.71257  1.0000
  C   C5607     1.0  0.58067  0.96873  0.60178  1.0000
  H   H4479     1.0  0.59104  0.89577  0.72331  1.0000
  Fe  Fe373     1.0  0.72332  0.95146  0.49424  1.0000
  H   H4480     1.0  0.58346  0.97399  0.70149  1.0000
  C   C5608     1.0  0.97458  0.69708  0.51803  1.0000
  C   C5609     1.0  0.95659  0.80347  0.51216  1.0000
  C   C5610     1.0  0.60752  0.97596  0.53093  1.0000
  H   H4481     1.0  0.53677  0.91875  0.56664  1.0000
  C   C5611     1.0  0.58718  0.94952  0.58782  1.0000
  H   H4482     1.0  0.55594  0.87948  0.72018  1.0000
  S   S750      1.0  0.51223  0.95663  0.70486  1.0000
  C   C5612     1.0  0.63118  0.98648  0.57114  1.0000
  C   C5613     1.0  0.59050  0.90218  0.57093  1.0000
  C   C5614     1.0  0.57226  0.96929  0.72434  1.0000
  C   C5615     1.0  0.55872  0.95995  0.55976  1.0000
  C   C5616     1.0  0.86209  0.75970  0.50478  1.0000
  C   C5617     1.0  0.55756  0.92056  0.72611  1.0000
  H   H4483     1.0  0.99155  0.70622  0.52059  1.0000
  H   H4484     1.0  0.76520  0.98351  0.53122  1.0000
  H   H4485     1.0  0.51559  0.94071  0.56543  1.0000
  Fe  Fe374     1.0  0.70828  0.98116  0.50233  1.0000
  C   C5618     1.0  0.98007  0.78986  0.51908  1.0000
  C   C5619     1.0  0.58898  0.98424  0.63580  1.0000
  C   C5620     1.0  0.53054  0.87043  0.73462  1.0000
  H   H4486     1.0  0.63577  0.96026  0.60251  1.0000
  H   H4487     1.0  0.85477  0.76815  0.49837  1.0000
  C   C5621     1.0  0.97961  0.80208  0.49360  1.0000
  H   H4488     1.0  0.88027  0.77078  0.49651  1.0000
  H   H4489     1.0  0.50703  0.95440  0.65346  1.0000
  C   C5622     1.0  0.50835  0.96859  0.61695  1.0000
  H   H4490     1.0  0.88551  0.66523  0.54053  1.0000
  H   H4491     1.0  0.51054  0.97827  0.60865  1.0000
  C   C5623     1.0  0.50544  0.94601  0.69707  1.0000
  H   H4492     1.0  0.52151  0.90677  0.61348  1.0000
  H   H4493     1.0  0.54168  0.85353  0.72189  1.0000
  H   H4494     1.0  0.61075  0.94484  0.73112  1.0000
  H   H4495     1.0  0.99272  0.76179  0.50817  1.0000
  C   C5624     1.0  0.50643  0.90815  0.64089  1.0000
  C   C5625     1.0  0.50635  0.95509  0.64224  1.0000
  C   C5626     1.0  0.99703  0.66608  0.49575  1.0000
  C   C5627     1.0  0.54348  0.98928  0.63786  1.0000
  H   H4496     1.0  0.51946  0.95129  0.73439  1.0000
  C   C5628     1.0  0.50692  0.92173  0.73498  1.0000
  C   C5629     1.0  0.66594  0.97267  0.49237  1.0000
  H   H4497     1.0  0.66836  0.96159  0.49048  1.0000
  C   C5630     1.0  0.53907  0.85635  0.73260  1.0000
  H   H4498     1.0  0.68298  0.91046  0.49186  1.0000
  H   H4499     1.0  0.50236  0.95927  0.60232  1.0000
  H   H4500     1.0  0.61257  0.98494  0.53013  1.0000
  C   C5631     1.0  0.49925  0.85884  0.71287  1.0000
  H   H4501     1.0  0.54740  0.98979  0.64708  1.0000
  C   C5632     1.0  0.50173  0.94414  0.63880  1.0000
  C   C5633     1.0  0.60807  0.98775  0.58978  1.0000
  C   C5634     1.0  0.65304  0.98293  0.48901  1.0000
  H   H4502     1.0  0.49933  0.85258  0.69304  1.0000
  H   H4503     1.0  0.62159  0.98779  0.64061  1.0000
  H   H4504     1.0  0.56781  0.98973  0.59237  1.0000
  H   H4505     1.0  0.51121  0.92949  0.73794  1.0000
  C   C5635     1.0  0.50083  0.94516  0.62421  1.0000
  H   H4506     1.0  0.87049  0.69884  0.48935  1.0000
  C   C5636     1.0  0.61148  0.99054  0.63645  1.0000
  H   H4507     1.0  0.58517  0.99087  0.50796  1.0000
  H   H4508     1.0  0.73780  0.98960  0.53415  1.0000
  C   C5637     1.0  0.57362  0.96129  0.73861  1.0000
  H   H4509     1.0  0.95790  0.81356  0.48912  1.0000
  C   C5638     1.0  0.55527  0.79897  0.89892  1.0000
  H   H4510     1.0  0.50432  0.83504  0.87054  1.0000
  C   C5639     1.0  0.54059  0.78583  0.82546  1.0000
  Fe  Fe375     1.0  0.50782  0.89627  0.80787  1.0000
  C   C5640     1.0  0.50838  0.71672  0.95788  1.0000
  H   H4511     1.0  0.55920  0.81158  0.83605  1.0000
  C   C5641     1.0  0.52151  0.71740  0.94717  1.0000
  H   H4512     1.0  0.53839  0.80013  0.83979  1.0000
  H   H4513     1.0  0.52977  0.78667  0.96278  1.0000
  C   C5642     1.0  0.53926  0.79763  0.80010  1.0000
  Fe  Fe376     1.0  0.50506  0.66415  0.92496  1.0000
  H   H4514     1.0  0.51139  0.97485  0.80580  1.0000
  H   H4515     1.0  0.57315  0.90688  0.76318  1.0000
  Fe  Fe377     1.0  0.53120  0.66167  0.89882  1.0000
  H   H4516     1.0  0.52899  0.67403  0.82801  1.0000
  C   C5643     1.0  0.57174  0.89321  0.74084  1.0000
  C   C5644     1.0  0.53232  0.84088  0.84661  1.0000
  C   C5645     1.0  0.52321  0.75349  0.93456  1.0000
  C   C5646     1.0  0.54229  0.79961  0.89455  1.0000
  Fe  Fe378     1.0  0.52675  0.90211  0.77666  1.0000
  S   S751      1.0  0.51705  0.77403  0.89803  1.0000
  S   S752      1.0  0.53920  0.66758  0.87413  1.0000
  C   C5647     1.0  0.51986  0.69752  0.82222  1.0000
  H   H4517     1.0  0.56312  0.90351  0.79010  1.0000
  C   C5648     1.0  0.54095  0.78481  0.81117  1.0000
  C   C5649     1.0  0.55435  0.80528  0.91070  1.0000
  H   H4518     1.0  0.50837  0.82928  0.84459  1.0000
  C   C5650     1.0  0.50480  0.69481  0.85178  1.0000
  C   C5651     1.0  0.57874  0.67240  0.89644  1.0000
  H   H4519     1.0  0.51892  0.85067  0.79874  1.0000
  C   C5652     1.0  0.55260  0.86525  0.79528  1.0000
  C   C5653     1.0  0.50706  0.76815  0.82788  1.0000
  C   C5654     1.0  0.54016  0.83009  0.83823  1.0000
  C   C5655     1.0  0.54353  0.85672  0.80598  1.0000
  C   C5656     1.0  0.55638  0.81921  0.85580  1.0000
  C   C5657     1.0  0.55257  0.81959  0.84264  1.0000
  H   H4520     1.0  0.51520  0.71146  0.89155  1.0000
  C   C5658     1.0  0.55474  0.92688  0.78951  1.0000
  H   H4521     1.0  0.56442  0.80464  0.91417  1.0000
  H   H4522     1.0  0.50059  0.80057  0.95280  1.0000
  C   C5659     1.0  0.50718  0.97686  0.79592  1.0000
  C   C5660     1.0  0.58769  0.95278  0.74104  1.0000
  P   P189      1.0  0.53509  0.83052  0.82133  1.0000
  C   C5661     1.0  0.54487  0.74379  0.94548  1.0000
  H   H4523     1.0  0.54325  0.68799  0.88958  1.0000
  C   C5662     1.0  0.56845  0.84320  0.78714  1.0000
  H   H4524     1.0  0.53606  0.82131  0.79461  1.0000
  H   H4525     1.0  0.53370  0.78166  0.93809  1.0000
  C   C5663     1.0  0.50016  0.66415  0.97328  1.0000
  Fe  Fe379     1.0  0.53462  0.67122  0.92491  1.0000
  C   C5664     1.0  0.53749  0.81145  0.80326  1.0000
  H   H4526     1.0  0.50785  0.79788  0.84006  1.0000
  H   H4527     1.0  0.53398  0.86214  0.81326  1.0000
  S   S753      1.0  0.51338  0.76658  0.86809  1.0000
  H   H4528     1.0  0.53045  0.72082  0.94925  1.0000
  H   H4529     1.0  0.57374  0.69064  0.93467  1.0000
  H   H4530     1.0  0.55087  0.83418  0.95381  1.0000
  H   H4531     1.0  0.52078  0.73109  0.83701  1.0000
  H   H4532     1.0  0.57725  0.88257  0.74647  1.0000
  C   C5665     1.0  0.53759  0.81252  0.81748  1.0000
  S   S754      1.0  0.52756  0.90631  0.79813  1.0000
  H   H4533     1.0  0.54714  0.95036  0.78575  1.0000
  C   C5666     1.0  0.51028  0.93196  0.83796  1.0000
  C   C5667     1.0  0.52310  0.71387  0.93365  1.0000
  H   H4534     1.0  0.55092  0.82916  0.87468  1.0000
  C   C5668     1.0  0.54431  0.71562  0.85876  1.0000
  H   H4535     1.0  0.53485  0.68365  0.98037  1.0000
  S   S755      1.0  0.51162  0.92418  0.76988  1.0000
  C   C5669     1.0  0.53885  0.79963  0.82862  1.0000
  H   H4536     1.0  0.53938  0.79684  0.78906  1.0000
  S   S756      1.0  0.50802  0.74675  0.97873  1.0000
  C   C5670     1.0  0.55950  0.83459  0.79798  1.0000
  C   C5671     1.0  0.53623  0.84054  0.85969  1.0000
  C   C5672     1.0  0.54043  0.81196  0.91830  1.0000
  C   C5673     1.0  0.54142  0.84951  0.75813  1.0000
  C   C5674     1.0  0.52162  0.68369  0.83188  1.0000
  H   H4537     1.0  0.58904  0.94665  0.75200  1.0000
  C   C5675     1.0  0.50714  0.84358  0.89943  1.0000
  C   C5676     1.0  0.56210  0.91456  0.78325  1.0000
  H   H4538     1.0  0.58008  0.97600  0.75585  1.0000
  H   H4539     1.0  0.57816  0.83802  0.77987  1.0000
  C   C5677     1.0  0.54676  0.84136  0.80723  1.0000
  C   C5678     1.0  0.51568  0.83950  0.82180  1.0000
  S   S757      1.0  0.54368  0.73477  0.85275  1.0000
  H   H4540     1.0  0.54167  0.77591  0.83414  1.0000
  C   C5679     1.0  0.51257  0.74142  0.83520  1.0000
  C   C5680     1.0  0.55209  0.68571  0.94416  1.0000
  H   H4541     1.0  0.57452  0.68385  0.89756  1.0000
  P   P190      1.0  0.55752  0.96153  0.75373  1.0000
  H   H4542     1.0  0.54247  0.77408  0.80871  1.0000
  H   H4543     1.0  0.52315  0.84955  0.84312  1.0000
  C   C5681     1.0  0.51926  0.98495  0.73918  1.0000
  C   C5682     1.0  0.50486  0.80905  0.95460  1.0000
  H   H4544     1.0  0.54994  0.87714  0.79423  1.0000
  H   H4545     1.0  0.51431  0.71077  0.86645  1.0000
  S   S758      1.0  0.50845  0.88988  0.78706  1.0000
  H   H4546     1.0  0.53380  0.97562  0.77531  1.0000
  H   H4547     1.0  0.56262  0.82269  0.79917  1.0000
  H   H4548     1.0  0.52994  0.84871  0.86620  1.0000
  C   C5683     1.0  0.54248  0.68565  0.86818  1.0000
  C   C5684     1.0  0.56494  0.85855  0.78573  1.0000
  C   C5685     1.0  0.54811  0.82959  0.86439  1.0000
  H   H4549     1.0  0.56564  0.81076  0.85940  1.0000
  H   H4550     1.0  0.57762  0.67729  0.87356  1.0000
  H   H4551     1.0  0.51959  0.83912  0.93683  1.0000
  H   H4552     1.0  0.57001  0.93178  0.74724  1.0000
  C   C5686     1.0  0.52017  0.91899  0.83448  1.0000
  H   H4553     1.0  0.52090  0.88462  0.75055  1.0000
  H   H4554     1.0  0.54293  0.79470  0.88544  1.0000
  H   H4555     1.0  0.55902  0.77115  0.92500  1.0000
  H   H4556     1.0  0.55123  0.83518  0.74261  1.0000
  Fe  Fe380     1.0  0.53729  0.75560  0.89761  1.0000
  C   C5687     1.0  0.55699  0.97444  0.76451  1.0000
  H   H4557     1.0  0.54435  0.71440  0.88141  1.0000
  H   H4558     1.0  0.54588  0.84162  0.76714  1.0000
  H   H4559     1.0  0.53072  0.86635  0.77086  1.0000
  C   C5688     1.0  0.54325  0.69345  0.87820  1.0000
  C   C5689     1.0  0.54403  0.70843  0.87353  1.0000
  C   C5690     1.0  0.50509  0.71679  0.88745  1.0000
  C   C5691     1.0  0.54107  0.68385  0.95705  1.0000
  H   H4560     1.0  0.51356  0.83546  0.89288  1.0000
  C   C5692     1.0  0.55691  0.68771  0.97107  1.0000
  C   C5693     1.0  0.50501  0.83666  0.83482  1.0000
  P   P191      1.0  0.50915  0.82042  0.92418  1.0000
  Fe  Fe381     1.0  0.53413  0.74857  0.87023  1.0000
  H   H4561     1.0  0.51205  0.78874  0.92678  1.0000
  C   C5694     1.0  0.51670  0.96701  0.86199  1.0000
  C   C5695     1.0  0.51408  0.68234  0.84664  1.0000
  S   S759      1.0  0.54673  0.76354  0.87357  1.0000
  H   H4562     1.0  0.54992  0.92543  0.80123  1.0000
  C   C5696     1.0  0.55896  0.94314  0.76532  1.0000
  C   C5697     1.0  0.51744  0.75459  0.82938  1.0000
  S   S760      1.0  0.51830  0.68033  0.90998  1.0000
  C   C5698     1.0  0.55316  0.94111  0.78061  1.0000
  H   H4563     1.0  0.53070  0.68184  0.95651  1.0000
  H   H4564     1.0  0.54376  0.68652  0.84534  1.0000
  C   C5699     1.0  0.56530  0.68894  0.94467  1.0000
  C   C5700     1.0  0.56771  0.91646  0.76805  1.0000
  C   C5701     1.0  0.56597  0.93064  0.75907  1.0000
  C   C5702     1.0  0.51013  0.81985  0.94281  1.0000
  C   C5703     1.0  0.51552  0.83066  0.94574  1.0000
  C   C5704     1.0  0.53871  0.74889  0.93291  1.0000
  C   C5705     1.0  0.54381  0.69258  0.85324  1.0000
  C   C5706     1.0  0.51394  0.75342  0.94862  1.0000
  H   H4565     1.0  0.58042  0.66433  0.91911  1.0000
  C   C5707     1.0  0.54476  0.70747  0.84854  1.0000
  H   H4566     1.0  0.54540  0.71279  0.83703  1.0000
  H   H4567     1.0  0.58051  0.76491  0.93696  1.0000
  H   H4568     1.0  0.53315  0.71489  0.92519  1.0000
  H   H4569     1.0  0.55685  0.74009  0.94432  1.0000
  C   C5708     1.0  0.55700  0.89964  0.74687  1.0000
  C   C5709     1.0  0.53555  0.74333  0.95958  1.0000
  S   S761      1.0  0.55000  0.68405  0.92713  1.0000
  S   S762      1.0  0.55045  0.74979  0.91525  1.0000
  H   H4570     1.0  0.56600  0.79343  0.89327  1.0000
  H   H4571     1.0  0.57171  0.86532  0.77722  1.0000
  S   S763      1.0  0.54802  0.89024  0.76372  1.0000
  C   C5710     1.0  0.52839  0.80641  0.90202  1.0000
  H   H4572     1.0  0.51830  0.75673  0.92507  1.0000
  S   S764      1.0  0.52603  0.73961  0.89436  1.0000
  H   H4573     1.0  0.52930  0.75421  0.82664  1.0000
  Fe  Fe382     1.0  0.52506  0.78065  0.87384  1.0000
  H   H4574     1.0  0.52575  0.69855  0.81079  1.0000
  C   C5711     1.0  0.51511  0.83096  0.96028  1.0000
  H   H4575     1.0  0.51869  0.83965  0.96258  1.0000
  C   C5712     1.0  0.53575  0.95569  0.74330  1.0000
  S   S765      1.0  0.52042  0.80543  0.86637  1.0000
  H   H4576     1.0  0.53997  0.81645  0.92758  1.0000
  H   H4577     1.0  0.57689  0.76963  0.96173  1.0000
  H   H4578     1.0  0.53854  0.91837  0.74417  1.0000
  C   C5713     1.0  0.52731  0.81243  0.91411  1.0000
  H   H4579     1.0  0.51846  0.80675  0.89844  1.0000
  H   H4580     1.0  0.51338  0.70586  0.92073  1.0000
  H   H4581     1.0  0.52700  0.89533  0.84147  1.0000
  H   H4582     1.0  0.50550  0.81298  0.81501  1.0000
  C   C5714     1.0  0.55275  0.82617  0.96385  1.0000
  S   S766      1.0  0.50659  0.87921  0.82911  1.0000
  C   C5715     1.0  0.55091  0.81181  0.96592  1.0000
  H   H4583     1.0  0.54045  0.73931  0.96910  1.0000
  C   C5716     1.0  0.56782  0.68964  0.95811  1.0000
  C   C5717     1.0  0.52004  0.74807  0.96120  1.0000
  H   H4584     1.0  0.52152  0.66446  0.97609  1.0000
  H   H4585     1.0  0.55811  0.84144  0.97323  1.0000
  C   C5718     1.0  0.54053  0.96649  0.74693  1.0000
  Fe  Fe383     1.0  0.51103  0.92756  0.79228  1.0000
  H   H4586     1.0  0.57823  0.69177  0.95843  1.0000
  C   C5719     1.0  0.50325  0.83942  0.91489  1.0000
  C   C5720     1.0  0.51063  0.71004  0.82736  1.0000
  C   C5721     1.0  0.50719  0.96485  0.79030  1.0000
  C   C5722     1.0  0.50943  0.90494  0.85791  1.0000
  C   C5723     1.0  0.58044  0.66869  0.88294  1.0000
  C   C5724     1.0  0.55300  0.77846  0.96424  1.0000
  S   S767      1.0  0.51451  0.94675  0.79917  1.0000
  C   C5725     1.0  0.54338  0.68508  0.97048  1.0000
  C   C5726     1.0  0.54312  0.77941  0.94319  1.0000
  H   H4587     1.0  0.51738  0.95098  0.85006  1.0000
  H   H4588     1.0  0.52795  0.91945  0.82390  1.0000
  Fe  Fe384     1.0  0.50639  0.75893  0.89263  1.0000
  C   C5727     1.0  0.50186  0.81263  0.87477  1.0000
  C   C5728     1.0  0.51095  0.84853  0.80903  1.0000
  C   C5729     1.0  0.51969  0.90546  0.84441  1.0000
  C   C5730     1.0  0.54449  0.84594  0.74431  1.0000
  H   H4589     1.0  0.50463  0.69591  0.98250  1.0000
  C   C5731     1.0  0.56974  0.97950  0.76339  1.0000
  H   H4590     1.0  0.54747  0.80895  0.95745  1.0000
  C   C5732     1.0  0.53280  0.86342  0.76027  1.0000
  H   H4591     1.0  0.51573  0.67169  0.85424  1.0000
  C   C5733     1.0  0.58204  0.66132  0.90864  1.0000
  C   C5734     1.0  0.56951  0.76989  0.94260  1.0000
  C   C5735     1.0  0.53231  0.98123  0.74458  1.0000
  C   C5736     1.0  0.54092  0.78203  0.95729  1.0000
  H   H4592     1.0  0.50870  0.82086  0.98326  1.0000
  C   C5737     1.0  0.50959  0.82033  0.97195  1.0000
  H   H4593     1.0  0.51087  0.77834  0.82358  1.0000
  H   H4594     1.0  0.50935  0.72067  0.81975  1.0000
  H   H4595     1.0  0.54201  0.94432  0.74467  1.0000
  H   H4596     1.0  0.49908  0.69351  0.86328  1.0000
  C   C5738     1.0  0.54377  0.97932  0.77438  1.0000
  H   H4597     1.0  0.52861  0.96637  0.85848  1.0000
  C   C5739     1.0  0.55741  0.77343  0.93582  1.0000
  H   H4598     1.0  0.51076  0.94233  0.83008  1.0000
  C   C5740     1.0  0.54993  0.91338  0.73957  1.0000
  C   C5741     1.0  0.50324  0.70879  0.84224  1.0000
  H   H4599     1.0  0.50199  0.75694  0.94976  1.0000
  C   C5742     1.0  0.56928  0.98913  0.77215  1.0000
  C   C5743     1.0  0.56735  0.77246  0.95672  1.0000
  C   C5744     1.0  0.51027  0.95823  0.85727  1.0000
  C   C5745     1.0  0.50450  0.71638  0.87324  1.0000
  C   C5746     1.0  0.51197  0.70868  0.93121  1.0000
  C   C5747     1.0  0.52734  0.87386  0.74859  1.0000
  H   H4600     1.0  0.50879  0.89439  0.86543  1.0000
  C   C5748     1.0  0.55682  0.83026  0.97479  1.0000
  C   C5749     1.0  0.50779  0.97669  0.87111  1.0000
  C   C5750     1.0  0.50466  0.80929  0.96908  1.0000
  H   H4601     1.0  0.50510  0.86134  0.88031  1.0000
  H   H4602     1.0  0.50699  0.72043  0.96793  1.0000
  C   C5751     1.0  0.50246  0.85826  0.89225  1.0000
  H   H4603     1.0  0.51278  0.98355  0.87468  1.0000
  C   C5752     1.0  0.55327  0.80139  0.97893  1.0000
  P   P192      1.0  0.55037  0.78299  0.98194  1.0000
  C   C5753     1.0  0.51345  0.65783  0.97824  1.0000
  C   C5754     1.0  0.50068  0.79449  0.92608  1.0000
  C   C5755     1.0  0.49912  0.70722  0.94220  1.0000
  H   H4604     1.0  0.58165  0.78119  0.98121  1.0000
  H   H4605     1.0  0.53580  0.98988  0.74701  1.0000
  C   C5756     1.0  0.54338  0.98880  0.78323  1.0000
  C   C5757     1.0  0.50149  0.96746  0.77772  1.0000
  H   H4606     1.0  0.50142  0.95828  0.77333  1.0000
  H   H4607     1.0  0.50015  0.80119  0.97815  1.0000
  H   H4608     1.0  0.53049  0.76316  0.98591  1.0000
  C   C5758     1.0  0.49964  0.93152  0.85131  1.0000
  C   C5759     1.0  0.49938  0.91789  0.86135  1.0000
  S   S768      1.0  0.56105  0.68727  0.98798  1.0000
  C   C5760     1.0  0.55907  0.81999  0.98781  1.0000
