data_image0
_chemical_formula_structural       C2FeS2FeS2FeSFeHS2FeS2FeSCFeCFeS3C2SCHSFeS2FeS2C6H4C6H4C6H4C6H5C2HCH3C8H2C2HSC3H2C2H2C4HC4HPC6HC4H4CHCH4C4H2C2H4CHCHCH2C2HFeHCHCHCPCHC2SC3HC3FePC8HC5H3C2H10CH3C2HCHC6PC18H20C2HCH2CFeH3CHFeHC3HC2H3C3SH2CHC3SHCH2CHCHC7H2CHC2HPHC2H3CH2CH2CH3CHC2HCHC2HPCHCHC2HC3HCH2CH4CHCH3CHCPHC2HCH6CHCH4CHC9PC3H2PCH8SCHC6H2CHCHC4HC3HCHCHC2SCHCH3C2H3CHC4H2CPCH2CSCSC2HSHFeSCFeS2FeCFeS3FeS2FeS2FeSFeCS2H2CHC2H2C2HC6H4C4H2C5H3C6H2CHC6H5PHCHC6H5CH2CSCHSH2C3HC2SCSC5HCPCHC2H2C2SC4HCHCH4C2HCPCH2C4H2CH3C6HC9H4PCH3C2SH6C3HCHCHCHC3H2SCH3CHC4H2C10HC2H3C2HSH7CSCH2PHCHC2H2SHC4SHCHCSCHC3HCHC3H2CHCFeHCH2CHC2HC3H4C2HPCHCSCHC3H3C4HC6HC6HC2FeH3CHCH8CSC6PC18H12CSH7FeHC2HSHCHFeC3SHC2HCHC4H2CH3CH2FeC2HCHC2H3CHSH3CHC7H6CSCFeC2HCSHCFeH7C4HCHCH4CHSCH2CHC3FePCSHCHC2HC5HCH7FeCHFeC3HC4H2CFeC2H2CHC3H2C4H3CHCH4C6H3CHC2H2CHSCHFeS2FeS2FeSFeS3FeS2FeS2FeSFeS3FeS2FeSFeSFeCS2FeSCFeS2FeSFeCS2FeCSHCS2C2HC2HFeS2FeS2FeSFeS3C6H4C6H4C7H5C6H4C6HSH2C10H4C2HC4H2C7H4C2HCSHC5SH3C2HC2HC6H3CH3C4HCH2CHCH4C2H3C3H2CHCHFeHCHC2PC13H2PH6CHCHC2H3CH2CHC3H3C6PC18H7CH12CHC6PC18H19PCHCHC3HCHC5PCH3C3H2C6PC4HC13H8CH12CH2CH3C2H3C2H2CH5C2H6CH2SCPCHC2HC6HCH6CHC2H3CH2C2HCH3PH3CHCH2C4HC3H2C2HC6HC2HCH2PH2C5HC2HC4H2C5HCHCH2C2HSCH2CHCHCHC6HCH3C3H2CH5C3H4CHCH3CHCH2C2H2C2HCSHC2HFeCSCH4SC3HFeSCHC2SH2CFeSHCS2CS2C5SCHFeS3FeCHFeS2C4HSFeS2FeS2FeCFeS3HFeC4SH2CHC3Fe2C7H4C3H3C6H4C6H2C3HPCHC4H5CSCH2C6H4C6H4CHC2H2CS3C2H2CS2C7H2CHSCH3CHC7H3FeHC4H3FeH3CHSHC2H2C2HCPHCHC3H2FeCPHC5H4SHCHC2HFeH2CH2C3HC2SH2C2H2FeH2CFeC2H2C2H2PC7H2C2HSCH4CHFeCH6C2H3C2PC3HC12H15CH2C2HPCH2FeH2CH4C2SH2C2HSCHCSHSC2HSH2C2H2C3HCHPCFe2H4C4H3CHCHCH2CH4CPHCHC7PC18HCHC3HC6HPCH2C3HC3HC2HC2H2CHCHC2SH6FeHFe2SPCHS3HFeS2FeS2FeSFeS3HCS2FeSHFeHFeCSCSCS2H2CH4CSH2C2H2CSC2SCHC2HC2HC6H4C6H4CHCHC2H2C2HCHC3PSHCH2C7H4C6H4CHCHC2SH2C2SCHC8PCHC7HC8H5CH3CH3CH6C2H3CH2SC2H3CSFeC3H2C3FeCHC2HC3HC2HPHC2S2H2PHC3HC2HCH2SH5C3H2FeHC3FeCH4C3HC4SCHCSH3CHCH2CH4C2H2CH2C3HSC3HC2H2CHC4HC2PCH2C6HC2HCHCPHC2HCH3CHCHC9PC18H4FeH7C3HCHCHCHCHFeC7SC8H10C2HCSFeC6H6FeCH2CH2CHC2H2CSCHCSCH2CH3C3FeC2SFeCH4C4SCHC2FeH3C2HCFeC2H2FeHC2HCFeSC2PHCHPC4SH3FeSHC3HSHCHCFeS2Fe2SCFeCSH2SHFeSCHCFeS2FeS2FeSFeS3C2H4CHCHC7HC6H4C7H3C6H4C4H4C11H5C3HCHCFeC3HC2H2C2HC7FeCFeCH3C2SC5HC3H4SHC2HCSCS2CFeCH4CH3S2H2C2H2CH3CHC4PC16H16CH4CHSHCH2CHCHCHC3PC2HC8HSHC2HC4FeH8SH2CH2CPH2CH2C2HPC2H7CH3C2H3SCHC2HCHC4HC3SC6PC18H12CH7CH4CP2CSCH2C2HC4H2CHC2HC2H2CH4C2HCH2CH2C2HCHCHC3H2PHCHSC2HC3SCHC6HC2H2C2HFeH2C2HC2H2CHC2HC7H3CH4CH2C2HSHCHCFeC2SFeS2FeSFeS3FeS2FeSFeSFeS3CHCHSCFeSC2HCFeSC5HCH2CHSC2FeHC6HCHC2H3C2SPCHFeC4H2SC7H2CHC2H2C6H4C3HC2H2CHC6HCH2C6H5C2HPH3C6PC18H22C2HCH2C6SHSHCH6C3H2PSHCFe2C2HSH4C2HSC3HPHCHFeH2CHCHC2HC5H6C6PC7HFeH2CHC2H2CH4C2H4CSHCSC2H2C4H5C2HCHC2H2CSCSHC4H3C7HCH2C7FeHCHCHC9H2C4HCH5CH2CSC2SCHCH2C2HCHCHCHCHCPH3CHC2H4C7HC4HCH5CHCH3C3H7CH3CSCHC2HCFeH3CSCHCHC3HSCH4CH3C4HSC3HCHCHC3H2CHCH2SC2HC2H3SH3CSFeCHC2H5CH2CHCSCH3CSHSC3HFeSCHFeS2CSFeSFeS2FeSFeS2FeSFeS3CSHC3HCH2C2HSCPCH2FeC3HC2H2FeHC7H4C6HC6HCH2C6H4C2HCHC2HSC6H4CHSC2HCHSC3H3C3HSHCSCH2C2H3C2HC2H2CSHC2H3FeC2H4C2H3C2HCHCH2C2HC3HS2CFeC4HCH4C6PC4PC13H6CH11C6PFeH2CH3SC2HC7H3CH2CSHCHC2HFeH6C5PC2HCFeS2C11HCH3C5H3CH2C2H3CSHSH3CHC4PC4HFeCHCH3CHCH3FeHC2HC2H3C6PC19SCH13CH2C6PC18H19C2PC8SC9H10CH6C6PCH2SCH4C4HCH3C2HSH2PSH2FeH6CH3CHSCHCH2CSC2HC4HCSFeHFeHCHCHCHCH2CHC4SCH2C2H5CH3C2HCHCHCHCHC4HCH3C2H3C4HCSCHCH2C2SCFeS2FeS2FeSFeCS2FeS2FeS2FeCFeS3FeSHFeS2FeCFeS3FeS2FeSFeCFeS3FeS2FeS2FeSFeS3HCHFeSH2FeS2FeS2C6H4C6H4C6H5C6H4C6H5CH2C7H5C3HC4H2C6H4C2HC3H3C2H10C4HCHCH3C3PC16H8CH5C3H2CH2CHPHC6PC15H10CH6C2H2SCHCHCH2CH6C2H3CHC2SHSCH2C2HC8HPCHSC3H7C2HC12H6CHC4PC12H10C4HC3HC2HC2H5C3PC18HCH12P2HC7PC19H21CHCH2C3HC4H2C3HC2H6CHC3SHC3H2C3H2CH2C4H3CHC2HCHC7HC4H2CHSCH4CSH2C2SHCHCHC2PH2C2HC2HCH2C8HC2HC2H2CH3CH2C3HCFeH3C2HCH2CSH3CHC2H4CHFeC4H2FeHSHCHSH2FeHSH2SCS2CHPCFeSHCFeS2CH4C5H2CHCSHFeS2CHC2SHFeS2FeS2FeSFeS3HC6H4C4H2PC6H2C5H2C6H5C6H3C2H2CHSH6C2H2C6H4C6H2SPCH2C7HC2H2C2H2CHCH2C3FeHCHC2HCH2C3FeSH2CH4C4SC2H3C4FeHCFeH2C9PC6H5CH3C2HC4PC15HC2H6CH8C2H2C4HSCHC2HC2HC5H2CH2CFeH2CH4C2H4C2HC2HC4HSCHC7H5CH4SCH7C9HCHCHC3HPCHC2HCH5C2HC5HCH2SHC10HC3FeC6H3C2H6CS2C2HFeHPSHC2H5CH2CHC3HCH2CSH2CH2C2HCH2C3FeH2CHC3H2CPH4FeCHC2PHC2H2C2H2CHCHPH3C2HFeS2FeS2FeSFeS3FeS2FeS2FeSFeS3H2FeSH3CHSC6H4C4HC3H2C2HC3HCH2C6H6C3HC4H2SC2HC6HCH4CH3CHCHCHCH2C4H3C3FeC3HC2HC3H7C2SC3HCH3C5H2PHC3H2CHC4HPC9H2PHCH2C2HC2HCHSCH4C7SHCH2C3PC6PC7HC5HCH11C6H2CH2C2HSC4H2C2H7CH2CHC2HC2HC2H4C2H3C2HCHCHCHCHC7SH4CH2C4H2C2H2C2H2C2H2CH2CHC3HC3HCHC2PC2H2CH2PCH2C2HC6PC18H14CH2C2HCH2C4HC4H3CH2C3HPH2C2H2CHCHC3HC3FeHCSC5FeS2FeS2FeHFeS3FeS2FeS2FeSFeS3C2FeC3HCSHFeH2C2H2C2HC2HC6H4C3H2C6H2CH4CSC2HC2HCH3C3HC6H4C2H7C2H3CHCHCHSC2SCHCH2C3HC2HCH3C7H2C2H6PC4SH3CHSH5C2HC8PC3HC11H13C2SC3PHCSH2CH2CPC4SH3CHC4SC2SH3CH3CH2C2HC2H2CH2C7HCSHCHC2H2C4HCH2CH2CH2C3HSC2PSH2CH2CH4CH2C4H7C2H3C6H3CH2CH2FeHCHCH3CHCH2C3HC3H3CHCHC3H2C3H4CHC2HSC2HCHC4PC18H6CHC5HC2HCH2C2FeC6HCH3PHC2H2CH2SHC2HCHCH2C2HC2H3C2HC2HC2HCFeSFeS2CFeS3FeS2FeS2FeSFeS3H2CS4FeSFeSFe2SHC2HCHC3S2FeSHC6H4CSHC4H2C6H4C6H4C6H4C6H4C4H4C4H2CHCHCSC4H4C6H2CH2SCFeC5HC3HCHC5H4C3H2C2PHC6PC2H2C4HCHCHCH8SH5CH5CHFeC2HCHCHC6SC14H6CPHCH4C6PC8H2FeC5HCH11C4H2C4H5C6PC16H17CHSHCH3C3HCHCPCH2CH4C2HCFeC2HCSFeC3HCH3C2SC8HC3HCH6C2HCH4C2HC2H3CH4C3PCHPC2SC4HC2HCH2CHCHC2HCHCHC3HC2HCH2PHSHSC2H6CHC2H3CHCHC6PC18HCH18SCH4CH2C3HCH2C2HCHC4H2CHC2HCHCHCHCHCHC2H4CH2C2H2SC3H2C2HCSH2CS2C3HCFeSFe2S3FeSFeS2FeS2FeS2Fe2S3FeS2CSCFeS2HCHFeSHPSC2HC7H4CH2C3FeC2H2C6H4C6H4C6H4C6H5CHC6H4C6H6SH2CHC3H3C3H4C2H4C3H2CSC4HC4H2CHC3H2CHC8HC4SCH2CHC3H2C6PC4HC2HSC4H16CH3C4HSCSCH4C2H2FeC6PC18H20PH2C2HC2H3SHCHCFeC3H2C4HC3HC3HSHC4HC2HCSC2H2SCHC2HCHCH2SC2FeH3CHPC2FeCHC2HCSHC8HCH3C3H2C2HCH4C8HFeCSHCHCH2C3H3C2H5CHCHCHCH3CFeH2C6PC8HCHC7H11SC2H4SHFe2HCH2C2PHC6HCHPCHCHCHFeH3SC4HC8HCHC5H3C4H6PC10H10CPFeHCH2C2HCH7CH2CHCHSHC2HSHCHCHCHCSHSC2SC2H3SC2H2C2PHC3H5SC2FeCHCHC3H2C2H2CHC3H2SHCFeS2FeS2FeSFeS3CS3H2C2SHPCFeS2HFeHC2H2CS2C9H4C6H4C2HC3HCH2C4H4CHCH2CH3C6H4CFeC2SHCS2HC2PC2HC11H4CHCH3CHC5H7C7PC2HC13H6CH12PHC2H2C2H3C4HCH3SHSHCHFeCHCHFeH3CH2CH4CHCSCHC2H3CH2C3PHPH2CHC4HFeC3HCHCSH3C2H2CHC4SHC2HC2HCSH2C6H4C18H3CH2CH4SCFeC3HC2H4CHCH2CHC3HFeC2HCH2C5HC3HCH2CFeCSC3H2C2HCH3CHCHC3HSFeSH3CHCFeSCSHFeH3CFeS2FeS2FeSFeS3H3C5HCHC8H5C5H2C6H4C5H3C6H4C6HC2H3C3SHCHC3H3CSHC2H3C2HCH2CH2C8HCHCH2PCHCHCHCH3C2H3CHC4HCHCH2PHC10H8CS2CH5CHCH3C2H2CH3CHC5SHPC4SH2C9PC18H16FeH4C2HC9HC2H4CHC3SC3PC7H2C2H2FeH8SPC2H2CHCHC2HC4SHC3HCPH4CFeHCHC2H3CFeC2HCHCH2C2FeS2C2FeS2HCH2S2FeS2FeS2FeSFeS3HCS2FeSHCSHCFeSFeCHCSCSHSFeS2C2H2CHC7H2C7H4C6H3C7HCH6C6H4C6H4CHCHC2HCHC6HCHCHCFe2CHC7H2PC5HC5H3CH2CH6C3H2C6H2C3HPHC2H2C2HC2HC4H2CSHCHC4SC5HCH5C2PC2SC2HCH3CH7C2HC4HCH5CH3C2H9SC3H2C2HC6PC4HC13H8CH11CHC2FeCH2CH2CHCH2PS2C6FeH3CH3C2SC3H6CHPC2HC3HC3FeCH2PC3H3C3HC2SCHCHC2HCH2C3PH3C2HC4H3CHPHSH2CH2FeCHCHC3HCHCH3C2HC4H2CH2CH3CH2CHFeH2C6H2PC2HCHC3HCSH3CSC3H3CHSCHSFeS2FeS2HSHCSCFeSFeSC2S2FeS2CFeS2FeS2FeSFeS3H2C6H4C6H5C6H6C6H4C4HCH3C3SH3C7H3CHCH2CHC8H5SCH3CH2C4HCSHC4HC2H2C4HC2H2C4PC16H9CH4CFeHPH3C7PC18H8CH11SPSHCHFeSCHFeH3CFeCSCHCH2C6HCPHCHCH2CHC5HCH3C2HFeC2H3CHCH3PHC4HSCHC5H2FeHC2H2CH3C2H2CFeCSHCH2CHC5H2C2HC3FeHC4HC2HC3HC2FeCHC4H3C2HCHCPCHCH5CHC5SC2SC4H2C4HC2HC2FeH2CSHC2FeCH6C4H2C4PH3C2FeC5PC9H2C7HCH18C2HCH2CSHPH2C2H2C3FeCHCHC2HC2HC3PFeHCFeS2FeSFeS2FeSFeS2FeSFeS5FeCFeSFeSHS2HFeCSHCH2CSCSFeS2FeS2C6H4C4H2C6H4C6H4C6H4C6H6C3HCHC2H2C2H2CHCHC2HPC14HC3HCH8C2H3FeH4C6PC7HC4H14C6H2CHC2H2SC3FeS2H3CH4CHC5SHC6H2SCH2CH5C3HCHCSHC5SC6PC13H17C2HCHCH3CHCHFeHCH2FeCHFeCHCSHC2HCHC9PC9HC4H10C2H2C2HC3H3SHCH2C5H2CH4C2H3C4HC5FeH2CH2C2HCHC2H3CPC6HC9H5CH6C4HC3H3C2H2C5HPC13H2CSH6CFePHSHPH3FeCHSCH2C4HC3H3C3HC3H2C3HCH6SHSPCH2C3H2CHC2H2C2H2CHCHFeHC2H4FeCSHC3HC3SHCHC2H2CH4CHCH5CHC2SHC2HCH2C2H3C2H2CSCHC4HC2HCHCS2C2H2CHS2FeS3CHCH2FeSFeS2FeS2FeS3FeS2FeS2FeSFeS2HC2FeS2FeS2PSCHCHCH2C3HSC3HC4HCHCH4CHC7H4C6H2CHC6H4C6H4C2HC7H4C6H4SCH2PH3FeCH3CH2C2FeHCHCFeHFeHCH2C2HC4SC2H5C3H2SCHCHC4H5C2H2C3PC14HC3HCH20CHC2HC4FeH5C2HC2HCHCHCH3C3HFeC3H2CH2CHSC2HCSC2HCSC5PC18H2CH17C6PC3HCHC12H6CSPH13C2FeC2SC3H7CHC3HCHCHCHC9HCPCSC2H5C2HC4SHC6SCHCHC2H2CHCHCH2C3HC7HC4H2CH3CH2CHC5SHCFeSCHCHC2H3C2H4CH4CHCH2CHCHCH4PHC3FeS2FeS2FeSFeCS2FeSHFeS2FeSFeS4C3SHSC3HC3H3C6HC2H3C7H4CH2C7H2CHC3HCH3C6H3C2SH2CHPCHC4H3C6H6C2PCSCHPC6PC2H2CHCHC10H5C4H4CH2CHC2HSH3C2SHC2HCH2CHCHC8PC9SHC7H11C3H6C2HC3HCH5C3FeC7HC5HCH2CHCH13CFeHC3H2C2HC8FeC8H2C4H6C2SC2HCH3SC2HCH2SH2C2HFeC3HC2SHCHC5HCHCHCH2C5H2C2HC3HCFe2H4C2H3CSCH2C2HCH2CH4CHCPHCH2CHC2H3SHSCHCSH2C2HC2HC5H2CPHCPC5H2C3H2C3SCFeH3CH5CH2CH3CH3SHSC4HCH2CHCHC2FeCHC2HCSH2C2H2C2PC6H3C3FeCHFeS2HC2PHCH3C3HCPC12H4CH2S2CH3CHCHC3H4C4H4CFeSHFeS2FeSFeS3FeSCFeS2FeSFeS3CS2C2HFeSHFeS2C6H4C7H3C5H2C2HC6HCH2C6H5C3H4CHC3FeH3C4H3C3HCHC6SH7CH7CH4CHCHCHCH2CH3SC2HC2HSC5H2CH3C2HCFeH5FeH4CHC2HC2HC3HC2SCH4C7PC5H2CH3CH8CH2CPHC6PC18H2CH17C5PC14H14C3H3C5H3CHC3HSH3CHC2HC5HC5HCH3C3HCHC2HCSCHC4FeCHC2FeHC2HC4SC2HCHCHC4HPC8H2C3H6CH2SHCHCHC4HC4PCHCHCHCHCHCH2CHCHPC9HCPC6H2SHCHC3H4CHCHCHCH4CHC2HFeS2FeCSCFeS2C2FeS2HSCHS2FeS2FeS2FeSFeS3C3FeS2HCS2PSFeS2FeSCFeSH2SCPCFeHC6H4C6H4C6H4C6H4C4HCH2CHC2HCHSC7H4C6H7CHCH2C2HCH3FeCH2C4HCH2C3HC5H3C2HPHCHCH5FeHCH2CH4C4SHPCH2C4H2C3HCHCHFeCH3C2HC5H4CSC2HCH2CH3SCH4CFeC2HC9H2C5HCH8C2FeCH3C4H2C5SC5H2C2HC3PFeHCHC2HC2H4CSHCH2C6PC18H20C6PC5HC10H6C3H10C4HC2H2C5HPH2CHCH3CH3C2HCFeCHPHCHC3HCSC2FeCHC5H2CH2C2H3CH2C2H2CHC5HC3HC2HC4SCH2C3SH2FeH4CH4CHCFeC2H2PCHCH2CSHFeS2Fe2S3FeSCFeS2FeSFeCS2FeS2FeS2FeSFeS3FeS2FeSCFeSFeS3FeS2HCHFeHSFeS2FeS2FeS2FeSFeS3FeSC6H4C6H4C3H2C4HCHC9HCH2CH3PC6H4C6H4C6H4C6H2C8H4CHCHCH2C2HCH3C2HC2H3CSC2H2C6H3C4HC3HCH5CH2C10H8C5H2C3H2C4HC2H2PH2C4H2C2H3C6PC18H20CHCSHC6PHC8HSC2H10C2HC6PC8HC8H9CH7C2H2SCHCHCHCHCH3C2H2CHCHCHPC5HSHC6H10C6PC18H20CH2C2H2C6HCH3C3S2CPCHCH2CH3C2H2C4H7C4HC2H3CHCHC2SHFeC5HC2HC3HPCH2C2H3CSHCH4CHC2H2CPC6H4C3HC2HC2H3C2HC2H4CHC3H4SH2CPCH3SC3H2FeH2FeS2FeHFeS3CSCH3CH3CHFeS3FeSFeS2FeS2FeS2Fe2S3C2SC7H4C6H5CHSC6H4C6H4C3HC2H2CH4C6H4C4SCH2CH2CSH4CFeHCS2CH2C3HC3HC2HC3HCHCH3SHCH4C2H2C3PHC2SCHC3HCHC2HC4HC2FeCSC2H3C2H2CH2CSH2C3PC19SH2PH15CSC2HCPC6H4FeSHC3H5CHC2HCHC4HCHCH4C4SC5HCHC2HCHCHCSC6PC18H11CH7CFeC3HC2HSHC6PC18H21CHCH4CHCPHSC2H2CH3C3FeC6HC3HC4H2CFeH2CSHC2HCH5CHC2HCHC3H2C2HC2H3C9FeC4H2C2FeSH4CPFeC2H4PC2H5CSC2HCHCHCH2CHCHC2FeC4HC5H2CHCH4PC2SCS2HFeSC3HFeS2FeCFeSFeS2FeS2FeS2FeSFeS2FeHSCH3C2HCFeS2H2S2C2HC4H2CHC6H2SHC6H4C6H4C4H3CSC5HCHC7H4CHCSH4C2HC3HC2HC3SC3H2CHS3C2HC3H3C2HCHC7PC18H7C2H2CH8FeCHFeCH2C2H2CHC2H3CH2CH3SCH2C2HC5H5C4PC4PC2SC2HC10HC2PH5C3H10C4PC17H11CH3CH2FeHC3H4C7HSC2H4C6PC4HC13H6C3H3CH7CH8CH2CHCH4CH5PHC2HC2HCHCSCHC2HC6H2C2SHC3HPH3CHCH4FeH2CH3CH3C6H3CPHCHC5H2CH2C2HC2H4CSHC2SCHC4SH2CH2C3HCHCHFeH3CHCHC4HSCSC2SCHC3H3CHC3H3CH4SHC5HC3HCHC2HC2H3CHC3H2FeCHCHCHPH2C2HCSCPHCHC3HCH2C4HC2FeHSHCHCS2FeS2FeS2FeSFeS3H2SHCSHC7HC5H3C2HC7H4C6H2CH2C2H2C2H2FeHCSHCH5FeCHC2HCH2C4HCH4CH2CHC2HC6HC3SHC5H2C2H2CHC3HCSC2H2CHC2HCHFeH2CHCH2CHC5HC2HSH2CFeHCFeSHCHCHC3SC3H5C6PC9HC8H11S2C2H6C4HC2PC3H3CHC10H2SH5CH2C2H5CH3CHC2HSHPHC2HSH2C4HCSC3HCH2C2HSC2H2CH4CHC2H3C4HCH6SHCFeS2C3SC2H2CSCHFeS2FeS2FeSFeS3CSC2SC4HSC7H5C3H2CHCSC2FeC2HCHSCH4C8H8C8H4C6H6C8PHCHCHC2HC11PC19SH18CHCH3C4PC3SC8HC2H3SH6SCH3CHC2HPHC5H3C2HFeCH2C3H3C4SH2C2H2CHCH2C2FeHC6HC2H3CH2C2H7FeCH3CPFe2C3H4CHC3SC2H2C3H2C3H4C3H2CHC2HC7HSFeCH4CH4C2H2C2HSHCH8CHC2HC8PHSHCH3CPC3H6C2HFeHC2H2CH3C3HCFeHCH2CFeC3SC4HSCFeCS2FeS2CHFeS2H2C2SCFeCHFeHSCFeS3HFeS2FeS2FeSFeHS2H4S2FeSC2SCSC8H4CSH2CHC3HC7FeH3C6H4C3HC3H5C6HC7H4C6H4SFeC3H2CH2C4H2C6PC18H16CHCHCH2CHSPC7H5CPC2PCHC3HCHC7FeC2H8C2H4C2HC3SHC3H3CHC3H2C3HPC3H2CHC3H7CH2CFeCHS2CHCH7C8PC2HC2FeSHCPCH4C2H2C2HPHCH2C4HC4HC4H3CH2C4HFeSC2H5C2FeC2H6C2H3C2HCHCHC3HCH2CH2CHC2HCHC2SCHCHCH4SC8HCH5C2HCHSH3CHC2HCHCHSCHC5H3CH2C3HSCHCH2CHPC2HFeS2FeS2FeCFeS3FeSFeS2FeSC2SCFeS2FeS2FeCFeS3FeS2FeSHFeSFeS3FeS2FeS2FeSFeS3FeS2FeS2CHC4HSC6H4C6H4C6H2CHC4SCH2CH3CH2C6H4C6H5C4HSC9HCH3C6H4C6H5CH2C2H5C4H2C10H9C2HC3HSC9PC18H20CH2C6HC4P2H3C4PC18H18CHC3HCH4C2H2C2HCH4CH3CH7C5H3SHCH4C2HCHC2H3C3H2C2H4CH3C4HCHCHCHCHC3HC3HFeH3C2H2C6PC18HCH18C3PC14H2C2H13CH3C4HCH4CHC2SCHCHCPC2PHC4HC4H3CHC6HCH2C3H5C3H2CHCHSH3C4PCHC2H4C2H4C2H2C2H5FeS2FeS2FeSFeS3FeS2FeS2FeSFeS3CHCHCHC6H3C2HC2H6C3HSCH2SH2C4H2C2HC6H5CFeC3SH2CHCH3C7H2C3H2CHCH3CH2C3SH2C3HCHCSH2C2SC8PC18SCH18C3HC4HCH4CH5C3HCSHC5HCHCHCHC6H2CHC5HCHC4H7SH2C3HC3SHFeCH3CH7C5FeC2PC2FeC2HCH2C5HC4PC17H16CH3CH2CHC2H2CH2SH3C6PC8H2C6H2CHC5HCSHCH2CHCH3CPHC3H3PHCH3CHCHCHCH2CHCHC2HC5HC4HC4HCH2CHC2PC3HC2HC2HC2H2SH3PHC2H3CHCPCH5SCH2CHC6HCPCHCH2CHSCH2C4SHFeS2FeS2FeSFeS3FeSCFeS2FeSFeS3HCHC2HCPCHC6H4C2HC3HCH2C6H4C6H4C3H2C2HCHCH5C5H3C2H2C2HCSC2H2CH2C3H2C3H5CH2C6HCH2C2PC8H4CH3C3PH2SH6CHPH6CHC5H4SC6PC18H24CH2C10FeCHC4H6C4HPC18H4CH11CHC5HCHCH7CHC3HC11H3CH2CHCHC6PC6SH3CHCHC3HC4HCHC2HCH3CH2C2HC6HCH2C2H2C3H2C3HCSCH2C2HFeC2HCH3CHFeH2CHC
_chemical_formula_sum              "C8640 Fe576 S1152 H6912 P288"
_cell_length_a       86.0699
_cell_length_b       86.0473
_cell_length_c       86.3932
_cell_angle_alpha    73.8039
_cell_angle_beta     73.7881
_cell_angle_gamma    73.8066

_space_group_name_H-M_alt    "P 1"
_space_group_IT_number       1

loop_
  _space_group_symop_operation_xyz
  'x, y, z'

loop_
  _atom_site_type_symbol
  _atom_site_label
  _atom_site_symmetry_multiplicity
  _atom_site_fract_x
  _atom_site_fract_y
  _atom_site_fract_z
  _atom_site_occupancy
  C   C1        1.0  0.16691  0.15418  0.43523  1.0000
  C   C2        1.0  0.18581  0.20561  0.99745  1.0000
  Fe  Fe1       1.0  0.07815  0.11466  0.24326  1.0000
  S   S1        1.0  0.05399  0.12799  0.25685  1.0000
  S   S2        1.0  0.08748  0.08739  0.25344  1.0000
  Fe  Fe2       1.0  0.08377  0.14570  0.21727  1.0000
  S   S3        1.0  0.06025  0.16132  0.22899  1.0000
  S   S4        1.0  0.09889  0.15830  0.19372  1.0000
  Fe  Fe3       1.0  0.06783  0.14801  0.25288  1.0000
  S   S5        1.0  0.06667  0.15991  0.27372  1.0000
  Fe  Fe4       1.0  0.04877  0.14000  0.23160  1.0000
  H   H1        1.0  0.13562  0.20322  0.34546  1.0000
  S   S6        1.0  0.09223  0.13380  0.24098  1.0000
  S   S7        1.0  0.07196  0.12517  0.21828  1.0000
  Fe  Fe5       1.0  0.18653  0.01562  0.27218  1.0000
  S   S8        1.0  0.19648  0.03050  0.24738  1.0000
  S   S9        1.0  0.18581  0.01740  0.29810  1.0000
  Fe  Fe6       1.0  0.17418  0.99406  0.25721  1.0000
  S   S10       1.0  0.18323  0.00701  0.23121  1.0000
  C   C3        1.0  0.00986  0.13618  0.22665  1.0000
  Fe  Fe7       1.0  0.20583  0.00617  0.23962  1.0000
  C   C4        1.0  0.05339  0.22151  0.24991  1.0000
  Fe  Fe8       1.0  0.17306  0.03049  0.24070  1.0000
  S   S11       1.0  0.16162  0.05405  0.22444  1.0000
  S   S12       1.0  0.19781  0.99110  0.26492  1.0000
  S   S13       1.0  0.16207  0.01766  0.26627  1.0000
  C   C5        1.0  0.23824  0.07411  0.09838  1.0000
  C   C6        1.0  0.99337  0.18311  0.19164  1.0000
  S   S14       1.0  0.21798  0.05014  0.33566  1.0000
  C   C7        1.0  0.22756  0.00169  0.12163  1.0000
  H   H2        1.0  0.10302  0.22258  0.20598  1.0000
  S   S15       1.0  0.22176  0.09479  0.33366  1.0000
  Fe  Fe9       1.0  0.12536  0.21174  0.27910  1.0000
  S   S16       1.0  0.15079  0.19554  0.27520  1.0000
  S   S17       1.0  0.10998  0.21278  0.26146  1.0000
  Fe  Fe10      1.0  0.14590  0.18897  0.30284  1.0000
  S   S18       1.0  0.15134  0.16278  0.31735  1.0000
  S   S19       1.0  0.11972  0.20376  0.30672  1.0000
  C   C8        1.0  0.20393  0.13642  0.29730  1.0000
  C   C9        1.0  0.19708  0.15201  0.28868  1.0000
  C   C10       1.0  0.18094  0.16017  0.29484  1.0000
  C   C11       1.0  0.17136  0.15250  0.30935  1.0000
  C   C12       1.0  0.17788  0.13655  0.31756  1.0000
  C   C13       1.0  0.19418  0.12859  0.31157  1.0000
  H   H3        1.0  0.20444  0.15808  0.27757  1.0000
  H   H4        1.0  0.17608  0.17251  0.28848  1.0000
  H   H5        1.0  0.17043  0.13045  0.32867  1.0000
  H   H6        1.0  0.19913  0.11644  0.31804  1.0000
  C   C14       1.0  0.19505  0.02773  0.30709  1.0000
  C   C15       1.0  0.19162  0.02444  0.32433  1.0000
  C   C16       1.0  0.19868  0.03160  0.33259  1.0000
  C   C17       1.0  0.20931  0.04231  0.32382  1.0000
  C   C18       1.0  0.21273  0.04594  0.30645  1.0000
  C   C19       1.0  0.20555  0.03865  0.29806  1.0000
  H   H7        1.0  0.18355  0.01607  0.33145  1.0000
  H   H8        1.0  0.19598  0.02868  0.34596  1.0000
  H   H9        1.0  0.22304  0.03785  0.25770  1.0000
  H   H10       1.0  0.20818  0.04134  0.28474  1.0000
  C   C20       1.0  0.07974  0.17370  0.27017  1.0000
  C   C21       1.0  0.08417  0.17637  0.28354  1.0000
  C   C22       1.0  0.09407  0.18782  0.28096  1.0000
  C   C23       1.0  0.09930  0.19690  0.26502  1.0000
  C   C24       1.0  0.09506  0.19402  0.25167  1.0000
  C   C25       1.0  0.08536  0.18244  0.25425  1.0000
  H   H11       1.0  0.07980  0.16969  0.29592  1.0000
  H   H12       1.0  0.09719  0.18999  0.29134  1.0000
  H   H13       1.0  0.09899  0.20100  0.23932  1.0000
  H   H14       1.0  0.08172  0.18063  0.24403  1.0000
  C   C26       1.0  0.10812  0.07851  0.24518  1.0000
  C   C27       1.0  0.11484  0.06211  0.25225  1.0000
  C   C28       1.0  0.13125  0.05456  0.24600  1.0000
  C   C29       1.0  0.14101  0.06334  0.23250  1.0000
  C   C30       1.0  0.13431  0.07978  0.22538  1.0000
  C   C31       1.0  0.11792  0.08741  0.23179  1.0000
  H   H15       1.0  0.10729  0.05523  0.26262  1.0000
  H   H16       1.0  0.13623  0.04188  0.25153  1.0000
  H   H17       1.0  0.14179  0.08664  0.21491  1.0000
  H   H18       1.0  0.11279  0.10010  0.22628  1.0000
  H   H19       1.0  0.20191  0.12764  0.39751  1.0000
  C   C32       1.0  0.21599  0.21447  0.44519  1.0000
  C   C33       1.0  0.22381  0.02975  0.20310  1.0000
  H   H20       1.0  0.99023  0.10979  0.25841  1.0000
  C   C34       1.0  0.15422  0.01049  0.19833  1.0000
  H   H21       1.0  0.01385  0.22587  0.17443  1.0000
  H   H22       1.0  0.21834  0.05357  0.18685  1.0000
  H   H23       1.0  0.21456  0.03342  0.21354  1.0000
  C   C35       1.0  0.22333  0.07474  0.23025  1.0000
  C   C36       1.0  0.07135  0.21171  0.19359  1.0000
  C   C37       1.0  0.07574  0.20609  0.17888  1.0000
  C   C38       1.0  0.08523  0.18992  0.17840  1.0000
  C   C39       1.0  0.09005  0.17943  0.19269  1.0000
  C   C40       1.0  0.08609  0.18532  0.20709  1.0000
  C   C41       1.0  0.07665  0.20133  0.20762  1.0000
  C   C42       1.0  0.23202  0.98549  0.28007  1.0000
  H   H24       1.0  0.08817  0.18531  0.16725  1.0000
  H   H25       1.0  0.08999  0.17722  0.21798  1.0000
  C   C43       1.0  0.22914  0.21933  0.32057  1.0000
  C   C44       1.0  0.23597  0.98570  0.16679  1.0000
  H   H26       1.0  0.14324  0.09274  0.33267  1.0000
  S   S20       1.0  0.22494  0.12760  0.29057  1.0000
  C   C45       1.0  0.21761  0.20241  0.02794  1.0000
  C   C46       1.0  0.20017  0.20630  0.03253  1.0000
  C   C47       1.0  0.12536  0.01012  0.22344  1.0000
  H   H27       1.0  0.19323  0.19720  0.03361  1.0000
  H   H28       1.0  0.22406  0.19031  0.02560  1.0000
  C   C48       1.0  0.17807  0.13278  0.37010  1.0000
  C   C49       1.0  0.12839  0.00150  0.21090  1.0000
  H   H29       1.0  0.22965  0.10964  0.20224  1.0000
  H   H30       1.0  0.17832  0.11383  0.35807  1.0000
  C   C50       1.0  0.22241  0.15167  0.19130  1.0000
  C   C51       1.0  0.00690  0.12497  0.24181  1.0000
  C   C52       1.0  0.20846  0.18725  0.33351  1.0000
  C   C53       1.0  0.23722  0.11125  0.14665  1.0000
  H   H31       1.0  0.01514  0.12208  0.25014  1.0000
  C   C54       1.0  0.21210  0.11253  0.26486  1.0000
  C   C55       1.0  0.17520  0.15686  0.41862  1.0000
  C   C56       1.0  0.21356  0.09724  0.17543  1.0000
  C   C57       1.0  0.20207  0.09905  0.19035  1.0000
  H   H32       1.0  0.13295  0.99441  0.25654  1.0000
  P   P1        1.0  0.17892  0.15763  0.38517  1.0000
  C   C58       1.0  0.19610  0.16734  0.38177  1.0000
  C   C59       1.0  0.19285  0.18345  0.38441  1.0000
  C   C60       1.0  0.20589  0.19100  0.38261  1.0000
  C   C61       1.0  0.22228  0.18248  0.37831  1.0000
  C   C62       1.0  0.22555  0.20199  0.26436  1.0000
  C   C63       1.0  0.21265  0.15901  0.37708  1.0000
  H   H33       1.0  0.06124  0.06816  0.21286  1.0000
  C   C64       1.0  0.16498  0.17201  0.37276  1.0000
  C   C65       1.0  0.10012  0.23100  0.21416  1.0000
  C   C66       1.0  0.15787  0.18402  0.34601  1.0000
  C   C67       1.0  0.16850  0.17298  0.35572  1.0000
  H   H34       1.0  0.21484  0.08585  0.22558  1.0000
  H   H35       1.0  0.18023  0.19006  0.38819  1.0000
  H   H36       1.0  0.20336  0.20332  0.38494  1.0000
  H   H37       1.0  0.03428  0.14780  0.13834  1.0000
  C   C68       1.0  0.15089  0.01970  0.21033  1.0000
  H   H38       1.0  0.21567  0.14674  0.37465  1.0000
  C   C69       1.0  0.21311  0.16006  0.98254  1.0000
  H   H39       1.0  0.14818  0.14701  0.40248  1.0000
  H   H40       1.0  0.02502  0.22489  0.21983  1.0000
  H   H41       1.0  0.06062  0.04044  0.20994  1.0000
  H   H42       1.0  0.17921  0.16488  0.34993  1.0000
  C   C70       1.0  0.21122  0.08766  0.16583  1.0000
  C   C71       1.0  0.19771  0.08001  0.17105  1.0000
  C   C72       1.0  0.18647  0.08174  0.18598  1.0000
  C   C73       1.0  0.18862  0.09128  0.19559  1.0000
  H   H43       1.0  0.20993  0.15072  0.99352  1.0000
  H   H44       1.0  0.17334  0.04582  0.15596  1.0000
  C   C74       1.0  0.13654  0.01952  0.22285  1.0000
  C   C75       1.0  0.05263  0.21118  0.12985  1.0000
  H   H45       1.0  0.22015  0.08557  0.15454  1.0000
  H   H46       1.0  0.19634  0.07224  0.16378  1.0000
  H   H47       1.0  0.17620  0.07550  0.19026  1.0000
  H   H48       1.0  0.17219  0.15602  0.44443  1.0000
  C   C76       1.0  0.22887  0.12412  0.12048  1.0000
  H   H49       1.0  0.12963  0.20244  0.37546  1.0000
  C   C77       1.0  0.22682  0.16673  0.98031  1.0000
  H   H50       1.0  0.07348  0.00250  0.25133  1.0000
  C   C78       1.0  0.14291  0.00148  0.19854  1.0000
  H   H51       1.0  0.07316  0.20547  0.21908  1.0000
  H   H52       1.0  0.99759  0.18327  0.20228  1.0000
  C   C79       1.0  0.99276  0.11809  0.24649  1.0000
  C   C80       1.0  0.22241  0.08837  0.07741  1.0000
  H   H53       1.0  0.00774  0.14709  0.13274  1.0000
  Fe  Fe11      1.0  0.13138  0.22428  0.30634  1.0000
  H   H54       1.0  0.16004  0.12922  0.29565  1.0000
  C   C81       1.0  0.15099  0.18289  0.37982  1.0000
  H   H55       1.0  0.16538  0.08252  0.34860  1.0000
  C   C82       1.0  0.99911  0.13982  0.21594  1.0000
  H   H56       1.0  0.20242  0.18180  0.29266  1.0000
  C   C83       1.0  0.18342  0.11694  0.36666  1.0000
  P   P2        1.0  0.10632  0.01083  0.23897  1.0000
  C   C84       1.0  0.10962  0.01243  0.25814  1.0000
  H   H57       1.0  0.21219  0.12397  0.14420  1.0000
  C   C85       1.0  0.18076  0.21761  0.34957  1.0000
  C   C86       1.0  0.17121  0.21455  0.00570  1.0000
  S   S21       1.0  0.02568  0.14731  0.22114  1.0000
  C   C87       1.0  0.16840  0.15454  0.40663  1.0000
  C   C88       1.0  0.01918  0.21694  0.14581  1.0000
  C   C89       1.0  0.11446  0.01360  0.28859  1.0000
  H   H58       1.0  0.18693  0.16059  0.41527  1.0000
  C   C90       1.0  0.09271  0.04469  0.23146  1.0000
  C   C91       1.0  0.99790  0.18556  0.16223  1.0000
  C   C92       1.0  0.00287  0.18742  0.17563  1.0000
  Fe  Fe12      1.0  0.15937  0.21703  0.27727  1.0000
  P   P3        1.0  0.02344  0.19052  0.17290  1.0000
  C   C93       1.0  0.02314  0.20129  0.18826  1.0000
  C   C94       1.0  0.03719  0.17020  0.17542  1.0000
  C   C95       1.0  0.05303  0.16815  0.17819  1.0000
  C   C96       1.0  0.06367  0.15250  0.17998  1.0000
  C   C97       1.0  0.05852  0.13869  0.17947  1.0000
  C   C98       1.0  0.04274  0.14053  0.17692  1.0000
  C   C99       1.0  0.03215  0.15620  0.17479  1.0000
  C   C100      1.0  0.01788  0.21864  0.18555  1.0000
  H   H59       1.0  0.22311  0.99078  0.12270  1.0000
  C   C101      1.0  0.02382  0.21825  0.21143  1.0000
  C   C102      1.0  0.02867  0.20098  0.21446  1.0000
  C   C103      1.0  0.02821  0.19251  0.20300  1.0000
  C   C104      1.0  0.03034  0.20323  0.15280  1.0000
  C   C105      1.0  0.12391  0.22866  0.01926  1.0000
  H   H60       1.0  0.20617  0.15743  0.31594  1.0000
  H   H61       1.0  0.00634  0.21972  0.15220  1.0000
  H   H62       1.0  0.04942  0.19667  0.25580  1.0000
  C   C106      1.0  0.04715  0.20045  0.14465  1.0000
  C   C107      1.0  0.18922  0.09131  0.30990  1.0000
  H   H63       1.0  0.22113  0.20137  0.44556  1.0000
  H   H64       1.0  0.14536  0.99446  0.18916  1.0000
  H   H65       1.0  0.00531  0.18822  0.14991  1.0000
  H   H66       1.0  0.16181  0.08449  0.23902  1.0000
  H   H67       1.0  0.05708  0.17862  0.17916  1.0000
  H   H68       1.0  0.07582  0.15099  0.18217  1.0000
  H   H69       1.0  0.06664  0.12651  0.18144  1.0000
  H   H70       1.0  0.03853  0.12973  0.17705  1.0000
  H   H71       1.0  0.01994  0.15712  0.17309  1.0000
  H   H72       1.0  0.23436  0.16250  0.98946  1.0000
  C   C108      1.0  0.22649  0.22505  0.44314  1.0000
  H   H73       1.0  0.14564  0.15763  0.28556  1.0000
  H   H74       1.0  0.03331  0.19416  0.22544  1.0000
  H   H75       1.0  0.03215  0.17914  0.20558  1.0000
  C   C109      1.0  0.22490  0.12015  0.13776  1.0000
  C   C110      1.0  0.17005  0.06090  0.27563  1.0000
  H   H76       1.0  0.18890  0.19220  0.00104  1.0000
  C   C111      1.0  0.15189  0.14905  0.43999  1.0000
  H   H77       1.0  0.05622  0.19037  0.14984  1.0000
  C   C112      1.0  0.06423  0.09701  0.29482  1.0000
  C   C113      1.0  0.05321  0.11151  0.29845  1.0000
  C   C114      1.0  0.05917  0.12400  0.30079  1.0000
  C   C115      1.0  0.07614  0.12203  0.29947  1.0000
  C   C116      1.0  0.08736  0.10743  0.29597  1.0000
  C   C117      1.0  0.08119  0.09493  0.29365  1.0000
  P   P4        1.0  0.10933  0.10546  0.29406  1.0000
  C   C118      1.0  0.12038  0.08381  0.29710  1.0000
  C   C119      1.0  0.11716  0.11798  0.27415  1.0000
  C   C120      1.0  0.12838  0.11080  0.26143  1.0000
  C   C121      1.0  0.13444  0.12081  0.24632  1.0000
  C   C122      1.0  0.12979  0.13805  0.24394  1.0000
  C   C123      1.0  0.11880  0.14532  0.25655  1.0000
  C   C124      1.0  0.11223  0.13537  0.27142  1.0000
  C   C125      1.0  0.12127  0.07395  0.28624  1.0000
  C   C126      1.0  0.12940  0.05721  0.28894  1.0000
  C   C127      1.0  0.13700  0.05018  0.30235  1.0000
  C   C128      1.0  0.13643  0.05988  0.31311  1.0000
  C   C129      1.0  0.12805  0.07653  0.31061  1.0000
  C   C130      1.0  0.11092  0.11419  0.31024  1.0000
  C   C131      1.0  0.10111  0.11045  0.32621  1.0000
  C   C132      1.0  0.10227  0.11711  0.33879  1.0000
  C   C133      1.0  0.11324  0.12751  0.33553  1.0000
  C   C134      1.0  0.12310  0.13122  0.31972  1.0000
  C   C135      1.0  0.12198  0.12457  0.30713  1.0000
  H   H78       1.0  0.05971  0.08756  0.29239  1.0000
  H   H79       1.0  0.04013  0.11330  0.29892  1.0000
  H   H80       1.0  0.05073  0.13554  0.30299  1.0000
  H   H81       1.0  0.08043  0.13213  0.30090  1.0000
  H   H82       1.0  0.08922  0.08363  0.29065  1.0000
  H   H83       1.0  0.13240  0.09757  0.26289  1.0000
  H   H84       1.0  0.14248  0.11517  0.23634  1.0000
  H   H85       1.0  0.13425  0.14582  0.23217  1.0000
  H   H86       1.0  0.11497  0.15869  0.25463  1.0000
  H   H87       1.0  0.10335  0.14133  0.28080  1.0000
  H   H88       1.0  0.11556  0.07915  0.27569  1.0000
  H   H89       1.0  0.12997  0.04969  0.28054  1.0000
  H   H90       1.0  0.14358  0.03728  0.30425  1.0000
  H   H91       1.0  0.14252  0.05444  0.32341  1.0000
  H   H92       1.0  0.12759  0.08357  0.31933  1.0000
  H   H93       1.0  0.09251  0.10245  0.32889  1.0000
  H   H94       1.0  0.09455  0.11431  0.35104  1.0000
  H   H95       1.0  0.11405  0.13282  0.34520  1.0000
  H   H96       1.0  0.13155  0.13937  0.31719  1.0000
  H   H97       1.0  0.12979  0.12756  0.29502  1.0000
  C   C136      1.0  0.06990  0.05722  0.21763  1.0000
  C   C137      1.0  0.99266  0.19087  0.08362  1.0000
  H   H98       1.0  0.14952  0.16984  0.25556  1.0000
  C   C138      1.0  0.22936  0.10943  0.25925  1.0000
  H   H99       1.0  0.01922  0.20591  0.25705  1.0000
  H   H100      1.0  0.08205  0.07090  0.22633  1.0000
  C   C139      1.0  0.17008  0.09281  0.25618  1.0000
  Fe  Fe13      1.0  0.23327  0.06971  0.32772  1.0000
  H   H101      1.0  0.16994  0.10499  0.24838  1.0000
  H   H102      1.0  0.16044  0.18405  0.33302  1.0000
  H   H103      1.0  0.17831  0.06848  0.29288  1.0000
  C   C140      1.0  0.19661  0.21398  0.98479  1.0000
  H   H104      1.0  0.16879  0.15356  0.23555  1.0000
  Fe  Fe14      1.0  0.23511  0.10467  0.30811  1.0000
  H   H105      1.0  0.20995  0.16095  0.34196  1.0000
  C   C141      1.0  0.10932  0.22947  0.16092  1.0000
  C   C142      1.0  0.03261  0.17373  0.12691  1.0000
  C   C143      1.0  0.00841  0.18778  0.11516  1.0000
  H   H106      1.0  0.15395  0.21341  0.98050  1.0000
  C   C144      1.0  0.09958  0.99157  0.24403  1.0000
  C   C145      1.0  0.16024  0.09708  0.30906  1.0000
  H   H107      1.0  0.08625  0.02966  0.26440  1.0000
  H   H108      1.0  0.11962  0.99470  0.21069  1.0000
  H   H109      1.0  0.13705  0.99539  0.28333  1.0000
  C   C146      1.0  0.02320  0.18817  0.11882  1.0000
  C   C147      1.0  0.08159  0.05877  0.22522  1.0000
  C   C148      1.0  0.12614  0.00317  0.27899  1.0000
  S   S22       1.0  0.23075  0.99890  0.22336  1.0000
  H   H110      1.0  0.17012  0.04851  0.28310  1.0000
  H   H111      1.0  0.22458  0.13395  0.21422  1.0000
  C   C149      1.0  0.08059  0.02745  0.22242  1.0000
  H   H112      1.0  0.19462  0.08128  0.33409  1.0000
  C   C150      1.0  0.06951  0.04158  0.21608  1.0000
  C   C151      1.0  0.19315  0.02399  0.15653  1.0000
  C   C152      1.0  0.22090  0.22562  0.39964  1.0000
  S   S23       1.0  0.15712  0.20884  0.30465  1.0000
  H   H113      1.0  0.07157  0.21407  0.16803  1.0000
  C   C153      1.0  0.20436  0.01251  0.16560  1.0000
  H   H114      1.0  0.21175  0.09729  0.07361  1.0000
  H   H115      1.0  0.21898  0.21480  0.26386  1.0000
  C   C154      1.0  0.20184  0.10902  0.38548  1.0000
  H   H116      1.0  0.22102  0.16628  0.16682  1.0000
  C   C155      1.0  0.19288  0.02748  0.18773  1.0000
  H   H117      1.0  0.22823  0.21178  0.34694  1.0000
  C   C156      1.0  0.19484  0.22446  0.34232  1.0000
  C   C157      1.0  0.23528  0.21562  0.39232  1.0000
  C   C158      1.0  0.14519  0.14649  0.42815  1.0000
  C   C159      1.0  0.14384  0.19463  0.35308  1.0000
  C   C160      1.0  0.04371  0.20981  0.25347  1.0000
  C   C161      1.0  0.22565  0.16649  0.37566  1.0000
  C   C162      1.0  0.23111  0.99883  0.28673  1.0000
  H   H118      1.0  0.04312  0.22827  0.06940  1.0000
  H   H119      1.0  0.23264  0.08250  0.05354  1.0000
  C   C163      1.0  0.14043  0.19409  0.36999  1.0000
  H   H120      1.0  0.12593  0.23096  0.05730  1.0000
  C   C164      1.0  0.18524  0.13715  0.38064  1.0000
  C   C165      1.0  0.09762  0.02246  0.26812  1.0000
  H   H121      1.0  0.23490  0.22449  0.29386  1.0000
  P   P5        1.0  0.20728  0.22099  0.32254  1.0000
  H   H122      1.0  0.23840  0.15978  0.37281  1.0000
  C   C166      1.0  0.10018  0.02322  0.28317  1.0000
  C   C167      1.0  0.18502  0.08604  0.32708  1.0000
  H   H123      1.0  0.10188  0.04617  0.23700  1.0000
  H   H124      1.0  0.19987  0.09294  0.37132  1.0000
  H   H125      1.0  0.20261  0.20938  0.29530  1.0000
  C   C168      1.0  0.16546  0.08122  0.25076  1.0000
  H   H126      1.0  0.20215  0.09080  0.30391  1.0000
  H   H127      1.0  0.99070  0.17863  0.06583  1.0000
  C   C169      1.0  0.19544  0.10512  0.37421  1.0000
  H   H128      1.0  0.15064  0.10081  0.30211  1.0000
  H   H129      1.0  0.10138  0.22181  0.16063  1.0000
  C   C170      1.0  0.20393  0.09931  0.27091  1.0000
  H   H130      1.0  0.20532  0.12516  0.26505  1.0000
  H   H131      1.0  0.20392  0.06331  0.24713  1.0000
  H   H132      1.0  0.18360  0.12493  0.24545  1.0000
  C   C171      1.0  0.17109  0.22034  0.36490  1.0000
  H   H133      1.0  0.09100  0.03118  0.29068  1.0000
  C   C172      1.0  0.20413  0.19901  0.30568  1.0000
  C   C173      1.0  0.09193  0.02886  0.23063  1.0000
  H   H134      1.0  0.14551  0.14695  0.45287  1.0000
  C   C174      1.0  0.15344  0.14915  0.41153  1.0000
  H   H135      1.0  0.20344  0.10626  0.19809  1.0000
  C   C175      1.0  0.20614  0.16962  0.31718  1.0000
  C   C176      1.0  0.12490  0.22887  0.15021  1.0000
  H   H136      1.0  0.22273  0.02474  0.06293  1.0000
  P   P6        1.0  0.99497  0.20666  0.10679  1.0000
  C   C177      1.0  0.15606  0.09227  0.32628  1.0000
  H   H137      1.0  0.16161  0.05637  0.25652  1.0000
  C   C178      1.0  0.16848  0.08664  0.33528  1.0000
  H   H138      1.0  0.16829  0.14137  0.36454  1.0000
  C   C179      1.0  0.19174  0.22206  0.03544  1.0000
  C   C180      1.0  0.20613  0.20111  0.32049  1.0000
  H   H139      1.0  0.19322  0.02292  0.14430  1.0000
  C   C181      1.0  0.19903  0.22090  0.44597  1.0000
  C   C182      1.0  0.02668  0.21503  0.25424  1.0000
  C   C183      1.0  0.12926  0.22453  0.03406  1.0000
  H   H140      1.0  0.23568  0.11961  0.25518  1.0000
  C   C184      1.0  0.00286  0.17287  0.12037  1.0000
  H   H141      1.0  0.22428  0.16751  0.25323  1.0000
  H   H142      1.0  0.13414  0.02680  0.23198  1.0000
  C   C185      1.0  0.20406  0.18331  0.30409  1.0000
  H   H143      1.0  0.23237  0.18817  0.37734  1.0000
  H   H144      1.0  0.21285  0.00609  0.18843  1.0000
  H   H145      1.0  0.23746  0.06733  0.26741  1.0000
  H   H146      1.0  0.02869  0.20603  0.08619  1.0000
  C   C186      1.0  0.12379  0.00264  0.26379  1.0000
  H   H147      1.0  0.22106  0.05409  0.29960  1.0000
  C   C187      1.0  0.18180  0.03879  0.17865  1.0000
  H   H148      1.0  0.17990  0.09246  0.20721  1.0000
  H   H149      1.0  0.16003  0.21542  0.37033  1.0000
  H   H150      1.0  0.14822  0.18288  0.39283  1.0000
  C   C188      1.0  0.19670  0.12489  0.38878  1.0000
  H   H151      1.0  0.08033  0.01550  0.22080  1.0000
  C   C189      1.0  0.20416  0.01439  0.18128  1.0000
  P   P7        1.0  0.21929  0.99639  0.15622  1.0000
  H   H152      1.0  0.20736  0.07261  0.27657  1.0000
  C   C190      1.0  0.21328  0.08304  0.27158  1.0000
  C   C191      1.0  0.01222  0.15850  0.12860  1.0000
  H   H153      1.0  0.06571  0.20936  0.12397  1.0000
  C   C192      1.0  0.22435  0.08541  0.09358  1.0000
  H   H154      1.0  0.23376  0.02522  0.14434  1.0000
  H   H155      1.0  0.16317  0.20804  0.01587  1.0000
  H   H156      1.0  0.20997  0.19713  0.25139  1.0000
  H   H157      1.0  0.21436  0.22105  0.41199  1.0000
  H   H158      1.0  0.99108  0.17241  0.11846  1.0000
  H   H159      1.0  0.13983  0.21449  0.03614  1.0000
  C   C193      1.0  0.22659  0.21429  0.02634  1.0000
  H   H160      1.0  0.17009  0.22213  0.20361  1.0000
  C   C194      1.0  0.18190  0.03702  0.16305  1.0000
  H   H161      1.0  0.22366  0.99962  0.29901  1.0000
  H   H162      1.0  0.19286  0.02907  0.19973  1.0000
  H   H163      1.0  0.21123  0.09982  0.39127  1.0000
  H   H164      1.0  0.21934  0.13099  0.11366  1.0000
  C   C195      1.0  0.22561  0.14014  0.16769  1.0000
  H   H165      1.0  0.13362  0.14238  0.43185  1.0000
  C   C196      1.0  0.16534  0.06532  0.26056  1.0000
  C   C197      1.0  0.20832  0.17161  0.33186  1.0000
  C   C198      1.0  0.02712  0.15891  0.13181  1.0000
  C   C199      1.0  0.16676  0.14802  0.24864  1.0000
  C   C200      1.0  0.15595  0.15723  0.25989  1.0000
  C   C201      1.0  0.15363  0.15030  0.27680  1.0000
  C   C202      1.0  0.16175  0.13401  0.28248  1.0000
  C   C203      1.0  0.17204  0.12434  0.27125  1.0000
  C   C204      1.0  0.17494  0.13172  0.25430  1.0000
  P   P8        1.0  0.18176  0.10283  0.27844  1.0000
  C   C205      1.0  0.17679  0.09701  0.30076  1.0000
  C   C206      1.0  0.17462  0.08855  0.27150  1.0000
  C   C207      1.0  0.17459  0.07241  0.28115  1.0000
  H   H166      1.0  0.04397  0.17411  0.12978  1.0000
  H   H167      1.0  0.17312  0.04888  0.18379  1.0000
  P   P9        1.0  0.23179  0.10605  0.16899  1.0000
  C   C208      1.0  0.22845  0.17535  0.25838  1.0000
  H   H168      1.0  0.22023  0.16233  0.19658  1.0000
  H   H169      1.0  0.17706  0.21036  0.34335  1.0000
  H   H170      1.0  0.11641  0.01407  0.30030  1.0000
  H   H171      1.0  0.21519  0.09200  0.10235  1.0000
  H   H172      1.0  0.00489  0.18344  0.08471  1.0000
  H   H173      1.0  0.21039  0.18854  0.34491  1.0000
  H   H174      1.0  0.16550  0.01042  0.18881  1.0000
  H   H175      1.0  0.15938  0.02705  0.21000  1.0000
  S   S24       1.0  0.18306  0.22433  0.26180  1.0000
  C   C209      1.0  0.22750  0.00695  0.13565  1.0000
  H   H176      1.0  0.06645  0.21724  0.24987  1.0000
  C   C210      1.0  0.23048  0.07998  0.26625  1.0000
  C   C211      1.0  0.00578  0.22281  0.09463  1.0000
  C   C212      1.0  0.08271  0.99122  0.24982  1.0000
  C   C213      1.0  0.22042  0.19201  0.25733  1.0000
  C   C214      1.0  0.01825  0.22706  0.19707  1.0000
  C   C215      1.0  0.22592  0.04118  0.18790  1.0000
  H   H177      1.0  0.02722  0.19968  0.11598  1.0000
  H   H178      1.0  0.19099  0.21278  0.44705  1.0000
  C   C216      1.0  0.23360  0.01365  0.20469  1.0000
  H   H179      1.0  0.18413  0.99415  0.16307  1.0000
  C   C217      1.0  0.02221  0.21883  0.08575  1.0000
  H   H180      1.0  0.00164  0.14809  0.20405  1.0000
  C   C218      1.0  0.21717  0.06203  0.24240  1.0000
  C   C219      1.0  0.04146  0.22484  0.12309  1.0000
  C   C220      1.0  0.19205  0.98317  0.15910  1.0000
  C   C221      1.0  0.23598  0.21420  0.33466  1.0000
  H   H181      1.0  0.13038  0.22181  0.00969  1.0000
  C   C222      1.0  0.23364  0.01049  0.10586  1.0000
  C   C223      1.0  0.22792  0.12404  0.17761  1.0000
  C   C224      1.0  0.22482  0.13569  0.20124  1.0000
  H   H182      1.0  0.99301  0.17448  0.23705  1.0000
  C   C225      1.0  0.22809  0.04760  0.24845  1.0000
  H   H183      1.0  0.12902  0.22062  0.14171  1.0000
  C   C226      1.0  0.22767  0.12193  0.19441  1.0000
  H   H184      1.0  0.23819  0.13234  0.33113  1.0000
  C   C227      1.0  0.21814  0.22991  0.02946  1.0000
  C   C228      1.0  0.02474  0.22773  0.13107  1.0000
  S   S25       1.0  0.16992  0.22744  0.04027  1.0000
  C   C229      1.0  0.22286  0.15388  0.17454  1.0000
  H   H185      1.0  0.10815  0.23083  0.35772  1.0000
  C   C230      1.0  0.23393  0.22065  0.97648  1.0000
  H   H186      1.0  0.17555  0.22814  0.31338  1.0000
  H   H187      1.0  0.23411  0.00606  0.09512  1.0000
  H   H188      1.0  0.22673  0.22216  0.98867  1.0000
  C   C231      1.0  0.17533  0.22993  0.37305  1.0000
  C   C232      1.0  0.23362  0.02103  0.13366  1.0000
  H   H189      1.0  0.20772  0.20677  0.97841  1.0000
  H   H190      1.0  0.23116  0.05045  0.06109  1.0000
  H   H191      1.0  0.22593  0.14221  0.15469  1.0000
  C   C233      1.0  0.23787  0.03658  0.17423  1.0000
  H   H192      1.0  0.99263  0.22953  0.12744  1.0000
  C   C234      1.0  0.23434  0.08000  0.06604  1.0000
  C   C235      1.0  0.23577  0.02492  0.06012  1.0000
  C   C236      1.0  0.23855  0.09316  0.25994  1.0000
  C   C237      1.0  0.17225  0.20027  0.96309  1.0000
  H   H193      1.0  0.08176  0.16857  0.70537  1.0000
  H   H194      1.0  0.11782  0.10728  0.62345  1.0000
  C   C238      1.0  0.16692  0.04299  0.75025  1.0000
  P   P10       1.0  0.00863  0.08958  0.68886  1.0000
  C   C239      1.0  0.10997  0.17459  0.60834  1.0000
  H   H195      1.0  0.22566  0.19258  0.94275  1.0000
  H   H196      1.0  0.13277  0.14935  0.70535  1.0000
  C   C240      1.0  0.98901  0.19467  0.63765  1.0000
  S   S26       1.0  0.06382  0.19160  0.77655  1.0000
  C   C241      1.0  0.07446  0.99703  0.72426  1.0000
  S   S27       1.0  0.07779  0.22063  0.83504  1.0000
  C   C242      1.0  0.10860  0.14868  0.62864  1.0000
  C   C243      1.0  0.10803  0.19634  0.73714  1.0000
  H   H197      1.0  0.17453  0.20781  0.49988  1.0000
  S   S28       1.0  0.15363  0.20184  0.89932  1.0000
  H   H198      1.0  0.01520  0.07774  0.65850  1.0000
  Fe  Fe15      1.0  0.13402  0.01920  0.70687  1.0000
  S   S29       1.0  0.12201  0.02127  0.73293  1.0000
  C   C244      1.0  0.19541  0.13353  0.70562  1.0000
  Fe  Fe16      1.0  0.13670  0.05535  0.69687  1.0000
  S   S30       1.0  0.12437  0.06059  0.72202  1.0000
  S   S31       1.0  0.14447  0.07578  0.67581  1.0000
  Fe  Fe17      1.0  0.14052  0.03610  0.73070  1.0000
  C   C245      1.0  0.20813  0.17692  0.95594  1.0000
  Fe  Fe18      1.0  0.10687  0.04558  0.72212  1.0000
  S   S32       1.0  0.08018  0.04762  0.73513  1.0000
  S   S33       1.0  0.15425  0.03173  0.70554  1.0000
  S   S34       1.0  0.11751  0.04263  0.69605  1.0000
  Fe  Fe19      1.0  0.01534  0.17190  0.72392  1.0000
  S   S35       1.0  0.01638  0.18045  0.69676  1.0000
  S   S36       1.0  0.01066  0.19135  0.73839  1.0000
  Fe  Fe20      1.0  0.02150  0.13591  0.72298  1.0000
  S   S37       1.0  0.02344  0.14105  0.69575  1.0000
  S   S38       1.0  0.02191  0.11075  0.73951  1.0000
  Fe  Fe21      1.0  0.03817  0.15928  0.69448  1.0000
  S   S39       1.0  0.06239  0.16158  0.67682  1.0000
  Fe  Fe22      1.0  0.00126  0.16176  0.70026  1.0000
  C   C246      1.0  0.07247  0.98690  0.71501  1.0000
  S   S40       1.0  0.03846  0.15203  0.72142  1.0000
  S   S41       1.0  0.99803  0.15522  0.72779  1.0000
  H   H199      1.0  0.12867  0.98559  0.82947  1.0000
  H   H200      1.0  0.16539  0.21977  0.67555  1.0000
  C   C247      1.0  0.17689  0.16506  0.93381  1.0000
  H   H201      1.0  0.15455  0.13027  0.62799  1.0000
  C   C248      1.0  0.18863  0.11371  0.73114  1.0000
  C   C249      1.0  0.02402  0.13804  0.65722  1.0000
  H   H202      1.0  0.10282  0.16565  0.72095  1.0000
  H   H203      1.0  0.16892  0.13353  0.78291  1.0000
  C   C250      1.0  0.10519  0.11809  0.65605  1.0000
  C   C251      1.0  0.19488  0.18022  0.57663  1.0000
  H   H204      1.0  0.19025  0.10737  0.74352  1.0000
  C   C252      1.0  0.06520  0.06611  0.73620  1.0000
  C   C253      1.0  0.06772  0.08165  0.72653  1.0000
  C   C254      1.0  0.05452  0.09574  0.72719  1.0000
  C   C255      1.0  0.03902  0.09410  0.73761  1.0000
  C   C256      1.0  0.03681  0.07862  0.74736  1.0000
  C   C257      1.0  0.04982  0.06475  0.74672  1.0000
  H   H205      1.0  0.07970  0.08277  0.71852  1.0000
  H   H206      1.0  0.05631  0.10778  0.71979  1.0000
  H   H207      1.0  0.02491  0.07735  0.75548  1.0000
  H   H208      1.0  0.04788  0.05287  0.75440  1.0000
  C   C258      1.0  0.11454  0.21087  0.75405  1.0000
  C   C259      1.0  0.17256  0.08676  0.65822  1.0000
  C   C260      1.0  0.16534  0.07657  0.67259  1.0000
  C   C261      1.0  0.09133  0.98542  0.82347  1.0000
  H   H209      1.0  0.23136  0.20263  0.55867  1.0000
  H   H210      1.0  0.16543  0.09377  0.64904  1.0000
  C   C262      1.0  0.18610  0.13591  0.93305  1.0000
  C   C263      1.0  0.07773  0.19761  0.63912  1.0000
  C   C264      1.0  0.07737  0.18321  0.65162  1.0000
  C   C265      1.0  0.06229  0.17891  0.66028  1.0000
  C   C266      1.0  0.04755  0.18852  0.65574  1.0000
  H   H211      1.0  0.08943  0.20102  0.63283  1.0000
  H   H212      1.0  0.08880  0.17567  0.65492  1.0000
  H   H213      1.0  0.03591  0.18502  0.66215  1.0000
  C   C267      1.0  0.15162  0.18661  0.63136  1.0000
  C   C268      1.0  0.14917  0.18252  0.61779  1.0000
  C   C269      1.0  0.16018  0.16923  0.61139  1.0000
  C   C270      1.0  0.17378  0.16031  0.61837  1.0000
  C   C271      1.0  0.17651  0.16485  0.63155  1.0000
  C   C272      1.0  0.16533  0.17785  0.63818  1.0000
  H   H214      1.0  0.13858  0.18933  0.61253  1.0000
  H   H215      1.0  0.15812  0.16581  0.60110  1.0000
  C   C273      1.0  0.06380  0.01468  0.76713  1.0000
  H   H216      1.0  0.16729  0.18112  0.64859  1.0000
  C   C274      1.0  0.04927  0.19153  0.76563  1.0000
  C   C275      1.0  0.05040  0.17739  0.75993  1.0000
  C   C276      1.0  0.03863  0.17712  0.75154  1.0000
  C   C277      1.0  0.02578  0.19102  0.74871  1.0000
  C   C278      1.0  0.02482  0.20510  0.75426  1.0000
  C   C279      1.0  0.03643  0.20531  0.76274  1.0000
  H   H217      1.0  0.06026  0.16663  0.76216  1.0000
  H   H218      1.0  0.03944  0.16623  0.74730  1.0000
  H   H219      1.0  0.01496  0.21589  0.75212  1.0000
  H   H220      1.0  0.03522  0.21615  0.76714  1.0000
  H   H221      1.0  0.09888  0.19183  0.73420  1.0000
  P   P11       1.0  0.11894  0.13076  0.64173  1.0000
  H   H222      1.0  0.12238  0.09457  0.65400  1.0000
  C   C280      1.0  0.09320  0.17714  0.60843  1.0000
  H   H223      1.0  0.22265  0.00037  0.72565  1.0000
  C   C281      1.0  0.20695  0.18232  0.87390  1.0000
  C   C282      1.0  0.20071  0.19947  0.87216  1.0000
  C   C283      1.0  0.18447  0.20563  0.88035  1.0000
  C   C284      1.0  0.17432  0.19465  0.88985  1.0000
  C   C285      1.0  0.18055  0.17757  0.89146  1.0000
  C   C286      1.0  0.19684  0.17142  0.88361  1.0000
  H   H224      1.0  0.20852  0.20795  0.86473  1.0000
  H   H225      1.0  0.17974  0.21883  0.87928  1.0000
  H   H226      1.0  0.17265  0.16906  0.89856  1.0000
  H   H227      1.0  0.20135  0.15825  0.88476  1.0000
  H   H228      1.0  0.17298  0.98988  0.69861  1.0000
  C   C287      1.0  0.23119  0.17847  0.96599  1.0000
  H   H229      1.0  0.18720  0.15837  0.63672  1.0000
  H   H230      1.0  0.11058  0.99544  0.76549  1.0000
  C   C288      1.0  0.17150  0.05459  0.73579  1.0000
  S   S42       1.0  0.22039  0.15495  0.66773  1.0000
  C   C289      1.0  0.04796  0.20264  0.64276  1.0000
  H   H231      1.0  0.16543  0.05720  0.72567  1.0000
  S   S43       1.0  0.07942  0.22453  0.78896  1.0000
  H   H232      1.0  0.21120  0.21145  0.83000  1.0000
  H   H233      1.0  0.22416  0.11201  0.69207  1.0000
  C   C290      1.0  0.11525  0.19493  0.68726  1.0000
  C   C291      1.0  0.07241  0.00351  0.75685  1.0000
  C   C292      1.0  0.18199  0.13059  0.77722  1.0000
  H   H234      1.0  0.04115  0.03210  0.68807  1.0000
  C   C293      1.0  0.19683  0.12650  0.72202  1.0000
  C   C294      1.0  0.19359  0.12380  0.78718  1.0000
  S   S44       1.0  0.20374  0.05533  0.79532  1.0000
  C   C295      1.0  0.18569  0.12811  0.69853  1.0000
  S   S45       1.0  0.20167  0.12612  0.65210  1.0000
  C   C296      1.0  0.17834  0.99617  0.80912  1.0000
  C   C297      1.0  0.02688  0.05704  0.68841  1.0000
  C   C298      1.0  0.22598  0.02270  0.72964  1.0000
  C   C299      1.0  0.15132  0.21653  0.94121  1.0000
  C   C300      1.0  0.00286  0.12312  0.67408  1.0000
  H   H235      1.0  0.19082  0.19158  0.70647  1.0000
  C   C301      1.0  0.14181  0.12609  0.74184  1.0000
  P   P12       1.0  0.06202  0.99722  0.74486  1.0000
  C   C302      1.0  0.13560  0.14652  0.71742  1.0000
  H   H236      1.0  0.10453  0.01472  0.69581  1.0000
  C   C303      1.0  0.20493  0.19679  0.76567  1.0000
  C   C304      1.0  0.14714  0.14557  0.67162  1.0000
  H   H237      1.0  0.16987  0.20445  0.92334  1.0000
  H   H238      1.0  0.07887  0.13992  0.79983  1.0000
  C   C305      1.0  0.06303  0.20739  0.63469  1.0000
  C   C306      1.0  0.18168  0.99491  0.67228  1.0000
  S   S46       1.0  0.13741  0.20216  0.64049  1.0000
  C   C307      1.0  0.18364  0.15862  0.83430  1.0000
  C   C308      1.0  0.18859  0.15186  0.84931  1.0000
  C   C309      1.0  0.15122  0.98836  0.74996  1.0000
  C   C310      1.0  0.10294  0.19684  0.67880  1.0000
  H   H239      1.0  0.04762  0.18576  0.71072  1.0000
  C   C311      1.0  0.15020  0.98796  0.76649  1.0000
  H   H240      1.0  0.12453  0.20230  0.68166  1.0000
  C   C312      1.0  0.16770  0.22500  0.77266  1.0000
  H   H241      1.0  0.18645  0.02087  0.72461  1.0000
  H   H242      1.0  0.06521  0.18913  0.72743  1.0000
  H   H243      1.0  0.99621  0.19222  0.64690  1.0000
  H   H244      1.0  0.07159  0.21613  0.72387  1.0000
  C   C313      1.0  0.13464  0.11947  0.62764  1.0000
  C   C314      1.0  0.00023  0.22766  0.79215  1.0000
  H   H245      1.0  0.20711  0.09094  0.70619  1.0000
  C   C315      1.0  0.21534  0.10430  0.83688  1.0000
  P   P13       1.0  0.21085  0.13215  0.73056  1.0000
  C   C316      1.0  0.18813  0.00762  0.72962  1.0000
  H   H246      1.0  0.17064  0.16118  0.83405  1.0000
  H   H247      1.0  0.17949  0.14916  0.86067  1.0000
  C   C317      1.0  0.20528  0.14869  0.84972  1.0000
  C   C318      1.0  0.09116  0.17589  0.70038  1.0000
  C   C319      1.0  0.21093  0.13712  0.57186  1.0000
  C   C320      1.0  0.00189  0.08125  0.66279  1.0000
  H   H248      1.0  0.19884  0.06064  0.69031  1.0000
  H   H249      1.0  0.16255  0.15102  0.92855  1.0000
  C   C321      1.0  0.01502  0.10859  0.67717  1.0000
  H   H250      1.0  0.15030  0.99916  0.76975  1.0000
  H   H251      1.0  0.09017  0.20721  0.75644  1.0000
  H   H252      1.0  0.15252  0.99966  0.74071  1.0000
  C   C322      1.0  0.22089  0.19680  0.56353  1.0000
  C   C323      1.0  0.13102  0.20839  0.74536  1.0000
  C   C324      1.0  0.04284  0.01171  0.74179  1.0000
  C   C325      1.0  0.17195  0.98415  0.80639  1.0000
  C   C326      1.0  0.08575  0.00744  0.71707  1.0000
  C   C327      1.0  0.14995  0.18599  0.69880  1.0000
  H   H253      1.0  0.10198  0.99576  0.68028  1.0000
  C   C328      1.0  0.22992  0.09893  0.69400  1.0000
  C   C329      1.0  0.22442  0.09006  0.86242  1.0000
  C   C330      1.0  0.02886  0.00611  0.74217  1.0000
  C   C331      1.0  0.01415  0.01750  0.73954  1.0000
  C   C332      1.0  0.01335  0.03452  0.73633  1.0000
  C   C333      1.0  0.02734  0.04017  0.73546  1.0000
  C   C334      1.0  0.04212  0.02882  0.73788  1.0000
  C   C335      1.0  0.99697  0.18612  0.82368  1.0000
  C   C336      1.0  0.19681  0.18963  0.56045  1.0000
  H   H254      1.0  0.17788  0.22615  0.54820  1.0000
  H   H255      1.0  0.07121  0.16725  0.61828  1.0000
  H   H256      1.0  0.18955  0.12132  0.80054  1.0000
  H   H257      1.0  0.20438  0.17178  0.59881  1.0000
  P   P14       1.0  0.19598  0.18324  0.94038  1.0000
  C   C337      1.0  0.99514  0.08689  0.67754  1.0000
  H   H258      1.0  0.05303  0.03337  0.73660  1.0000
  H   H259      1.0  0.12121  0.98564  0.72927  1.0000
  H   H260      1.0  0.19343  0.99743  0.64649  1.0000
  C   C338      1.0  0.15649  0.98848  0.80200  1.0000
  C   C339      1.0  0.99766  0.10351  0.71668  1.0000
  S   S47       1.0  0.22349  0.00678  0.80935  1.0000
  H   H261      1.0  0.22770  0.18599  0.58706  1.0000
  H   H262      1.0  0.23205  0.22871  0.82250  1.0000
  H   H263      1.0  0.21974  0.06269  0.84279  1.0000
  H   H264      1.0  0.00337  0.01311  0.73992  1.0000
  H   H265      1.0  0.00195  0.04334  0.73437  1.0000
  H   H266      1.0  0.02683  0.05338  0.73274  1.0000
  C   C340      1.0  0.09394  0.99645  0.69233  1.0000
  C   C341      1.0  0.14293  0.13859  0.74863  1.0000
  C   C342      1.0  0.19185  0.16481  0.93753  1.0000
  H   H267      1.0  0.08481  0.14173  0.63508  1.0000
  C   C343      1.0  0.20417  0.12897  0.75271  1.0000
  H   H268      1.0  0.12869  0.22861  0.84652  1.0000
  C   C344      1.0  0.01229  0.22847  0.66868  1.0000
  H   H269      1.0  0.19120  0.16733  0.80826  1.0000
  C   C345      1.0  0.11763  0.16044  0.61837  1.0000
  H   H270      1.0  0.11731  0.16296  0.64945  1.0000
  C   C346      1.0  0.03839  0.07385  0.69870  1.0000
  C   C347      1.0  0.17757  0.19441  0.67462  1.0000
  C   C348      1.0  0.20389  0.14990  0.93897  1.0000
  H   H271      1.0  0.05073  0.02004  0.76792  1.0000
  H   H272      1.0  0.16867  0.22256  0.76074  1.0000
  S   S48       1.0  0.15148  0.03220  0.75259  1.0000
  C   C349      1.0  0.09748  0.00074  0.76607  1.0000
  H   H273      1.0  0.02934  0.99299  0.74429  1.0000
  H   H274      1.0  0.09708  0.21404  0.85917  1.0000
  H   H275      1.0  0.22700  0.06356  0.86845  1.0000
  C   C350      1.0  0.20767  0.19317  0.92112  1.0000
  H   H276      1.0  0.18403  0.12482  0.93109  1.0000
  C   C351      1.0  0.13829  0.13004  0.72619  1.0000
  C   C352      1.0  0.05202  0.06070  0.70091  1.0000
  C   C353      1.0  0.17885  0.10835  0.72407  1.0000
  C   C354      1.0  0.16724  0.21222  0.78680  1.0000
  H   H277      1.0  0.06564  0.02847  0.78365  1.0000
  H   H278      1.0  0.03662  0.21006  0.63915  1.0000
  C   C355      1.0  0.09196  0.15088  0.62800  1.0000
  C   C356      1.0  0.08917  0.99623  0.75679  1.0000
  C   C357      1.0  0.14263  0.09993  0.60974  1.0000
  C   C358      1.0  0.15101  0.12171  0.62318  1.0000
  C   C359      1.0  0.16526  0.19179  0.85573  1.0000
  C   C360      1.0  0.14921  0.19135  0.86501  1.0000
  C   C361      1.0  0.13607  0.20459  0.86149  1.0000
  C   C362      1.0  0.13899  0.21836  0.84881  1.0000
  C   C363      1.0  0.15512  0.21903  0.83962  1.0000
  C   C364      1.0  0.16822  0.20549  0.84303  1.0000
  H   H279      1.0  0.06363  0.03555  0.69874  1.0000
  C   C365      1.0  0.15899  0.10184  0.60576  1.0000
  C   C366      1.0  0.17683  0.19748  0.94698  1.0000
  H   H280      1.0  0.16239  0.16065  0.69729  1.0000
  H   H281      1.0  0.21047  0.12416  0.93772  1.0000
  H   H282      1.0  0.13318  0.17051  0.66474  1.0000
  C   C367      1.0  0.14776  0.00512  0.80012  1.0000
  C   C368      1.0  0.00734  0.13775  0.66414  1.0000
  H   H283      1.0  0.16846  0.09486  0.59752  1.0000
  S   S49       1.0  0.23849  0.04014  0.77085  1.0000
  H   H284      1.0  0.23460  0.12801  0.81973  1.0000
  H   H285      1.0  0.17287  0.09823  0.73114  1.0000
  H   H286      1.0  0.17553  0.18185  0.85886  1.0000
  H   H287      1.0  0.14702  0.18105  0.87533  1.0000
  H   H288      1.0  0.12368  0.20438  0.86895  1.0000
  H   H289      1.0  0.19019  0.99276  0.81262  1.0000
  H   H290      1.0  0.18081  0.20575  0.83634  1.0000
  C   C369      1.0  0.13626  0.15925  0.72432  1.0000
  S   S50       1.0  0.21947  0.07917  0.66346  1.0000
  C   C370      1.0  0.12910  0.13677  0.65413  1.0000
  H   H291      1.0  0.14893  0.22070  0.51777  1.0000
  H   H292      1.0  0.08710  0.18844  0.60114  1.0000
  P   P15       1.0  0.21177  0.21104  0.53304  1.0000
  H   H293      1.0  0.21527  0.14906  0.78087  1.0000
  C   C371      1.0  0.20587  0.17913  0.58628  1.0000
  H   H294      1.0  0.15463  0.14912  0.67766  1.0000
  C   C372      1.0  0.21521  0.21813  0.90231  1.0000
  C   C373      1.0  0.17742  0.11549  0.70775  1.0000
  H   H295      1.0  0.11058  0.21772  0.76378  1.0000
  H   H296      1.0  0.21455  0.03029  0.72624  1.0000
  S   S51       1.0  0.20653  0.07071  0.74667  1.0000
  H   H297      1.0  0.22213  0.17016  0.91409  1.0000
  C   C374      1.0  0.14041  0.12460  0.66248  1.0000
  C   C375      1.0  0.22290  0.99317  0.79757  1.0000
  C   C376      1.0  0.18725  0.13322  0.76002  1.0000
  C   C377      1.0  0.18903  0.98453  0.75313  1.0000
  S   S52       1.0  0.18747  0.14362  0.61052  1.0000
  H   H298      1.0  0.00769  0.20707  0.66391  1.0000
  C   C378      1.0  0.20099  0.13554  0.93679  1.0000
  H   H299      1.0  0.20711  0.11528  0.59065  1.0000
  C   C379      1.0  0.19933  0.16577  0.71718  1.0000
  S   S53       1.0  0.13973  0.99654  0.69596  1.0000
  C   C380      1.0  0.20043  0.18676  0.75818  1.0000
  H   H300      1.0  0.18488  0.17368  0.58172  1.0000
  C   C381      1.0  0.04459  0.21108  0.69713  1.0000
  C   C382      1.0  0.13514  0.15764  0.66422  1.0000
  C   C383      1.0  0.16643  0.20605  0.93595  1.0000
  H   H301      1.0  0.14385  0.11330  0.74865  1.0000
  C   C384      1.0  0.04816  0.22653  0.69501  1.0000
  H   H302      1.0  0.20060  0.16176  0.75802  1.0000
  C   C385      1.0  0.15737  0.21117  0.96814  1.0000
  C   C386      1.0  0.22573  0.22851  0.81333  1.0000
  C   C387      1.0  0.22403  0.07493  0.85950  1.0000
  H   H303      1.0  0.17035  0.11086  0.70212  1.0000
  H   H304      1.0  0.19643  0.21814  0.92462  1.0000
  C   C388      1.0  0.18396  0.06286  0.73453  1.0000
  H   H305      1.0  0.15895  0.11956  0.67655  1.0000
  C   C389      1.0  0.19543  0.16208  0.81965  1.0000
  Fe  Fe23      1.0  0.21777  0.06260  0.76923  1.0000
  H   H306      1.0  0.01707  0.05516  0.68404  1.0000
  C   C390      1.0  0.05312  0.04576  0.69686  1.0000
  H   H307      1.0  0.21566  0.14933  0.94159  1.0000
  H   H308      1.0  0.03726  0.98609  0.77384  1.0000
  C   C391      1.0  0.19466  0.99131  0.65901  1.0000
  H   H309      1.0  0.23516  0.09887  0.58172  1.0000
  C   C392      1.0  0.23308  0.10169  0.73349  1.0000
  C   C393      1.0  0.19152  0.06791  0.68134  1.0000
  H   H310      1.0  0.16927  0.05962  0.69545  1.0000
  C   C394      1.0  0.19163  0.99666  0.71919  1.0000
  C   C395      1.0  0.10317  0.17425  0.70911  1.0000
  C   C396      1.0  0.14024  0.15511  0.73990  1.0000
  H   H311      1.0  0.18751  0.07176  0.72333  1.0000
  H   H312      1.0  0.16793  0.19973  0.78588  1.0000
  H   H313      1.0  0.23178  0.23037  0.93595  1.0000
  H   H314      1.0  0.09246  0.16210  0.78091  1.0000
  C   C397      1.0  0.19175  0.05962  0.74774  1.0000
  C   C398      1.0  0.22771  0.07027  0.70388  1.0000
  H   H315      1.0  0.22998  0.17698  0.82827  1.0000
  P   P16       1.0  0.13159  0.18070  0.71343  1.0000
  C   C399      1.0  0.16530  0.21563  0.80221  1.0000
  H   H316      1.0  0.18638  0.16821  0.67595  1.0000
  C   C400      1.0  0.05075  0.19760  0.70880  1.0000
  S   S54       1.0  0.22729  0.17469  0.86370  1.0000
  C   C401      1.0  0.14683  0.21914  0.95725  1.0000
  H   H317      1.0  0.21656  0.19743  0.78439  1.0000
  C   C402      1.0  0.21997  0.07441  0.84496  1.0000
  C   C403      1.0  0.22032  0.08712  0.70188  1.0000
  C   C404      1.0  0.99559  0.17453  0.81573  1.0000
  H   H318      1.0  0.16435  0.20560  0.81299  1.0000
  H   H319      1.0  0.01351  0.22323  0.79034  1.0000
  H   H320      1.0  0.99055  0.13267  0.81698  1.0000
  C   C405      1.0  0.21723  0.17236  0.78408  1.0000
  C   C406      1.0  0.21251  0.16238  0.77663  1.0000
  C   C407      1.0  0.16314  0.11281  0.61240  1.0000
  C   C408      1.0  0.13046  0.10882  0.62053  1.0000
  H   H321      1.0  0.14572  0.13547  0.76075  1.0000
  C   C409      1.0  0.07217  0.01931  0.77630  1.0000
  C   C410      1.0  0.22730  0.20848  0.89217  1.0000
  C   C411      1.0  0.17744  0.22254  0.53730  1.0000
  C   C412      1.0  0.17481  0.06726  0.68422  1.0000
  C   C413      1.0  0.23211  0.20852  0.50212  1.0000
  C   C414      1.0  0.09542  0.00712  0.70114  1.0000
  H   H322      1.0  0.23005  0.14882  0.83570  1.0000
  C   C415      1.0  0.00959  0.16753  0.80488  1.0000
  C   C416      1.0  0.02449  0.17256  0.80150  1.0000
  C   C417      1.0  0.02557  0.18458  0.80892  1.0000
  C   C418      1.0  0.01184  0.19133  0.82004  1.0000
  C   C419      1.0  0.99144  0.11799  0.84141  1.0000
  C   C420      1.0  0.21869  0.98817  0.77290  1.0000
  H   H323      1.0  0.22788  0.20802  0.66911  1.0000
  C   C421      1.0  0.22792  0.20038  0.51874  1.0000
  C   C422      1.0  0.23174  0.11160  0.57519  1.0000
  Fe  Fe24      1.0  0.12123  0.22023  0.62418  1.0000
  H   H324      1.0  0.99702  0.20996  0.78055  1.0000
  H   H325      1.0  0.14243  0.11173  0.66203  1.0000
  H   H326      1.0  0.14100  0.16458  0.74550  1.0000
  C   C423      1.0  0.06437  0.21485  0.71604  1.0000
  H   H327      1.0  0.20248  0.22851  0.78082  1.0000
  C   C424      1.0  0.08904  0.01246  0.77565  1.0000
  H   H328      1.0  0.18815  0.19764  0.66512  1.0000
  H   H329      1.0  0.21943  0.11447  0.78774  1.0000
  H   H330      1.0  0.00902  0.15820  0.79897  1.0000
  H   H331      1.0  0.03521  0.16728  0.79301  1.0000
  H   H332      1.0  0.03707  0.18862  0.80602  1.0000
  H   H333      1.0  0.01269  0.20075  0.82571  1.0000
  H   H334      1.0  0.99673  0.07586  0.64203  1.0000
  H   H335      1.0  0.08109  0.18917  0.67906  1.0000
  C   C425      1.0  0.14962  0.12900  0.67094  1.0000
  S   S55       1.0  0.23134  0.07820  0.77535  1.0000
  C   C426      1.0  0.03586  0.13016  0.76713  1.0000
  C   C427      1.0  0.02879  0.11631  0.77359  1.0000
  C   C428      1.0  0.03891  0.10039  0.77468  1.0000
  C   C429      1.0  0.05612  0.09827  0.76923  1.0000
  C   C430      1.0  0.06338  0.11213  0.76275  1.0000
  C   C431      1.0  0.05306  0.12810  0.76177  1.0000
  P   P17       1.0  0.08567  0.10991  0.75649  1.0000
  C   C432      1.0  0.08970  0.12540  0.76444  1.0000
  C   C433      1.0  0.09651  0.08924  0.76473  1.0000
  C   C434      1.0  0.10687  0.08662  0.77565  1.0000
  C   C435      1.0  0.11638  0.07077  0.78064  1.0000
  C   C436      1.0  0.11561  0.05747  0.77479  1.0000
  C   C437      1.0  0.10529  0.05995  0.76400  1.0000
  C   C438      1.0  0.09592  0.07578  0.75885  1.0000
  C   C439      1.0  0.09760  0.13792  0.75384  1.0000
  C   C440      1.0  0.09870  0.15102  0.75983  1.0000
  C   C441      1.0  0.09203  0.15167  0.77640  1.0000
  C   C442      1.0  0.08432  0.13918  0.78706  1.0000
  C   C443      1.0  0.08312  0.12609  0.78112  1.0000
  C   C444      1.0  0.09258  0.11394  0.73424  1.0000
  C   C445      1.0  0.08293  0.12628  0.72418  1.0000
  C   C446      1.0  0.08883  0.13011  0.70707  1.0000
  C   C447      1.0  0.10432  0.12157  0.69985  1.0000
  C   C448      1.0  0.11390  0.10909  0.70969  1.0000
  C   C449      1.0  0.10818  0.10542  0.72684  1.0000
  H   H336      1.0  0.02794  0.14250  0.76604  1.0000
  H   H337      1.0  0.01542  0.11792  0.77719  1.0000
  H   H338      1.0  0.03333  0.08969  0.77922  1.0000
  H   H339      1.0  0.06353  0.08581  0.77009  1.0000
  H   H340      1.0  0.05827  0.13902  0.75689  1.0000
  H   H341      1.0  0.10801  0.09677  0.78003  1.0000
  H   H342      1.0  0.12464  0.06885  0.78877  1.0000
  H   H343      1.0  0.12332  0.04530  0.77830  1.0000
  H   H344      1.0  0.10493  0.04970  0.75920  1.0000
  H   H345      1.0  0.08851  0.07758  0.74994  1.0000
  H   H346      1.0  0.10251  0.13788  0.74089  1.0000
  H   H347      1.0  0.10436  0.16093  0.75160  1.0000
  C   C450      1.0  0.08424  0.16521  0.61816  1.0000
  S   S56       1.0  0.22932  0.09037  0.88088  1.0000
  H   H348      1.0  0.07662  0.11678  0.78942  1.0000
  H   H349      1.0  0.07093  0.13307  0.72947  1.0000
  H   H350      1.0  0.08135  0.13967  0.69936  1.0000
  H   H351      1.0  0.10886  0.12455  0.68662  1.0000
  H   H352      1.0  0.12576  0.10222  0.70398  1.0000
  H   H353      1.0  0.11603  0.09594  0.73423  1.0000
  H   H354      1.0  0.14303  0.22266  0.93284  1.0000
  Fe  Fe25      1.0  0.22543  0.03351  0.79728  1.0000
  H   H355      1.0  0.13598  0.00887  0.79645  1.0000
  C   C451      1.0  0.23067  0.11842  0.72527  1.0000
  C   C452      1.0  0.13615  0.19955  0.73280  1.0000
  H   H356      1.0  0.99151  0.10653  0.86699  1.0000
  S   S57       1.0  0.11190  0.21845  0.60305  1.0000
  H   H357      1.0  0.20229  0.14279  0.69815  1.0000
  C   C453      1.0  0.22189  0.18362  0.95382  1.0000
  H   H358      1.0  0.08726  0.01568  0.72374  1.0000
  Fe  Fe26      1.0  0.06429  0.22869  0.81390  1.0000
  C   C454      1.0  0.16950  0.01261  0.80740  1.0000
  C   C455      1.0  0.15419  0.01707  0.80293  1.0000
  C   C456      1.0  0.99708  0.09103  0.70950  1.0000
  S   S58       1.0  0.06349  0.22566  0.61930  1.0000
  H   H359      1.0  0.22896  0.11961  0.75752  1.0000
  C   C457      1.0  0.20416  0.16955  0.76373  1.0000
  C   C458      1.0  0.21396  0.21883  0.81754  1.0000
  H   H360      1.0  0.14908  0.19737  0.72656  1.0000
  C   C459      1.0  0.22211  0.14441  0.55865  1.0000
  H   H361      1.0  0.16741  0.17629  0.93230  1.0000
  C   C460      1.0  0.21236  0.15862  0.81989  1.0000
  C   C461      1.0  0.00305  0.21667  0.67096  1.0000
  C   C462      1.0  0.21894  0.18728  0.57968  1.0000
  C   C463      1.0  0.19084  0.21013  0.51365  1.0000
  H   H362      1.0  0.21129  0.11575  0.82851  1.0000
  H   H363      1.0  0.09877  0.99249  0.84191  1.0000
  C   C464      1.0  0.16201  0.22433  0.53390  1.0000
  H   H364      1.0  0.23399  0.17776  0.53679  1.0000
  H   H365      1.0  0.18844  0.16242  0.71629  1.0000
  H   H366      1.0  0.18505  0.13335  0.68572  1.0000
  C   C465      1.0  0.21579  0.12266  0.76279  1.0000
  H   H367      1.0  0.17470  0.02188  0.80931  1.0000
  H   H368      1.0  0.14751  0.02990  0.80127  1.0000
  Fe  Fe27      1.0  0.23820  0.14849  0.87582  1.0000
  C   C466      1.0  0.21575  0.12076  0.58017  1.0000
  C   C467      1.0  0.17404  0.15065  0.93163  1.0000
  H   H369      1.0  0.21738  0.01239  0.77652  1.0000
  C   C468      1.0  0.11984  0.98384  0.82362  1.0000
  H   H370      1.0  0.23537  0.14970  0.73074  1.0000
  C   C469      1.0  0.20053  0.18240  0.71179  1.0000
  C   C470      1.0  0.16477  0.20685  0.68051  1.0000
  H   H371      1.0  0.18482  0.00979  0.75466  1.0000
  H   H372      1.0  0.09560  0.01628  0.78248  1.0000
  H   H373      1.0  0.17577  0.11444  0.60930  1.0000
  C   C471      1.0  0.20555  0.21050  0.91681  1.0000
  H   H374      1.0  0.22986  0.20664  0.61921  1.0000
  S   S59       1.0  0.04489  0.21592  0.81327  1.0000
  H   H375      1.0  0.22573  0.22113  0.49787  1.0000
  H   H376      1.0  0.03673  0.20958  0.69003  1.0000
  H   H377      1.0  0.19375  0.04464  0.77190  1.0000
  C   C472      1.0  0.12617  0.15329  0.65544  1.0000
  H   H378      1.0  0.19856  0.14421  0.57582  1.0000
  C   C473      1.0  0.12468  0.19345  0.72858  1.0000
  C   C474      1.0  0.19207  0.21553  0.52713  1.0000
  C   C475      1.0  0.11024  0.10074  0.65980  1.0000
  C   C476      1.0  0.09982  0.09113  0.67160  1.0000
  C   C477      1.0  0.08434  0.09876  0.67981  1.0000
  C   C478      1.0  0.07939  0.11604  0.67641  1.0000
  C   C479      1.0  0.08991  0.12562  0.66476  1.0000
  H   H379      1.0  0.10400  0.07776  0.67461  1.0000
  H   H380      1.0  0.07634  0.09132  0.68903  1.0000
  H   H381      1.0  0.06760  0.12210  0.68307  1.0000
  H   H382      1.0  0.08635  0.13896  0.66271  1.0000
  H   H383      1.0  0.11699  0.18371  0.60066  1.0000
  H   H384      1.0  0.13058  0.15871  0.61833  1.0000
  C   C480      1.0  0.06062  0.19951  0.71824  1.0000
  S   S60       1.0  0.22499  0.13157  0.89714  1.0000
  C   C481      1.0  0.02599  0.07232  0.69186  1.0000
  Fe  Fe28      1.0  0.20783  0.13370  0.62446  1.0000
  C   C482      1.0  0.20960  0.19840  0.55386  1.0000
  C   C483      1.0  0.09086  0.18740  0.68541  1.0000
  H   H385      1.0  0.17033  0.00377  0.67011  1.0000
  C   C484      1.0  0.16095  0.21924  0.52032  1.0000
  S   S61       1.0  0.20839  0.08937  0.81625  1.0000
  H   H386      1.0  0.17205  0.03016  0.77404  1.0000
  C   C485      1.0  0.23647  0.18410  0.52396  1.0000
  Fe  Fe29      1.0  0.05875  0.21432  0.78731  1.0000
  H   H387      1.0  0.04142  0.09781  0.67141  1.0000
  H   H388      1.0  0.19462  0.09558  0.64437  1.0000
  H   H389      1.0  0.21588  0.99301  0.76085  1.0000
  H   H390      1.0  0.13769  0.12031  0.72082  1.0000
  H   H391      1.0  0.19669  0.21120  0.80901  1.0000
  H   H392      1.0  0.13940  0.09149  0.60452  1.0000
  H   H393      1.0  0.20167  0.20401  0.50593  1.0000
  C   C486      1.0  0.21319  0.18961  0.77865  1.0000
  C   C487      1.0  0.11548  0.18361  0.70253  1.0000
  C   C488      1.0  0.17507  0.03950  0.76315  1.0000
  C   C489      1.0  0.18707  0.00149  0.74655  1.0000
  H   H394      1.0  0.19327  0.15973  0.97220  1.0000
  C   C490      1.0  0.21713  0.15176  0.83509  1.0000
  H   H395      1.0  0.17815  0.13839  0.75243  1.0000
  C   C491      1.0  0.22037  0.10470  0.85090  1.0000
  H   H396      1.0  0.09584  0.98722  0.74936  1.0000
  H   H397      1.0  0.17181  0.21535  0.62496  1.0000
  H   H398      1.0  0.06167  0.06200  0.70598  1.0000
  H   H399      1.0  0.00839  0.20224  0.61724  1.0000
  C   C492      1.0  0.19867  0.07817  0.66700  1.0000
  H   H400      1.0  0.03753  0.08523  0.70230  1.0000
  S   S62       1.0  0.22568  0.14881  0.62338  1.0000
  C   C493      1.0  0.21047  0.11987  0.77996  1.0000
  H   H401      1.0  0.22061  0.11630  0.85315  1.0000
  H   H402      1.0  0.20912  0.14357  0.86139  1.0000
  C   C494      1.0  0.18748  0.04766  0.76188  1.0000
  H   H403      1.0  0.20208  0.21014  0.76135  1.0000
  C   C495      1.0  0.16289  0.17357  0.69283  1.0000
  C   C496      1.0  0.23458  0.22851  0.53300  1.0000
  C   C497      1.0  0.10303  0.20497  0.74986  1.0000
  Fe  Fe30      1.0  0.22144  0.13905  0.65072  1.0000
  P   P18       1.0  0.22777  0.16301  0.80095  1.0000
  C   C498      1.0  0.20576  0.21873  0.80573  1.0000
  S   S63       1.0  0.22738  0.11079  0.62050  1.0000
  H   H404      1.0  0.04917  0.12386  0.65475  1.0000
  C   C499      1.0  0.17660  0.17780  0.68077  1.0000
  H   H405      1.0  0.19405  0.19231  0.74812  1.0000
  C   C500      1.0  0.04046  0.04385  0.69081  1.0000
  C   C501      1.0  0.22562  0.15869  0.72534  1.0000
  H   H406      1.0  0.00530  0.11242  0.71011  1.0000
  C   C502      1.0  0.18913  0.08772  0.65552  1.0000
  C   C503      1.0  0.03176  0.10887  0.66983  1.0000
  C   C504      1.0  0.21999  0.18356  0.91099  1.0000
  C   C505      1.0  0.15095  0.20269  0.69247  1.0000
  C   C506      1.0  0.22974  0.19121  0.89659  1.0000
  H   H407      1.0  0.21836  0.15717  0.55243  1.0000
  C   C507      1.0  0.05824  0.22849  0.70435  1.0000
  H   H408      1.0  0.23574  0.08084  0.52916  1.0000
  H   H409      1.0  0.02748  0.14951  0.64988  1.0000
  H   H410      1.0  0.22311  0.09700  0.74278  1.0000
  H   H411      1.0  0.13516  0.22739  0.96119  1.0000
  H   H412      1.0  0.14091  0.21255  0.69652  1.0000
  H   H413      1.0  0.10288  0.20555  0.66701  1.0000
  H   H414      1.0  0.22009  0.06121  0.70969  1.0000
  Fe  Fe31      1.0  0.14467  0.22955  0.89426  1.0000
  C   C508      1.0  0.99086  0.22020  0.78657  1.0000
  H   H415      1.0  0.19311  0.00174  0.70607  1.0000
  Fe  Fe32      1.0  0.22249  0.10426  0.64816  1.0000
  C   C509      1.0  0.21952  0.99920  0.78180  1.0000
  C   C510      1.0  0.21213  0.15370  0.72353  1.0000
  C   C511      1.0  0.17536  0.21205  0.51025  1.0000
  H   H416      1.0  0.98986  0.12313  0.67927  1.0000
  C   C512      1.0  0.21540  0.08915  0.83370  1.0000
  C   C513      1.0  0.03623  0.12360  0.66006  1.0000
  C   C514      1.0  0.23669  0.22523  0.94696  1.0000
  C   C515      1.0  0.20925  0.22836  0.78973  1.0000
  H   H417      1.0  0.18824  0.18998  0.55322  1.0000
  H   H418      1.0  0.23247  0.04274  0.73504  1.0000
  C   C516      1.0  0.99585  0.20026  0.62097  1.0000
  Fe  Fe33      1.0  0.21904  0.06906  0.80179  1.0000
  C   C517      1.0  0.23053  0.00586  0.72933  1.0000
  C   C518      1.0  0.21430  0.18716  0.71308  1.0000
  H   H419      1.0  0.99177  0.20775  0.59620  1.0000
  H   H420      1.0  0.21526  0.20002  0.70873  1.0000
  C   C519      1.0  0.09272  0.22734  0.85597  1.0000
  H   H421      1.0  0.17566  0.22923  0.85143  1.0000
  C   C520      1.0  0.10290  0.98771  0.83074  1.0000
  C   C521      1.0  0.23770  0.20989  0.74263  1.0000
  C   C522      1.0  0.23652  0.21858  0.59342  1.0000
  H   H422      1.0  0.23473  0.21431  0.88085  1.0000
  H   H423      1.0  0.13979  0.21341  0.74836  1.0000
  C   C523      1.0  0.99147  0.08037  0.65333  1.0000
  C   C524      1.0  0.19340  0.22567  0.61245  1.0000
  C   C525      1.0  0.22747  0.22865  0.96232  1.0000
  C   C526      1.0  0.21802  0.22955  0.53285  1.0000
  H   H424      1.0  0.16094  0.22170  0.59975  1.0000
  H   H425      1.0  0.18007  0.19413  0.97181  1.0000
  H   H426      1.0  0.23749  0.20999  0.71771  1.0000
  C   C527      1.0  0.20378  0.16512  0.97040  1.0000
  H   H427      1.0  0.19813  0.22248  0.62356  1.0000
  C   C528      1.0  0.22677  0.17532  0.71999  1.0000
  H   H428      1.0  0.23690  0.21364  0.76641  1.0000
  H   H429      1.0  0.23746  0.17892  0.72109  1.0000
  H   H430      1.0  0.07821  0.98846  0.82898  1.0000
  H   H431      1.0  0.02404  0.22811  0.65979  1.0000
  C   C529      1.0  0.18318  0.98700  0.68845  1.0000
  C   C530      1.0  0.08239  0.98642  0.69922  1.0000
  C   C531      1.0  0.23508  0.21961  0.75408  1.0000
  C   C532      1.0  0.23549  0.21746  0.72660  1.0000
  C   C533      1.0  0.17855  0.22149  0.61329  1.0000
  C   C534      1.0  0.23773  0.20537  0.60723  1.0000
  H   H432      1.0  0.99694  0.10650  0.83723  1.0000
  H   H433      1.0  0.99785  0.14897  0.66205  1.0000
  H   H434      1.0  0.23613  0.16460  0.68787  1.0000
  C   C535      1.0  0.17235  0.22513  0.59907  1.0000
  H   H435      1.0  0.15079  0.22943  0.54200  1.0000
  C   C536      1.0  0.23835  0.18132  0.81703  1.0000
  C   C537      1.0  0.23819  0.13536  0.55373  1.0000
  H   H436      1.0  0.23802  0.19299  0.64638  1.0000
  H   H437      1.0  0.23660  0.09557  0.54949  1.0000
  C   C538      1.0  0.23606  0.02971  0.73463  1.0000
  H   H438      1.0  0.14324  0.26614  0.08788  1.0000
  S   S64       1.0  0.99612  0.26815  0.16099  1.0000
  C   C539      1.0  0.20587  0.25022  0.29769  1.0000
  H   H439      1.0  0.17948  0.24304  0.44516  1.0000
  Fe  Fe34      1.0  0.15833  0.30534  0.37180  1.0000
  S   S65       1.0  0.14153  0.29384  0.39464  1.0000
  S   S66       1.0  0.14846  0.32931  0.35523  1.0000
  Fe  Fe35      1.0  0.18723  0.27602  0.37511  1.0000
  S   S67       1.0  0.17244  0.26209  0.39771  1.0000
  S   S68       1.0  0.21411  0.26669  0.36350  1.0000
  Fe  Fe36      1.0  0.15181  0.27089  0.38420  1.0000
  S   S69       1.0  0.13567  0.25352  0.38574  1.0000
  Fe  Fe37      1.0  0.16389  0.28619  0.40601  1.0000
  S   S70       1.0  0.16647  0.28257  0.43235  1.0000
  S   S71       1.0  0.16724  0.28284  0.36085  1.0000
  S   S72       1.0  0.17976  0.29965  0.38403  1.0000
  Fe  Fe38      1.0  0.19490  0.38825  0.28866  1.0000
  S   S73       1.0  0.17504  0.41172  0.28672  1.0000
  S   S74       1.0  0.20156  0.37131  0.31202  1.0000
  Fe  Fe39      1.0  0.20690  0.39271  0.25167  1.0000
  S   S75       1.0  0.18779  0.41609  0.24681  1.0000
  S   S76       1.0  0.22666  0.38256  0.23158  1.0000
  Fe  Fe40      1.0  0.19465  0.42296  0.26688  1.0000
  S   S77       1.0  0.20281  0.44744  0.25965  1.0000
  Fe  Fe41      1.0  0.17034  0.40250  0.26666  1.0000
  S   S78       1.0  0.14449  0.40558  0.26309  1.0000
  S   S79       1.0  0.21477  0.40019  0.27051  1.0000
  S   S80       1.0  0.18892  0.37838  0.27005  1.0000
  Fe  Fe42      1.0  0.17503  0.28620  0.02878  1.0000
  S   S81       1.0  0.15990  0.27147  0.05038  1.0000
  S   S82       1.0  0.19845  0.29072  0.03225  1.0000
  Fe  Fe43      1.0  0.15560  0.28421  0.00438  1.0000
  S   S83       1.0  0.13909  0.26928  0.02424  1.0000
  Fe  Fe44      1.0  0.13815  0.28691  0.03961  1.0000
  S   S84       1.0  0.11491  0.29917  0.05553  1.0000
  Fe  Fe45      1.0  0.16234  0.25527  0.03319  1.0000
  C   C540      1.0  0.17638  0.25939  0.14786  1.0000
  S   S85       1.0  0.15309  0.30308  0.01909  1.0000
  S   S86       1.0  0.17891  0.26884  0.01218  1.0000
  Fe  Fe46      1.0  0.05290  0.24860  0.17184  1.0000
  S   S87       1.0  0.03317  0.27108  0.17612  1.0000
  C   C541      1.0  0.04761  0.26730  0.27142  1.0000
  Fe  Fe47      1.0  0.05884  0.26064  0.13473  1.0000
  S   S88       1.0  0.03978  0.28452  0.13618  1.0000
  S   S89       1.0  0.07408  0.25155  0.11176  1.0000
  Fe  Fe48      1.0  0.05098  0.28494  0.15696  1.0000
  S   S90       1.0  0.05781  0.30659  0.16192  1.0000
  Fe  Fe49      1.0  0.02381  0.26817  0.15539  1.0000
  C   C542      1.0  0.99733  0.23951  0.09276  1.0000
  S   S91       1.0  0.07117  0.26248  0.15365  1.0000
  S   S92       1.0  0.04240  0.24433  0.15286  1.0000
  Fe  Fe50      1.0  0.22471  0.34589  0.07360  1.0000
  C   C543      1.0  0.18897  0.23719  0.36565  1.0000
  S   S93       1.0  0.20597  0.35005  0.05807  1.0000
  H   H440      1.0  0.19885  0.26243  0.10823  1.0000
  C   C544      1.0  0.06800  0.24181  0.28961  1.0000
  S   S94       1.0  0.21915  0.31445  0.13299  1.0000
  S   S95       1.0  0.21581  0.35505  0.09718  1.0000
  C   C545      1.0  0.04271  0.27475  0.21884  1.0000
  C   C546      1.0  0.18015  0.39030  0.11388  1.0000
  H   H441      1.0  0.00270  0.27068  0.12527  1.0000
  C   C547      1.0  0.09242  0.25240  0.23562  1.0000
  C   C548      1.0  0.10783  0.24690  0.04358  1.0000
  H   H442      1.0  0.20256  0.25627  0.13692  1.0000
  Fe  Fe51      1.0  0.12419  0.34205  0.22221  1.0000
  S   S96       1.0  0.14984  0.33985  0.20679  1.0000
  S   S97       1.0  0.11288  0.36316  0.23545  1.0000
  Fe  Fe52      1.0  0.11816  0.31305  0.21205  1.0000
  S   S98       1.0  0.14374  0.30863  0.19596  1.0000
  S   S99       1.0  0.10232  0.29504  0.21404  1.0000
  Fe  Fe53      1.0  0.15234  0.31250  0.21652  1.0000
  S   S100      1.0  0.17707  0.29893  0.22270  1.0000
  Fe  Fe54      1.0  0.13888  0.33631  0.18779  1.0000
  S   S101      1.0  0.14580  0.34910  0.16132  1.0000
  S   S102      1.0  0.12718  0.31473  0.23366  1.0000
  S   S103      1.0  0.11271  0.34062  0.20229  1.0000
  C   C549      1.0  0.18097  0.24505  0.25076  1.0000
  C   C550      1.0  0.19491  0.25208  0.24527  1.0000
  C   C551      1.0  0.19357  0.26866  0.23669  1.0000
  C   C552      1.0  0.17837  0.27817  0.23323  1.0000
  C   C553      1.0  0.16451  0.27108  0.23830  1.0000
  C   C554      1.0  0.16576  0.25457  0.24725  1.0000
  H   H443      1.0  0.20669  0.24479  0.24793  1.0000
  H   H444      1.0  0.20432  0.27411  0.23273  1.0000
  H   H445      1.0  0.15282  0.27834  0.23538  1.0000
  H   H446      1.0  0.15504  0.24915  0.25105  1.0000
  C   C555      1.0  0.19841  0.32336  0.14062  1.0000
  C   C556      1.0  0.18868  0.33454  0.13000  1.0000
  C   C557      1.0  0.17246  0.34238  0.13635  1.0000
  C   C558      1.0  0.16593  0.33902  0.15335  1.0000
  C   C559      1.0  0.17546  0.32746  0.16394  1.0000
  C   C560      1.0  0.19163  0.31949  0.15755  1.0000
  H   H447      1.0  0.19346  0.33689  0.11685  1.0000
  H   H448      1.0  0.16502  0.35104  0.12807  1.0000
  H   H449      1.0  0.17061  0.32497  0.17712  1.0000
  H   H450      1.0  0.19908  0.31086  0.16583  1.0000
  C   C561      1.0  0.22729  0.41496  0.21620  1.0000
  C   C562      1.0  0.07046  0.30303  0.17627  1.0000
  C   C563      1.0  0.07458  0.31660  0.17902  1.0000
  C   C564      1.0  0.08477  0.31426  0.19012  1.0000
  C   C565      1.0  0.09065  0.29832  0.19890  1.0000
  C   C566      1.0  0.08643  0.28477  0.19624  1.0000
  C   C567      1.0  0.07655  0.28706  0.18487  1.0000
  H   H451      1.0  0.06997  0.32899  0.17243  1.0000
  H   H452      1.0  0.08780  0.32483  0.19210  1.0000
  H   H453      1.0  0.09072  0.27243  0.20307  1.0000
  H   H454      1.0  0.07339  0.27648  0.18303  1.0000
  H   H455      1.0  0.15317  0.25940  0.35074  1.0000
  C   C568      1.0  0.20392  0.33337  0.05112  1.0000
  C   C569      1.0  0.19017  0.33520  0.04453  1.0000
  C   C570      1.0  0.18788  0.32201  0.03932  1.0000
  C   C571      1.0  0.19969  0.30705  0.04021  1.0000
  C   C572      1.0  0.21355  0.30528  0.04663  1.0000
  C   C573      1.0  0.21562  0.31833  0.05214  1.0000
  H   H456      1.0  0.18129  0.34689  0.04341  1.0000
  H   H457      1.0  0.17727  0.32359  0.03422  1.0000
  H   H458      1.0  0.22280  0.29379  0.04724  1.0000
  H   H459      1.0  0.22643  0.31685  0.05687  1.0000
  C   C574      1.0  0.10414  0.28584  0.07166  1.0000
  C   C575      1.0  0.10900  0.26867  0.07326  1.0000
  C   C576      1.0  0.09967  0.25824  0.08561  1.0000
  C   C577      1.0  0.08584  0.26490  0.09681  1.0000
  C   C578      1.0  0.08134  0.28205  0.09560  1.0000
  C   C579      1.0  0.09036  0.29251  0.08290  1.0000
  H   H460      1.0  0.11981  0.26345  0.06481  1.0000
  S   S104      1.0  0.15557  0.29178  0.97694  1.0000
  H   H461      1.0  0.07070  0.28729  0.10419  1.0000
  H   H462      1.0  0.08665  0.30580  0.08179  1.0000
  C   C580      1.0  0.10887  0.24710  0.22776  1.0000
  C   C581      1.0  0.23635  0.25849  0.17060  1.0000
  C   C582      1.0  0.22430  0.27722  0.43251  1.0000
  C   C583      1.0  0.16732  0.23187  0.00121  1.0000
  C   C584      1.0  0.13734  0.39346  0.25413  1.0000
  C   C585      1.0  0.12055  0.39803  0.25363  1.0000
  C   C586      1.0  0.11363  0.38875  0.24748  1.0000
  C   C587      1.0  0.12331  0.37470  0.24164  1.0000
  C   C588      1.0  0.14035  0.37022  0.24160  1.0000
  C   C589      1.0  0.14737  0.37960  0.24792  1.0000
  H   H463      1.0  0.11273  0.40871  0.25830  1.0000
  H   H464      1.0  0.10054  0.39242  0.24744  1.0000
  H   H465      1.0  0.14798  0.35942  0.23704  1.0000
  H   H466      1.0  0.16038  0.37604  0.24819  1.0000
  C   C590      1.0  0.13379  0.24825  0.36808  1.0000
  C   C591      1.0  0.12162  0.23954  0.36998  1.0000
  H   H467      1.0  0.14613  0.26976  0.12608  1.0000
  C   C592      1.0  0.12777  0.24151  0.34036  1.0000
  C   C593      1.0  0.14073  0.24928  0.33851  1.0000
  C   C594      1.0  0.14361  0.25285  0.35232  1.0000
  C   C595      1.0  0.22013  0.47569  0.18774  1.0000
  H   H468      1.0  0.10053  0.28411  0.12320  1.0000
  H   H469      1.0  0.21492  0.27299  0.41354  1.0000
  C   C596      1.0  0.06448  0.28898  0.04660  1.0000
  C   C597      1.0  0.16341  0.34073  0.34307  1.0000
  C   C598      1.0  0.17958  0.33621  0.34559  1.0000
  C   C599      1.0  0.19120  0.34576  0.33611  1.0000
  C   C600      1.0  0.18681  0.35961  0.32379  1.0000
  C   C601      1.0  0.17071  0.36408  0.32114  1.0000
  C   C602      1.0  0.15898  0.35480  0.33095  1.0000
  H   H470      1.0  0.18313  0.32542  0.35486  1.0000
  H   H471      1.0  0.20368  0.34226  0.33813  1.0000
  H   H472      1.0  0.16721  0.37486  0.31174  1.0000
  H   H473      1.0  0.14643  0.35869  0.32920  1.0000
  C   C603      1.0  0.22295  0.24749  0.37490  1.0000
  C   C604      1.0  0.20706  0.29844  0.41551  1.0000
  H   H474      1.0  0.01629  0.23877  0.12618  1.0000
  C   C605      1.0  0.21533  0.35087  0.40389  1.0000
  S   S105      1.0  0.12001  0.24223  0.32323  1.0000
  H   H475      1.0  0.16409  0.41488  0.18428  1.0000
  C   C606      1.0  0.04622  0.23855  0.24669  1.0000
  C   C607      1.0  0.99011  0.26915  0.13063  1.0000
  C   C608      1.0  0.19128  0.46416  0.30190  1.0000
  C   C609      1.0  0.19279  0.45443  0.29068  1.0000
  C   C610      1.0  0.20181  0.45837  0.27448  1.0000
  S   S106      1.0  0.23655  0.32028  0.08551  1.0000
  H   H476      1.0  0.22503  0.44975  0.41357  1.0000
  H   H477      1.0  0.18398  0.46128  0.31433  1.0000
  H   H478      1.0  0.18670  0.44412  0.29446  1.0000
  C   C611      1.0  0.20650  0.28997  0.97962  1.0000
  C   C612      1.0  0.17505  0.24951  0.29339  1.0000
  H   H479      1.0  0.20803  0.31840  0.19115  1.0000
  C   C613      1.0  0.15593  0.40644  0.18714  1.0000
  C   C614      1.0  0.20727  0.39639  0.33875  1.0000
  H   H480      1.0  0.23330  0.38017  0.13484  1.0000
  C   C615      1.0  0.17162  0.32109  0.45729  1.0000
  C   C616      1.0  0.16469  0.32638  0.44325  1.0000
  C   C617      1.0  0.16363  0.31478  0.43502  1.0000
  C   C618      1.0  0.16916  0.29780  0.44100  1.0000
  C   C619      1.0  0.17608  0.29259  0.45497  1.0000
  C   C620      1.0  0.17752  0.30415  0.46293  1.0000
  H   H481      1.0  0.15994  0.33946  0.43884  1.0000
  H   H482      1.0  0.15796  0.31888  0.42449  1.0000
  H   H483      1.0  0.13676  0.26565  0.98906  1.0000
  C   C621      1.0  0.16684  0.38632  0.12664  1.0000
  H   H484      1.0  0.16779  0.23212  0.38491  1.0000
  H   H485      1.0  0.19194  0.24497  0.37177  1.0000
  H   H486      1.0  0.06447  0.29074  0.00306  1.0000
  C   C622      1.0  0.13171  0.29373  0.46522  1.0000
  C   C623      1.0  0.23291  0.42738  0.20320  1.0000
  C   C624      1.0  0.23529  0.39832  0.21685  1.0000
  C   C625      1.0  0.15841  0.26658  0.12860  1.0000
  H   H487      1.0  0.11131  0.32640  0.44036  1.0000
  C   C626      1.0  0.21726  0.26061  0.98066  1.0000
  H   H488      1.0  0.05738  0.25500  0.30925  1.0000
  H   H489      1.0  0.15615  0.23883  0.00783  1.0000
  C   C627      1.0  0.18536  0.35746  0.19217  1.0000
  H   H490      1.0  0.22501  0.24924  0.98583  1.0000
  C   C628      1.0  0.20081  0.23373  0.03412  1.0000
  H   H491      1.0  0.20717  0.36197  0.15216  1.0000
  H   H492      1.0  0.09756  0.29192  0.03528  1.0000
  H   H493      1.0  0.18027  0.27952  0.45977  1.0000
  H   H494      1.0  0.10326  0.24498  0.08656  1.0000
  C   C629      1.0  0.23602  0.31652  0.35764  1.0000
  C   C630      1.0  0.17227  0.26629  0.11545  1.0000
  H   H495      1.0  0.17510  0.25374  0.98554  1.0000
  H   H496      1.0  0.02827  0.25776  0.06692  1.0000
  H   H497      1.0  0.11725  0.26202  0.10842  1.0000
  C   C631      1.0  0.20764  0.27064  0.18133  1.0000
  C   C632      1.0  0.20958  0.33952  0.17071  1.0000
  C   C633      1.0  0.06839  0.24162  0.27339  1.0000
  H   H498      1.0  0.22158  0.42710  0.17269  1.0000
  H   H499      1.0  0.23433  0.29483  0.19221  1.0000
  C   C634      1.0  0.21667  0.30572  0.43577  1.0000
  H   H500      1.0  0.19449  0.24570  0.03690  1.0000
  C   C635      1.0  0.04128  0.30436  0.21058  1.0000
  H   H501      1.0  0.11764  0.40171  0.21017  1.0000
  Fe  Fe55      1.0  0.22919  0.33001  0.10853  1.0000
  H   H502      1.0  0.03789  0.31617  0.20231  1.0000
  C   C636      1.0  0.07977  0.24663  0.23319  1.0000
  H   H503      1.0  0.06638  0.29937  0.03632  1.0000
  C   C637      1.0  0.21263  0.34250  0.37045  1.0000
  C   C638      1.0  0.20860  0.32718  0.37275  1.0000
  P   P19       1.0  0.19764  0.35908  0.37902  1.0000
  C   C639      1.0  0.17689  0.35769  0.37946  1.0000
  C   C640      1.0  0.19977  0.35730  0.39971  1.0000
  C   C641      1.0  0.02202  0.24800  0.07458  1.0000
  C   C642      1.0  0.20487  0.40992  0.34575  1.0000
  C   C643      1.0  0.16832  0.36813  0.36739  1.0000
  C   C644      1.0  0.15233  0.36694  0.36781  1.0000
  C   C645      1.0  0.14485  0.35519  0.38011  1.0000
  C   C646      1.0  0.15327  0.34471  0.39211  1.0000
  C   C647      1.0  0.16918  0.34600  0.39189  1.0000
  C   C648      1.0  0.18220  0.23751  0.30557  1.0000
  C   C649      1.0  0.05252  0.27891  0.07543  1.0000
  C   C650      1.0  0.03752  0.29023  0.20888  1.0000
  C   C651      1.0  0.22020  0.31428  0.36629  1.0000
  H   H504      1.0  0.19644  0.32523  0.37929  1.0000
  H   H505      1.0  0.19522  0.39127  0.38638  1.0000
  P   P20       1.0  0.18135  0.38673  0.16795  1.0000
  H   H506      1.0  0.14601  0.37469  0.35818  1.0000
  H   H507      1.0  0.13275  0.35382  0.37996  1.0000
  H   H508      1.0  0.14753  0.33536  0.40135  1.0000
  H   H509      1.0  0.17555  0.33769  0.40126  1.0000
  H   H510      1.0  0.22522  0.25739  0.19650  1.0000
  H   H511      1.0  0.20458  0.24957  0.39732  1.0000
  C   C652      1.0  0.15684  0.24439  0.21223  1.0000
  H   H512      1.0  0.09183  0.24047  0.18025  1.0000
  C   C653      1.0  0.20286  0.35355  0.43214  1.0000
  H   H513      1.0  0.10971  0.25817  0.18089  1.0000
  C   C654      1.0  0.22871  0.34451  0.36206  1.0000
  C   C655      1.0  0.20301  0.24844  0.44304  1.0000
  H   H514      1.0  0.16312  0.24919  0.29171  1.0000
  H   H515      1.0  0.19280  0.44833  0.20084  1.0000
  H   H516      1.0  0.23227  0.35609  0.36038  1.0000
  C   C656      1.0  0.18340  0.26171  0.28317  1.0000
  H   H517      1.0  0.17261  0.45726  0.24754  1.0000
  H   H518      1.0  0.20389  0.35172  0.44480  1.0000
  C   C657      1.0  0.17825  0.24030  0.98877  1.0000
  H   H519      1.0  0.18750  0.42103  0.20359  1.0000
  C   C658      1.0  0.10025  0.29440  0.02192  1.0000
  C   C659      1.0  0.20356  0.42541  0.16051  1.0000
  C   C660      1.0  0.19371  0.41549  0.15931  1.0000
  H   H520      1.0  0.04590  0.23356  0.11206  1.0000
  H   H521      1.0  0.20330  0.43767  0.15260  1.0000
  H   H522      1.0  0.18568  0.42031  0.15058  1.0000
  C   C661      1.0  0.13469  0.28131  0.30167  1.0000
  C   C662      1.0  0.13357  0.27949  0.28651  1.0000
  C   C663      1.0  0.14078  0.28924  0.27191  1.0000
  C   C664      1.0  0.14961  0.30044  0.27239  1.0000
  C   C665      1.0  0.15187  0.30141  0.28757  1.0000
  C   C666      1.0  0.14380  0.29219  0.30223  1.0000
  P   P21       1.0  0.16297  0.31593  0.28867  1.0000
  C   C667      1.0  0.17659  0.30716  0.30297  1.0000
  C   C668      1.0  0.17626  0.32316  0.26916  1.0000
  C   C669      1.0  0.18519  0.31220  0.25873  1.0000
  C   C670      1.0  0.19564  0.31770  0.24375  1.0000
  C   C671      1.0  0.19768  0.33403  0.23928  1.0000
  C   C672      1.0  0.18931  0.34486  0.24982  1.0000
  C   C673      1.0  0.17872  0.33944  0.26476  1.0000
  C   C674      1.0  0.18422  0.31761  0.30685  1.0000
  C   C675      1.0  0.19531  0.31106  0.31737  1.0000
  C   C676      1.0  0.19868  0.29409  0.32433  1.0000
  C   C677      1.0  0.19113  0.28359  0.32057  1.0000
  C   C678      1.0  0.18022  0.29005  0.30985  1.0000
  C   C679      1.0  0.14699  0.33259  0.29577  1.0000
  C   C680      1.0  0.14126  0.33211  0.31275  1.0000
  C   C681      1.0  0.12810  0.34446  0.31833  1.0000
  C   C682      1.0  0.12084  0.35756  0.30700  1.0000
  C   C683      1.0  0.12647  0.35810  0.29009  1.0000
  C   C684      1.0  0.13930  0.34550  0.28449  1.0000
  H   H523      1.0  0.12835  0.27435  0.31301  1.0000
  H   H524      1.0  0.12690  0.27069  0.28611  1.0000
  H   H525      1.0  0.13933  0.28822  0.26023  1.0000
  H   H526      1.0  0.15453  0.30828  0.26089  1.0000
  H   H527      1.0  0.14452  0.29342  0.31415  1.0000
  H   H528      1.0  0.18397  0.29945  0.26203  1.0000
  H   H529      1.0  0.20199  0.30931  0.23552  1.0000
  C   C685      1.0  0.10923  0.30654  0.01291  1.0000
  H   H530      1.0  0.19107  0.35748  0.24642  1.0000
  H   H531      1.0  0.17257  0.34798  0.27287  1.0000
  H   H532      1.0  0.18159  0.33087  0.30179  1.0000
  H   H533      1.0  0.20118  0.31920  0.32025  1.0000
  H   H534      1.0  0.20702  0.28911  0.33275  1.0000
  H   H535      1.0  0.19360  0.27046  0.32618  1.0000
  H   H536      1.0  0.17470  0.28162  0.30707  1.0000
  H   H537      1.0  0.14695  0.32226  0.32175  1.0000
  H   H538      1.0  0.12389  0.34407  0.33147  1.0000
  H   H539      1.0  0.11095  0.36738  0.31130  1.0000
  H   H540      1.0  0.12090  0.36828  0.28129  1.0000
  H   H541      1.0  0.14321  0.34587  0.27138  1.0000
  C   C686      1.0  0.18039  0.38909  0.14669  1.0000
  H   H542      1.0  0.20391  0.39668  0.10749  1.0000
  C   C687      1.0  0.03414  0.30417  0.31578  1.0000
  C   C688      1.0  0.02747  0.30810  0.33129  1.0000
  C   C689      1.0  0.03776  0.31065  0.33990  1.0000
  C   C690      1.0  0.05474  0.30918  0.33307  1.0000
  C   C691      1.0  0.06159  0.30488  0.31765  1.0000
  C   C692      1.0  0.05112  0.30263  0.30893  1.0000
  P   P22       1.0  0.08337  0.30369  0.30850  1.0000
  C   C693      1.0  0.09463  0.29708  0.32496  1.0000
  C   C694      1.0  0.08970  0.28906  0.29514  1.0000
  C   C695      1.0  0.09242  0.27195  0.30187  1.0000
  C   C696      1.0  0.09663  0.26066  0.29168  1.0000
  C   C697      1.0  0.09806  0.26630  0.27465  1.0000
  C   C698      1.0  0.09506  0.28331  0.26780  1.0000
  C   C699      1.0  0.09075  0.29466  0.27799  1.0000
  C   C700      1.0  0.10592  0.30595  0.32546  1.0000
  C   C701      1.0  0.11387  0.30127  0.33868  1.0000
  C   C702      1.0  0.11063  0.28776  0.35151  1.0000
  C   C703      1.0  0.09927  0.27905  0.35126  1.0000
  C   C704      1.0  0.09126  0.28369  0.33812  1.0000
  C   C705      1.0  0.08660  0.32378  0.29647  1.0000
  C   C706      1.0  0.07415  0.33815  0.29815  1.0000
  C   C707      1.0  0.07681  0.35360  0.28857  1.0000
  C   C708      1.0  0.09186  0.35477  0.27731  1.0000
  C   C709      1.0  0.10434  0.34053  0.27571  1.0000
  C   C710      1.0  0.10180  0.32511  0.28532  1.0000
  H   H543      1.0  0.02610  0.30244  0.30902  1.0000
  H   H544      1.0  0.03257  0.31386  0.35186  1.0000
  H   H545      1.0  0.06247  0.31149  0.33980  1.0000
  H   H546      1.0  0.05602  0.29979  0.29681  1.0000
  H   H547      1.0  0.09142  0.26715  0.31496  1.0000
  H   H548      1.0  0.09897  0.24747  0.29704  1.0000
  H   H549      1.0  0.10149  0.25744  0.26683  1.0000
  H   H550      1.0  0.09605  0.28770  0.25455  1.0000
  H   H551      1.0  0.08810  0.30776  0.27237  1.0000
  H   H552      1.0  0.10865  0.31654  0.31580  1.0000
  H   H553      1.0  0.12254  0.30812  0.33906  1.0000
  H   H554      1.0  0.11688  0.28407  0.36170  1.0000
  H   H555      1.0  0.09670  0.26864  0.36130  1.0000
  H   H556      1.0  0.08224  0.27694  0.33845  1.0000
  H   H557      1.0  0.06236  0.33753  0.30673  1.0000
  H   H558      1.0  0.06717  0.36468  0.28973  1.0000
  H   H559      1.0  0.09383  0.36669  0.26970  1.0000
  H   H560      1.0  0.11596  0.34146  0.26687  1.0000
  H   H561      1.0  0.11162  0.31421  0.28395  1.0000
  P   P23       1.0  0.17238  0.47774  0.21439  1.0000
  C   C711      1.0  0.10208  0.25090  0.02898  1.0000
  H   H562      1.0  0.22500  0.23908  0.02838  1.0000
  C   C712      1.0  0.11843  0.23645  0.35619  1.0000
  H   H563      1.0  0.21681  0.31481  0.44223  1.0000
  C   C713      1.0  0.20734  0.31020  0.42370  1.0000
  C   C714      1.0  0.15963  0.47306  0.26452  1.0000
  C   C715      1.0  0.11276  0.23627  0.21714  1.0000
  H   H564      1.0  0.15657  0.38333  0.12398  1.0000
  C   C716      1.0  0.09543  0.28513  0.01376  1.0000
  H   H565      1.0  0.99883  0.26488  0.08127  1.0000
  C   C717      1.0  0.13508  0.23892  0.15043  1.0000
  C   C718      1.0  0.22870  0.47516  0.19949  1.0000
  C   C719      1.0  0.19872  0.26219  0.28543  1.0000
  C   C720      1.0  0.21508  0.24168  0.39116  1.0000
  C   C721      1.0  0.22846  0.25827  0.47166  1.0000
  P   P24       1.0  0.05861  0.25349  0.24346  1.0000
  C   C722      1.0  0.14987  0.38141  0.18489  1.0000
  H   H566      1.0  0.20004  0.32270  0.42095  1.0000
  H   H567      1.0  0.05745  0.25243  0.08414  1.0000
  H   H568      1.0  0.22625  0.34706  0.39478  1.0000
  C   C723      1.0  0.20447  0.39367  0.18079  1.0000
  C   C724      1.0  0.05042  0.30302  0.22213  1.0000
  C   C725      1.0  0.23018  0.27814  0.09634  1.0000
  H   H569      1.0  0.17393  0.37698  0.35736  1.0000
  H   H570      1.0  0.21688  0.26680  0.46981  1.0000
  C   C726      1.0  0.13654  0.33583  0.04758  1.0000
  C   C727      1.0  0.14242  0.35045  0.04217  1.0000
  C   C728      1.0  0.14740  0.35630  0.05317  1.0000
  C   C729      1.0  0.14678  0.34738  0.06948  1.0000
  C   C730      1.0  0.14112  0.33255  0.07493  1.0000
  C   C731      1.0  0.13577  0.32699  0.06392  1.0000
  P   P25       1.0  0.13968  0.32165  0.09623  1.0000
  C   C732      1.0  0.12595  0.33633  0.10817  1.0000
  C   C733      1.0  0.13222  0.30293  0.10008  1.0000
  C   C734      1.0  0.14160  0.29033  0.09171  1.0000
  C   C735      1.0  0.13622  0.27562  0.09472  1.0000
  H   H571      1.0  0.04999  0.30474  0.06343  1.0000
  C   C736      1.0  0.11213  0.28577  0.11459  1.0000
  C   C737      1.0  0.11742  0.30053  0.11153  1.0000
  C   C738      1.0  0.10938  0.34224  0.10666  1.0000
  C   C739      1.0  0.09869  0.35386  0.11556  1.0000
  C   C740      1.0  0.10458  0.36000  0.12568  1.0000
  C   C741      1.0  0.12119  0.35459  0.12684  1.0000
  C   C742      1.0  0.13186  0.34287  0.11808  1.0000
  C   C743      1.0  0.15965  0.31497  0.10167  1.0000
  C   C744      1.0  0.17422  0.31748  0.08992  1.0000
  C   C745      1.0  0.18937  0.31300  0.09473  1.0000
  C   C746      1.0  0.19012  0.30573  0.11119  1.0000
  C   C747      1.0  0.17571  0.30296  0.12290  1.0000
  C   C748      1.0  0.16056  0.30738  0.11811  1.0000
  H   H572      1.0  0.13251  0.33129  0.03917  1.0000
  H   H573      1.0  0.14314  0.35721  0.02946  1.0000
  H   H574      1.0  0.15204  0.36759  0.04898  1.0000
  H   H575      1.0  0.15085  0.35198  0.07782  1.0000
  H   H576      1.0  0.13086  0.31592  0.06784  1.0000
  H   H577      1.0  0.15292  0.29201  0.08261  1.0000
  H   H578      1.0  0.20606  0.42196  0.33782  1.0000
  H   H579      1.0  0.19969  0.30187  0.40630  1.0000
  C   C749      1.0  0.23391  0.26410  0.15433  1.0000
  H   H580      1.0  0.10984  0.30997  0.11807  1.0000
  H   H581      1.0  0.10472  0.33781  0.09863  1.0000
  H   H582      1.0  0.08584  0.35813  0.11457  1.0000
  H   H583      1.0  0.09630  0.36896  0.13261  1.0000
  H   H584      1.0  0.12581  0.35936  0.13465  1.0000
  H   H585      1.0  0.14470  0.33913  0.11904  1.0000
  H   H586      1.0  0.17399  0.32305  0.07709  1.0000
  H   H587      1.0  0.20046  0.31556  0.08572  1.0000
  H   H588      1.0  0.20180  0.30268  0.11493  1.0000
  H   H589      1.0  0.17624  0.29768  0.13573  1.0000
  H   H590      1.0  0.14943  0.30528  0.12724  1.0000
  H   H591      1.0  0.22934  0.26525  0.07862  1.0000
  C   C750      1.0  0.08365  0.23643  0.22193  1.0000
  H   H592      1.0  0.22899  0.47744  0.35675  1.0000
  H   H593      1.0  0.04483  0.25701  0.98943  1.0000
  C   C751      1.0  0.05912  0.26260  0.07354  1.0000
  H   H594      1.0  0.04050  0.26381  0.21668  1.0000
  H   H595      1.0  0.21021  0.39789  0.32542  1.0000
  H   H596      1.0  0.13085  0.29920  0.43955  1.0000
  C   C752      1.0  0.23257  0.45894  0.40814  1.0000
  C   C753      1.0  0.13889  0.26897  0.97573  1.0000
  H   H597      1.0  0.23579  0.35009  0.19591  1.0000
  H   H598      1.0  0.23697  0.40445  0.14245  1.0000
  H   H599      1.0  0.22625  0.44013  0.20254  1.0000
  C   C754      1.0  0.11046  0.24194  0.01663  1.0000
  C   C755      1.0  0.05554  0.28760  0.23219  1.0000
  H   H600      1.0  0.14714  0.23808  0.14215  1.0000
  H   H601      1.0  0.14181  0.26767  0.21773  1.0000
  C   C756      1.0  0.21684  0.34902  0.42006  1.0000
  H   H602      1.0  0.22880  0.34380  0.42334  1.0000
  H   H603      1.0  0.09745  0.28026  0.98985  1.0000
  H   H604      1.0  0.20572  0.33832  0.22764  1.0000
  H   H605      1.0  0.03929  0.27698  0.26472  1.0000
  H   H606      1.0  0.12123  0.31825  0.98874  1.0000
  C   C757      1.0  0.22805  0.47237  0.39553  1.0000
  C   C758      1.0  0.12156  0.27330  0.10625  1.0000
  H   H607      1.0  0.10677  0.24533  0.00492  1.0000
  H   H608      1.0  0.10111  0.33629  0.46656  1.0000
  H   H609      1.0  0.16030  0.23987  0.22410  1.0000
  H   H610      1.0  0.05956  0.23338  0.00784  1.0000
  H   H611      1.0  0.20497  0.38150  0.18887  1.0000
  H   H612      1.0  0.08958  0.26103  0.24354  1.0000
  C   C759      1.0  0.19352  0.39377  0.11742  1.0000
  H   H613      1.0  0.05419  0.31380  0.22275  1.0000
  H   H614      1.0  0.11315  0.31342  0.01937  1.0000
  S   S107      1.0  0.13432  0.23399  0.27895  1.0000
  C   C760      1.0  0.19879  0.39247  0.37313  1.0000
  P   P26       1.0  0.14220  0.26326  0.16167  1.0000
  C   C761      1.0  0.13097  0.28457  0.15863  1.0000
  H   H615      1.0  0.11853  0.25127  0.23012  1.0000
  C   C762      1.0  0.14170  0.26571  0.19350  1.0000
  C   C763      1.0  0.06070  0.24587  0.00681  1.0000
  H   H616      1.0  0.04575  0.28131  0.08746  1.0000
  C   C764      1.0  0.13767  0.29674  0.16080  1.0000
  C   C765      1.0  0.12900  0.31326  0.15868  1.0000
  C   C766      1.0  0.11377  0.31781  0.15411  1.0000
  C   C767      1.0  0.10733  0.30590  0.15131  1.0000
  C   C768      1.0  0.11585  0.28933  0.15357  1.0000
  C   C769      1.0  0.05372  0.27533  0.99521  1.0000
  H   H617      1.0  0.13303  0.27752  0.19143  1.0000
  C   C770      1.0  0.14775  0.25602  0.18154  1.0000
  H   H618      1.0  0.22409  0.27447  0.99404  1.0000
  H   H619      1.0  0.14948  0.29345  0.16435  1.0000
  H   H620      1.0  0.13399  0.32253  0.16076  1.0000
  H   H621      1.0  0.10681  0.33051  0.15296  1.0000
  H   H622      1.0  0.09549  0.30946  0.14774  1.0000
  H   H623      1.0  0.11044  0.28040  0.15142  1.0000
  C   C771      1.0  0.18079  0.44591  0.20756  1.0000
  H   H624      1.0  0.20703  0.37068  0.34325  1.0000
  C   C772      1.0  0.06362  0.27815  0.00409  1.0000
  C   C773      1.0  0.17784  0.43031  0.20905  1.0000
  H   H625      1.0  0.19866  0.41849  0.36834  1.0000
  H   H626      1.0  0.19300  0.28338  0.16315  1.0000
  H   H627      1.0  0.07583  0.23179  0.29661  1.0000
  C   C774      1.0  0.19792  0.23741  0.30743  1.0000
  H   H628      1.0  0.16084  0.41394  0.22026  1.0000
  H   H629      1.0  0.04719  0.28567  0.98726  1.0000
  C   C775      1.0  0.05129  0.27343  0.23096  1.0000
  C   C776      1.0  0.19174  0.34059  0.19771  1.0000
  H   H630      1.0  0.06330  0.28666  0.24049  1.0000
  C   C777      1.0  0.15061  0.43801  0.22605  1.0000
  H   H631      1.0  0.21567  0.27788  0.13962  1.0000
  H   H632      1.0  0.20496  0.27193  0.27775  1.0000
  H   H633      1.0  0.13668  0.42089  0.20280  1.0000
  P   P27       1.0  0.08519  0.26847  0.02550  1.0000
  H   H634      1.0  0.00610  0.23599  0.25223  1.0000
  H   H635      1.0  0.17661  0.36365  0.43746  1.0000
  H   H636      1.0  0.03908  0.27750  0.29320  1.0000
  C   C778      1.0  0.05839  0.25448  0.26409  1.0000
  H   H637      1.0  0.12600  0.37657  0.19868  1.0000
  C   C779      1.0  0.19425  0.39945  0.16931  1.0000
  H   H638      1.0  0.17602  0.36416  0.20072  1.0000
  H   H639      1.0  0.22214  0.39905  0.19079  1.0000
  C   C780      1.0  0.22327  0.26173  0.18400  1.0000
  C   C781      1.0  0.16858  0.45777  0.21527  1.0000
  C   C782      1.0  0.15342  0.45368  0.22446  1.0000
  C   C783      1.0  0.20549  0.38093  0.34890  1.0000
  H   H640      1.0  0.22665  0.47559  0.22482  1.0000
  C   C784      1.0  0.11409  0.25004  0.17226  1.0000
  C   C785      1.0  0.11371  0.30931  0.99570  1.0000
  C   C786      1.0  0.12957  0.24985  0.16124  1.0000
  H   H641      1.0  0.20452  0.39525  0.13615  1.0000
  H   H642      1.0  0.21860  0.33253  0.16220  1.0000
  C   C787      1.0  0.16087  0.39205  0.18074  1.0000
  C   C788      1.0  0.10957  0.32436  0.46620  1.0000
  H   H643      1.0  0.21688  0.30256  0.36787  1.0000
  C   C789      1.0  0.04735  0.26756  0.28763  1.0000
  C   C790      1.0  0.07062  0.24865  0.01569  1.0000
  C   C791      1.0  0.20069  0.40795  0.36293  1.0000
  C   C792      1.0  0.11528  0.31880  0.45147  1.0000
  C   C793      1.0  0.19054  0.36531  0.17560  1.0000
  C   C794      1.0  0.21685  0.27502  0.98538  1.0000
  H   H644      1.0  0.22693  0.47450  0.17535  1.0000
  C   C795      1.0  0.20373  0.33160  0.18697  1.0000
  C   C796      1.0  0.10017  0.28784  0.99645  1.0000
  H   H645      1.0  0.17826  0.25712  0.16022  1.0000
  C   C797      1.0  0.20292  0.35628  0.16498  1.0000
  H   H646      1.0  0.14799  0.25333  0.32634  1.0000
  H   H647      1.0  0.19755  0.27338  0.19169  1.0000
  P   P28       1.0  0.23389  0.25564  0.43901  1.0000
  H   H648      1.0  0.11311  0.30179  0.97415  1.0000
  H   H649      1.0  0.18688  0.33432  0.21017  1.0000
  C   C798      1.0  0.22011  0.24216  0.44179  1.0000
  C   C799      1.0  0.20506  0.27620  0.16526  1.0000
  C   C800      1.0  0.18743  0.36028  0.42799  1.0000
  C   C801      1.0  0.13432  0.38498  0.19534  1.0000
  C   C802      1.0  0.23558  0.27694  0.11057  1.0000
  H   H650      1.0  0.18024  0.39045  0.10126  1.0000
  C   C803      1.0  0.10396  0.23999  0.17198  1.0000
  C   C804      1.0  0.16694  0.38570  0.14296  1.0000
  H   H651      1.0  0.14049  0.28213  0.46432  1.0000
  C   C805      1.0  0.16590  0.46972  0.24874  1.0000
  C   C806      1.0  0.19862  0.23465  0.35028  1.0000
  C   C807      1.0  0.14036  0.40994  0.19767  1.0000
  C   C808      1.0  0.06851  0.25944  0.05824  1.0000
  H   H652      1.0  0.21748  0.25110  0.29955  1.0000
  H   H653      1.0  0.01431  0.30931  0.33658  1.0000
  C   C809      1.0  0.07176  0.27263  0.04480  1.0000
  C   C810      1.0  0.12625  0.30346  0.45102  1.0000
  C   C811      1.0  0.16238  0.23439  0.20065  1.0000
  C   C812      1.0  0.10912  0.30002  0.98747  1.0000
  C   C813      1.0  0.21421  0.40366  0.18200  1.0000
  H   H654      1.0  0.03121  0.29124  0.19930  1.0000
  C   C814      1.0  0.21809  0.27301  0.15184  1.0000
  H   H655      1.0  0.21657  0.41834  0.22550  1.0000
  C   C815      1.0  0.12960  0.39919  0.20180  1.0000
  H   H656      1.0  0.23320  0.28801  0.11524  1.0000
  H   H657      1.0  0.15343  0.37013  0.18029  1.0000
  C   C816      1.0  0.05503  0.29209  0.06192  1.0000
  C   C817      1.0  0.05236  0.25919  0.99647  1.0000
  H   H658      1.0  0.17793  0.27078  0.27354  1.0000
  S   S108      1.0  0.17211  0.33580  0.46793  1.0000
  C   C818      1.0  0.16282  0.42631  0.21840  1.0000
  H   H659      1.0  0.23270  0.28630  0.44920  1.0000
  H   H660      1.0  0.15665  0.38215  0.15253  1.0000
  C   C819      1.0  0.18588  0.36230  0.41182  1.0000
  H   H661      1.0  0.17379  0.36759  0.40889  1.0000
  C   C820      1.0  0.21384  0.41948  0.17183  1.0000
  H   H662      1.0  0.13919  0.43466  0.23375  1.0000
  C   C821      1.0  0.21560  0.28203  0.41978  1.0000
  H   H663      1.0  0.19764  0.26148  0.44239  1.0000
  C   C822      1.0  0.19374  0.39306  0.13373  1.0000
  C   C823      1.0  0.14651  0.26003  0.20863  1.0000
  C   C824      1.0  0.00546  0.25203  0.08277  1.0000
  C   C825      1.0  0.16036  0.26280  0.14493  1.0000
  C   C826      1.0  0.20301  0.47707  0.22020  1.0000
  C   C827      1.0  0.07252  0.26477  0.01401  1.0000
  H   H664      1.0  0.19679  0.47720  0.23293  1.0000
  C   C828      1.0  0.20119  0.37884  0.36615  1.0000
  H   H665      1.0  0.02310  0.25673  0.24608  1.0000
  H   H666      1.0  0.16206  0.23224  0.17655  1.0000
  H   H667      1.0  0.20687  0.47533  0.34478  1.0000
  C   C829      1.0  0.18816  0.26250  0.11848  1.0000
  C   C830      1.0  0.20298  0.47693  0.19220  1.0000
  C   C831      1.0  0.02903  0.24369  0.24783  1.0000
  H   H668      1.0  0.01484  0.24049  0.19455  1.0000
  H   H669      1.0  0.16167  0.46324  0.27526  1.0000
  C   C832      1.0  0.05758  0.25484  0.29670  1.0000
  H   H670      1.0  0.21672  0.47481  0.25718  1.0000
  H   H671      1.0  0.22936  0.35123  0.22531  1.0000
  H   H672      1.0  0.22383  0.28998  0.09013  1.0000
  H   H673      1.0  0.23537  0.29312  0.16369  1.0000
  H   H674      1.0  0.12388  0.25328  0.97435  1.0000
  C   C833      1.0  0.19022  0.25908  0.13466  1.0000
  C   C834      1.0  0.22009  0.47612  0.21563  1.0000
  C   C835      1.0  0.19256  0.23789  0.44489  1.0000
  H   H675      1.0  0.10215  0.25419  0.05283  1.0000
  H   H676      1.0  0.11399  0.23596  0.38210  1.0000
  H   H677      1.0  0.20899  0.24067  0.34469  1.0000
  H   H678      1.0  0.21689  0.47343  0.39151  1.0000
  C   C836      1.0  0.23327  0.26418  0.08984  1.0000
  H   H679      1.0  0.17071  0.26916  0.10286  1.0000
  C   C837      1.0  0.23750  0.23754  0.36753  1.0000
  H   H680      1.0  0.23084  0.29815  0.01205  1.0000
  H   H681      1.0  0.07689  0.23822  0.02375  1.0000
  H   H682      1.0  0.22988  0.26865  0.02419  1.0000
  C   C838      1.0  0.22539  0.28936  0.43996  1.0000
  H   H683      1.0  0.07371  0.24672  0.05709  1.0000
  C   C839      1.0  0.19885  0.47777  0.29702  1.0000
  H   H684      1.0  0.19654  0.47701  0.18303  1.0000
  H   H685      1.0  0.14391  0.46243  0.23081  1.0000
  C   C840      1.0  0.19433  0.47734  0.20854  1.0000
  C   C841      1.0  0.20968  0.47177  0.26968  1.0000
  H   H686      1.0  0.07396  0.23255  0.21931  1.0000
  H   H687      1.0  0.20569  0.30096  0.98386  1.0000
  C   C842      1.0  0.12132  0.23375  0.04614  1.0000
  C   C843      1.0  0.15780  0.24014  0.18538  1.0000
  H   H688      1.0  0.12553  0.23197  0.21125  1.0000
  C   C844      1.0  0.01932  0.23196  0.25149  1.0000
  S   S109      1.0  0.05916  0.23151  0.19506  1.0000
  H   H689      1.0  0.14417  0.48104  0.19976  1.0000
  C   C845      1.0  0.03038  0.23140  0.07602  1.0000
  C   C846      1.0  0.19313  0.23141  0.98067  1.0000
  H   H690      1.0  0.07640  0.23134  0.26812  1.0000
  Fe  Fe56      1.0  0.19100  0.30906  0.52265  1.0000
  C   C847      1.0  0.20032  0.25653  0.83231  1.0000
  S   S110      1.0  0.18040  0.29665  0.54857  1.0000
  C   C848      1.0  0.18345  0.25083  0.48760  1.0000
  H   H691      1.0  0.22874  0.45012  0.63742  1.0000
  H   H692      1.0  0.20184  0.38435  0.53836  1.0000
  H   H693      1.0  0.05177  0.29330  0.64233  1.0000
  H   H694      1.0  0.19861  0.25727  0.74703  1.0000
  S   S111      1.0  0.21156  0.39549  0.59108  1.0000
  C   C849      1.0  0.22932  0.43447  0.70212  1.0000
  C   C850      1.0  0.21536  0.30251  0.89405  1.0000
  C   C851      1.0  0.14095  0.25361  0.82367  1.0000
  H   H695      1.0  0.12941  0.28968  0.61203  1.0000
  Fe  Fe57      1.0  0.20387  0.38487  0.61823  1.0000
  S   S112      1.0  0.17690  0.38487  0.62926  1.0000
  C   C852      1.0  0.21977  0.46721  0.72014  1.0000
  H   H696      1.0  0.20132  0.26860  0.58010  1.0000
  C   C853      1.0  0.17891  0.41500  0.66858  1.0000
  C   C854      1.0  0.11473  0.24486  0.70725  1.0000
  S   S113      1.0  0.05018  0.25428  0.80429  1.0000
  H   H697      1.0  0.19397  0.24636  0.53235  1.0000
  H   H698      1.0  0.07662  0.27437  0.51731  1.0000
  C   C855      1.0  0.21106  0.37329  0.54166  1.0000
  Fe  Fe58      1.0  0.06435  0.24940  0.77938  1.0000
  S   S114      1.0  0.07477  0.26825  0.75800  1.0000
  H   H699      1.0  0.20253  0.24277  0.57115  1.0000
  C   C856      1.0  0.03901  0.27367  0.74066  1.0000
  S   S115      1.0  0.21720  0.39958  0.62591  1.0000
  S   S116      1.0  0.12314  0.25863  0.94028  1.0000
  C   C857      1.0  0.15822  0.35346  0.56343  1.0000
  S   S117      1.0  0.17523  0.27432  0.86547  1.0000
  S   S118      1.0  0.12773  0.27697  0.88995  1.0000
  C   C858      1.0  0.06402  0.25742  0.66911  1.0000
  C   C859      1.0  0.21843  0.32198  0.66701  1.0000
  C   C860      1.0  0.20335  0.31057  0.90573  1.0000
  C   C861      1.0  0.22244  0.28613  0.86648  1.0000
  C   C862      1.0  0.22155  0.23756  0.78522  1.0000
  S   S119      1.0  0.13134  0.24888  0.56412  1.0000
  C   C863      1.0  0.19584  0.23710  0.58306  1.0000
  H   H700      1.0  0.19634  0.31410  0.93070  1.0000
  Fe  Fe59      1.0  0.10407  0.25607  0.62281  1.0000
  S   S120      1.0  0.10253  0.27503  0.63689  1.0000
  S   S121      1.0  0.14371  0.24657  0.86948  1.0000
  S   S122      1.0  0.09274  0.25811  0.60159  1.0000
  Fe  Fe60      1.0  0.22262  0.35461  0.76453  1.0000
  C   C864      1.0  0.15261  0.27279  0.49426  1.0000
  H   H701      1.0  0.10512  0.23970  0.73345  1.0000
  Fe  Fe61      1.0  0.20119  0.32950  0.78338  1.0000
  S   S123      1.0  0.22223  0.30751  0.77990  1.0000
  S   S124      1.0  0.17555  0.32546  0.79651  1.0000
  C   C865      1.0  0.21507  0.36048  0.53313  1.0000
  C   C866      1.0  0.17234  0.34957  0.55127  1.0000
  C   C867      1.0  0.23551  0.30224  0.71949  1.0000
  C   C868      1.0  0.18120  0.23822  0.84157  1.0000
  H   H702      1.0  0.18290  0.29990  0.47362  1.0000
  S   S125      1.0  0.20660  0.34291  0.75680  1.0000
  Fe  Fe62      1.0  0.16364  0.29968  0.68612  1.0000
  S   S126      1.0  0.18529  0.28865  0.66814  1.0000
  S   S127      1.0  0.14964  0.32619  0.68276  1.0000
  Fe  Fe63      1.0  0.16378  0.26717  0.71168  1.0000
  S   S128      1.0  0.18578  0.25344  0.69606  1.0000
  S   S129      1.0  0.15306  0.25309  0.73678  1.0000
  Fe  Fe64      1.0  0.19595  0.27611  0.69056  1.0000
  C   C869      1.0  0.13158  0.26201  0.96736  1.0000
  Fe  Fe65      1.0  0.17301  0.26712  0.67533  1.0000
  S   S130      1.0  0.17100  0.25267  0.65840  1.0000
  S   S131      1.0  0.17520  0.28871  0.70811  1.0000
  S   S132      1.0  0.15026  0.27921  0.69127  1.0000
  H   H703      1.0  0.20852  0.29380  0.56072  1.0000
  Fe  Fe66      1.0  0.22874  0.32196  0.75393  1.0000
  C   C870      1.0  0.22018  0.29769  0.72447  1.0000
  C   C871      1.0  0.21583  0.28953  0.71475  1.0000
  C   C872      1.0  0.22708  0.28543  0.70045  1.0000
  C   C873      1.0  0.20762  0.25725  0.93125  1.0000
  S   S133      1.0  0.09658  0.23249  0.63733  1.0000
  H   H704      1.0  0.21177  0.30040  0.73575  1.0000
  H   H705      1.0  0.20411  0.28587  0.71870  1.0000
  C   C874      1.0  0.11384  0.26569  0.81710  1.0000
  H   H706      1.0  0.17786  0.26284  0.80371  1.0000
  C   C875      1.0  0.18539  0.32889  0.57199  1.0000
  C   C876      1.0  0.14085  0.31445  0.50222  1.0000
  C   C877      1.0  0.18344  0.33347  0.73771  1.0000
  Fe  Fe67      1.0  0.11770  0.24357  0.59086  1.0000
  Fe  Fe68      1.0  0.13035  0.25723  0.91314  1.0000
  C   C878      1.0  0.11024  0.25135  0.53276  1.0000
  C   C879      1.0  0.12027  0.26847  0.64531  1.0000
  C   C880      1.0  0.12629  0.27979  0.64973  1.0000
  C   C881      1.0  0.14178  0.27493  0.65411  1.0000
  C   C882      1.0  0.15121  0.25878  0.65400  1.0000
  C   C883      1.0  0.14485  0.24733  0.65027  1.0000
  C   C884      1.0  0.12925  0.25208  0.64633  1.0000
  H   H707      1.0  0.11938  0.29249  0.64898  1.0000
  H   H708      1.0  0.14672  0.28386  0.65684  1.0000
  H   H709      1.0  0.23842  0.25815  0.81689  1.0000
  H   H710      1.0  0.12428  0.24299  0.64395  1.0000
  C   C885      1.0  0.13384  0.26656  0.95006  1.0000
  C   C886      1.0  0.14372  0.27795  0.94115  1.0000
  C   C887      1.0  0.15074  0.28519  0.94954  1.0000
  H   H711      1.0  0.23038  0.33638  0.53097  1.0000
  H   H712      1.0  0.14548  0.28158  0.92786  1.0000
  H   H713      1.0  0.15789  0.29442  0.94260  1.0000
  C   C888      1.0  0.17484  0.28882  0.84652  1.0000
  C   C889      1.0  0.18932  0.29438  0.83756  1.0000
  C   C890      1.0  0.18957  0.30563  0.82225  1.0000
  C   C891      1.0  0.17527  0.31151  0.81584  1.0000
  C   C892      1.0  0.16069  0.30616  0.82488  1.0000
  C   C893      1.0  0.16047  0.29486  0.84023  1.0000
  H   H714      1.0  0.20044  0.28991  0.84240  1.0000
  H   H715      1.0  0.20082  0.30978  0.81546  1.0000
  H   H716      1.0  0.14957  0.31075  0.82002  1.0000
  H   H717      1.0  0.14918  0.29087  0.84726  1.0000
  C   C894      1.0  0.09650  0.26427  0.75263  1.0000
  C   C895      1.0  0.10429  0.27165  0.73686  1.0000
  C   C896      1.0  0.12161  0.26826  0.73197  1.0000
  C   C897      1.0  0.13129  0.25756  0.74282  1.0000
  C   C898      1.0  0.12353  0.25028  0.75871  1.0000
  C   C899      1.0  0.10615  0.25367  0.76363  1.0000
  H   H718      1.0  0.09689  0.27965  0.72825  1.0000
  H   H719      1.0  0.12735  0.27403  0.71981  1.0000
  C   C900      1.0  0.16636  0.24114  0.77395  1.0000
  C   C901      1.0  0.21192  0.25643  0.63738  1.0000
  C   C902      1.0  0.22492  0.34498  0.67313  1.0000
  H   H720      1.0  0.16221  0.33968  0.75694  1.0000
  P   P29       1.0  0.15923  0.23701  0.82357  1.0000
  C   C903      1.0  0.19357  0.24410  0.84425  1.0000
  H   H721      1.0  0.21327  0.29306  0.63852  1.0000
  C   C904      1.0  0.20580  0.30810  0.92165  1.0000
  C   C905      1.0  0.10237  0.24204  0.72145  1.0000
  C   C906      1.0  0.12793  0.25281  0.81729  1.0000
  C   C907      1.0  0.09713  0.23757  0.86351  1.0000
  H   H722      1.0  0.10364  0.26480  0.81257  1.0000
  H   H723      1.0  0.06114  0.27295  0.72155  1.0000
  H   H724      1.0  0.06896  0.25679  0.83168  1.0000
  H   H725      1.0  0.04377  0.28369  0.69511  1.0000
  H   H726      1.0  0.21879  0.26075  0.93118  1.0000
  C   C908      1.0  0.19700  0.27614  0.96426  1.0000
  S   S134      1.0  0.15629  0.24505  0.90258  1.0000
  C   C909      1.0  0.09151  0.25477  0.85952  1.0000
  H   H727      1.0  0.10024  0.24827  0.77598  1.0000
  H   H728      1.0  0.07106  0.24485  0.66894  1.0000
  C   C910      1.0  0.17127  0.36802  0.64489  1.0000
  C   C911      1.0  0.17951  0.35154  0.64447  1.0000
  C   C912      1.0  0.17320  0.33842  0.65617  1.0000
  C   C913      1.0  0.15899  0.34184  0.66855  1.0000
  C   C914      1.0  0.15123  0.35830  0.66923  1.0000
  C   C915      1.0  0.15719  0.37131  0.65734  1.0000
  H   H729      1.0  0.19021  0.34892  0.63468  1.0000
  H   H730      1.0  0.17904  0.32575  0.65530  1.0000
  H   H731      1.0  0.14027  0.36103  0.67873  1.0000
  H   H732      1.0  0.15073  0.38399  0.65766  1.0000
  C   C916      1.0  0.16645  0.28395  0.55214  1.0000
  C   C917      1.0  0.16656  0.27562  0.54035  1.0000
  C   C918      1.0  0.15584  0.26477  0.54410  1.0000
  C   C919      1.0  0.14478  0.26246  0.55954  1.0000
  C   C920      1.0  0.14449  0.27112  0.57113  1.0000
  C   C921      1.0  0.15540  0.28171  0.56746  1.0000
  H   H733      1.0  0.17503  0.27741  0.52847  1.0000
  H   H734      1.0  0.15612  0.25829  0.53496  1.0000
  H   H735      1.0  0.13571  0.26988  0.58285  1.0000
  H   H736      1.0  0.15511  0.28849  0.57638  1.0000
  C   C922      1.0  0.05758  0.26275  0.68406  1.0000
  H   H737      1.0  0.19126  0.32619  0.85008  1.0000
  C   C923      1.0  0.17830  0.24924  0.93130  1.0000
  C   C924      1.0  0.18238  0.25713  0.81486  1.0000
  H   H738      1.0  0.16595  0.28549  0.50290  1.0000
  H   H739      1.0  0.22354  0.33651  0.60191  1.0000
  C   C925      1.0  0.02474  0.26736  0.74818  1.0000
  S   S135      1.0  0.21564  0.31493  0.51934  1.0000
  S   S136      1.0  0.17857  0.33516  0.51276  1.0000
  S   S137      1.0  0.19745  0.30143  0.49842  1.0000
  C   C926      1.0  0.18696  0.38514  0.67156  1.0000
  C   C927      1.0  0.23351  0.46970  0.61604  1.0000
  H   H740      1.0  0.06431  0.29860  0.77223  1.0000
  H   H741      1.0  0.18473  0.42459  0.68629  1.0000
  C   C928      1.0  0.16639  0.36108  0.73748  1.0000
  S   S138      1.0  0.22444  0.38111  0.75209  1.0000
  S   S139      1.0  0.22287  0.27420  0.68850  1.0000
  C   C929      1.0  0.20789  0.26603  0.76329  1.0000
  C   C930      1.0  0.20391  0.27750  0.77331  1.0000
  C   C931      1.0  0.18905  0.28941  0.77395  1.0000
  C   C932      1.0  0.17792  0.28993  0.76468  1.0000
  C   C933      1.0  0.18169  0.27850  0.75472  1.0000
  C   C934      1.0  0.19647  0.26641  0.75423  1.0000
  C   C935      1.0  0.20990  0.30319  0.62850  1.0000
  H   H742      1.0  0.19741  0.39703  0.70113  1.0000
  H   H743      1.0  0.23375  0.35238  0.67154  1.0000
  C   C936      1.0  0.23057  0.45387  0.62411  1.0000
  H   H744      1.0  0.13453  0.25648  0.52474  1.0000
  S   S140      1.0  0.00401  0.25016  0.80743  1.0000
  C   C937      1.0  0.04660  0.29016  0.66881  1.0000
  H   H745      1.0  0.18607  0.29813  0.78184  1.0000
  H   H746      1.0  0.16632  0.29909  0.76539  1.0000
  H   H747      1.0  0.17304  0.27874  0.74759  1.0000
  C   C938      1.0  0.19663  0.29053  0.96902  1.0000
  H   H748      1.0  0.14768  0.36290  0.56005  1.0000
  C   C939      1.0  0.11487  0.31459  0.48047  1.0000
  C   C940      1.0  0.12205  0.26032  0.52272  1.0000
  C   C941      1.0  0.11760  0.27446  0.51065  1.0000
  C   C942      1.0  0.10112  0.27947  0.50876  1.0000
  C   C943      1.0  0.16667  0.27510  0.49783  1.0000
  C   C944      1.0  0.13405  0.30051  0.51049  1.0000
  C   C945      1.0  0.18526  0.41358  0.68225  1.0000
  H   H749      1.0  0.20458  0.33108  0.71756  1.0000
  H   H750      1.0  0.17348  0.42709  0.66196  1.0000
  H   H751      1.0  0.08470  0.24955  0.53877  1.0000
  Fe  Fe69      1.0  0.15295  0.26334  0.87889  1.0000
  H   H752      1.0  0.06282  0.38500  0.70745  1.0000
  C   C946      1.0  0.13109  0.30755  0.53667  1.0000
  C   C947      1.0  0.12908  0.29717  0.52780  1.0000
  C   C948      1.0  0.19170  0.48077  0.71684  1.0000
  C   C949      1.0  0.08109  0.26159  0.84821  1.0000
  H   H753      1.0  0.18638  0.32054  0.74381  1.0000
  H   H754      1.0  0.19655  0.33388  0.54600  1.0000
  H   H755      1.0  0.08285  0.39321  0.68139  1.0000
  Fe  Fe70      1.0  0.23640  0.32219  0.78631  1.0000
  H   H756      1.0  0.12773  0.30463  0.55005  1.0000
  H   H757      1.0  0.12405  0.28639  0.53458  1.0000
  H   H758      1.0  0.12132  0.30882  0.69948  1.0000
  C   C950      1.0  0.20674  0.24494  0.53268  1.0000
  H   H759      1.0  0.21572  0.38192  0.56083  1.0000
  S   S141      1.0  0.22436  0.36215  0.61871  1.0000
  H   H760      1.0  0.14931  0.26829  0.83514  1.0000
  C   C951      1.0  0.22016  0.31445  0.62068  1.0000
  C   C952      1.0  0.14813  0.28094  0.96686  1.0000
  H   H761      1.0  0.11021  0.31907  0.49181  1.0000
  H   H762      1.0  0.23787  0.29564  0.54944  1.0000
  C   C953      1.0  0.18580  0.33712  0.55552  1.0000
  C   C954      1.0  0.15411  0.25913  0.48767  1.0000
  H   H763      1.0  0.19400  0.31754  0.67874  1.0000
  C   C955      1.0  0.07685  0.25138  0.84048  1.0000
  P   P30       1.0  0.22193  0.23780  0.59596  1.0000
  H   H764      1.0  0.06714  0.26429  0.64264  1.0000
  C   C956      1.0  0.09389  0.25637  0.53078  1.0000
  H   H765      1.0  0.23064  0.24069  0.70911  1.0000
  C   C957      1.0  0.18197  0.26408  0.49464  1.0000
  C   C958      1.0  0.16983  0.34427  0.74510  1.0000
  C   C959      1.0  0.16431  0.24465  0.78930  1.0000
  H   H766      1.0  0.12367  0.34776  0.71498  1.0000
  H   H767      1.0  0.06842  0.31966  0.71856  1.0000
  Fe  Fe71      1.0  0.23292  0.37347  0.59180  1.0000
  C   C960      1.0  0.19042  0.35638  0.71508  1.0000
  P   P31       1.0  0.13266  0.28673  0.49878  1.0000
  H   H768      1.0  0.07072  0.34531  0.77540  1.0000
  C   C961      1.0  0.08236  0.24671  0.70471  1.0000
  C   C962      1.0  0.23597  0.47440  0.59882  1.0000
  C   C963      1.0  0.21828  0.28336  0.56424  1.0000
  C   C964      1.0  0.99238  0.24063  0.80032  1.0000
  C   C965      1.0  0.08934  0.27039  0.51874  1.0000
  H   H769      1.0  0.19862  0.47812  0.61450  1.0000
  H   H770      1.0  0.15161  0.33964  0.72053  1.0000
  H   H771      1.0  0.01058  0.25034  0.74815  1.0000
  H   H772      1.0  0.19539  0.24251  0.48480  1.0000
  S   S142      1.0  0.20535  0.36297  0.51668  1.0000
  H   H773      1.0  0.22747  0.43075  0.62151  1.0000
  C   C966      1.0  0.14254  0.32495  0.51110  1.0000
  H   H774      1.0  0.12709  0.24454  0.70828  1.0000
  C   C967      1.0  0.21426  0.26891  0.57513  1.0000
  C   C968      1.0  0.21891  0.37192  0.55445  1.0000
  H   H775      1.0  0.19911  0.27356  0.80904  1.0000
  Fe  Fe72      1.0  0.22077  0.31040  0.49383  1.0000
  H   H776      1.0  0.15193  0.23475  0.65042  1.0000
  H   H777      1.0  0.01653  0.27122  0.75915  1.0000
  C   C969      1.0  0.22952  0.33197  0.66489  1.0000
  H   H778      1.0  0.22641  0.43629  0.74321  1.0000
  H   H779      1.0  0.09724  0.29045  0.49975  1.0000
  C   C970      1.0  0.04998  0.26816  0.72696  1.0000
  C   C971      1.0  0.23149  0.37765  0.68659  1.0000
  C   C972      1.0  0.06178  0.26838  0.65417  1.0000
  H   H780      1.0  0.06876  0.35706  0.72509  1.0000
  C   C973      1.0  0.12543  0.28025  0.82984  1.0000
  C   C974      1.0  0.11255  0.27938  0.82344  1.0000
  S   S143      1.0  0.21071  0.33674  0.48235  1.0000
  H   H781      1.0  0.13975  0.32922  0.53526  1.0000
  H   H782      1.0  0.12850  0.24210  0.81272  1.0000
  C   C975      1.0  0.22228  0.36706  0.69888  1.0000
  C   C976      1.0  0.17969  0.40081  0.66331  1.0000
  H   H783      1.0  0.12418  0.29061  0.83524  1.0000
  H   H784      1.0  0.10134  0.28903  0.82393  1.0000
  Fe  Fe73      1.0  0.03200  0.24122  0.80152  1.0000
  H   H785      1.0  0.19588  0.31919  0.57503  1.0000
  H   H786      1.0  0.16219  0.25744  0.79003  1.0000
  C   C977      1.0  0.23489  0.46349  0.58984  1.0000
  Fe  Fe74      1.0  0.08773  0.23294  0.61517  1.0000
  C   C978      1.0  0.21441  0.27295  0.87057  1.0000
  C   C979      1.0  0.21612  0.47205  0.73523  1.0000
  H   H787      1.0  0.14775  0.33569  0.50453  1.0000
  H   H788      1.0  0.13093  0.24211  0.76728  1.0000
  C   C980      1.0  0.19000  0.30936  0.87417  1.0000
  C   C981      1.0  0.22979  0.44288  0.61512  1.0000
  H   H789      1.0  0.20948  0.26150  0.83467  1.0000
  H   H790      1.0  0.21022  0.46875  0.69892  1.0000
  P   P32       1.0  0.20709  0.24227  0.96439  1.0000
  C   C982      1.0  0.23016  0.23693  0.74957  1.0000
  C   C983      1.0  0.20735  0.26100  0.97001  1.0000
  C   C984      1.0  0.17928  0.30163  0.88779  1.0000
  C   C985      1.0  0.16236  0.30475  0.88815  1.0000
  C   C986      1.0  0.15598  0.31550  0.87488  1.0000
  C   C987      1.0  0.16649  0.32332  0.86131  1.0000
  C   C988      1.0  0.18341  0.32030  0.86095  1.0000
  H   H791      1.0  0.17585  0.23616  0.57308  1.0000
  H   H792      1.0  0.22557  0.46907  0.74230  1.0000
  C   C989      1.0  0.16952  0.24839  0.48407  1.0000
  C   C990      1.0  0.23288  0.25508  0.48682  1.0000
  H   H793      1.0  0.02956  0.24067  0.72392  1.0000
  S   S144      1.0  0.04497  0.23899  0.77566  1.0000
  C   C991      1.0  0.20752  0.47183  0.71087  1.0000
  H   H794      1.0  0.16668  0.24649  0.93152  1.0000
  H   H795      1.0  0.21596  0.24833  0.86812  1.0000
  H   H796      1.0  0.20177  0.27414  0.87756  1.0000
  H   H797      1.0  0.23451  0.28269  0.75708  1.0000
  C   C992      1.0  0.23166  0.23474  0.72174  1.0000
  H   H798      1.0  0.18808  0.30196  0.96509  1.0000
  Fe  Fe75      1.0  0.18698  0.32810  0.48797  1.0000
  C   C993      1.0  0.18088  0.23310  0.58401  1.0000
  H   H799      1.0  0.19204  0.31873  0.90259  1.0000
  H   H800      1.0  0.18398  0.29299  0.89804  1.0000
  H   H801      1.0  0.15425  0.29840  0.89847  1.0000
  H   H802      1.0  0.14298  0.31743  0.87490  1.0000
  H   H803      1.0  0.16164  0.33126  0.85078  1.0000
  H   H804      1.0  0.18197  0.26199  0.90572  1.0000
  C   C994      1.0  0.17573  0.24435  0.82667  1.0000
  C   C995      1.0  0.12610  0.29922  0.48009  1.0000
  H   H805      1.0  0.18867  0.27681  0.95662  1.0000
  H   H806      1.0  0.23244  0.26857  0.53305  1.0000
  H   H807      1.0  0.03998  0.30290  0.66864  1.0000
  C   C996      1.0  0.17151  0.33318  0.58437  1.0000
  C   C997      1.0  0.15768  0.34513  0.57991  1.0000
  P   P33       1.0  0.17085  0.32206  0.60549  1.0000
  C   C998      1.0  0.16445  0.30334  0.60711  1.0000
  C   C999      1.0  0.19058  0.31849  0.61079  1.0000
  C   C1000     1.0  0.20091  0.32981  0.60308  1.0000
  H   H808      1.0  0.14506  0.31713  0.48889  1.0000
  C   C1001     1.0  0.19506  0.30529  0.62370  1.0000
  C   C1002     1.0  0.17618  0.28852  0.60543  1.0000
  C   C1003     1.0  0.17093  0.27414  0.60671  1.0000
  C   C1004     1.0  0.15411  0.27449  0.60952  1.0000
  C   C1005     1.0  0.14245  0.28938  0.61032  1.0000
  C   C1006     1.0  0.14759  0.30380  0.60902  1.0000
  C   C1007     1.0  0.15647  0.33413  0.61962  1.0000
  C   C1008     1.0  0.15551  0.35124  0.61656  1.0000
  C   C1009     1.0  0.14423  0.36069  0.62736  1.0000
  C   C1010     1.0  0.13411  0.35307  0.64145  1.0000
  C   C1011     1.0  0.13550  0.33594  0.64496  1.0000
  C   C1012     1.0  0.14675  0.32646  0.63417  1.0000
  H   H809      1.0  0.14649  0.34803  0.58911  1.0000
  H   H810      1.0  0.19747  0.34049  0.59353  1.0000
  H   H811      1.0  0.08720  0.34910  0.74669  1.0000
  H   H812      1.0  0.18693  0.29683  0.63027  1.0000
  H   H813      1.0  0.18930  0.28808  0.60301  1.0000
  H   H814      1.0  0.17977  0.26268  0.60539  1.0000
  H   H815      1.0  0.15016  0.26327  0.61075  1.0000
  H   H816      1.0  0.13839  0.31526  0.60959  1.0000
  H   H817      1.0  0.16361  0.35727  0.60595  1.0000
  H   H818      1.0  0.14380  0.37384  0.62508  1.0000
  H   H819      1.0  0.12572  0.36033  0.65002  1.0000
  H   H820      1.0  0.12824  0.32994  0.65632  1.0000
  H   H821      1.0  0.14798  0.31314  0.63735  1.0000
  H   H822      1.0  0.22091  0.41675  0.69481  1.0000
  H   H823      1.0  0.19272  0.26606  0.49739  1.0000
  C   C1013     1.0  0.22686  0.25525  0.57963  1.0000
  H   H824      1.0  0.16207  0.31109  0.73522  1.0000
  H   H825      1.0  0.06523  0.30181  0.70217  1.0000
  C   C1014     1.0  0.22939  0.24443  0.73309  1.0000
  C   C1015     1.0  0.17658  0.36713  0.72249  1.0000
  H   H826      1.0  0.22119  0.35069  0.72304  1.0000
  P   P34       1.0  0.06125  0.24873  0.70325  1.0000
  C   C1016     1.0  0.20990  0.25081  0.62450  1.0000
  H   H827      1.0  0.22086  0.43326  0.71410  1.0000
  H   H828      1.0  0.17484  0.40201  0.65266  1.0000
  Fe  Fe76      1.0  0.20363  0.34075  0.50836  1.0000
  H   H829      1.0  0.16623  0.25111  0.76311  1.0000
  H   H830      1.0  0.18974  0.47937  0.58922  1.0000
  C   C1017     1.0  0.04686  0.25612  0.72077  1.0000
  H   H831      1.0  0.05916  0.32010  0.78821  1.0000
  H   H832      1.0  0.01358  0.24983  0.67619  1.0000
  H   H833      1.0  0.14338  0.25693  0.48509  1.0000
  H   H834      1.0  0.17065  0.23818  0.47855  1.0000
  C   C1018     1.0  0.19244  0.39796  0.69059  1.0000
  C   C1019     1.0  0.09495  0.24933  0.69042  1.0000
  S   S145      1.0  0.11870  0.24043  0.90620  1.0000
  H   H835      1.0  0.04262  0.23695  0.68643  1.0000
  H   H836      1.0  0.23147  0.31308  0.62458  1.0000
  C   C1020     1.0  0.21568  0.32769  0.60794  1.0000
  C   C1021     1.0  0.22878  0.34819  0.85497  1.0000
  H   H837      1.0  0.20119  0.26247  0.64533  1.0000
  S   S146      1.0  0.22999  0.43454  0.58634  1.0000
  C   C1022     1.0  0.22376  0.24301  0.61412  1.0000
  H   H838      1.0  0.12060  0.25071  0.68073  1.0000
  C   C1023     1.0  0.19932  0.24800  0.94571  1.0000
  S   S147      1.0  0.12936  0.24376  0.61080  1.0000
  H   H839      1.0  0.22913  0.25867  0.65008  1.0000
  S   S148      1.0  0.09722  0.26804  0.86845  1.0000
  C   C1024     1.0  0.19378  0.33951  0.72287  1.0000
  C   C1025     1.0  0.20207  0.23369  0.59734  1.0000
  H   H840      1.0  0.18771  0.37433  0.66706  1.0000
  S   S149      1.0  0.21499  0.34333  0.79157  1.0000
  H   H841      1.0  0.14417  0.29041  0.74443  1.0000
  H   H842      1.0  0.11620  0.29841  0.73886  1.0000
  C   C1026     1.0  0.23170  0.44773  0.59796  1.0000
  C   C1027     1.0  0.19780  0.33857  0.68489  1.0000
  H   H843      1.0  0.19734  0.23956  0.85594  1.0000
  H   H844      1.0  0.15595  0.36948  0.74333  1.0000
  C   C1028     1.0  0.20260  0.32528  0.67703  1.0000
  C   C1029     1.0  0.03236  0.24999  0.72831  1.0000
  C   C1030     1.0  0.18451  0.24413  0.94564  1.0000
  H   H845      1.0  0.10883  0.37316  0.67294  1.0000
  C   C1031     1.0  0.05315  0.28477  0.65400  1.0000
  H   H846      1.0  0.22678  0.25777  0.72907  1.0000
  P   P35       1.0  0.21199  0.30507  0.87364  1.0000
  C   C1032     1.0  0.13788  0.32139  0.52834  1.0000
  Fe  Fe77      1.0  0.22694  0.40820  0.59877  1.0000
  Fe  Fe78      1.0  0.11845  0.25885  0.88197  1.0000
  H   H847      1.0  0.04187  0.28240  0.74582  1.0000
  H   H848      1.0  0.20330  0.27079  0.53272  1.0000
  H   H849      1.0  0.08060  0.30217  0.74376  1.0000
  H   H850      1.0  0.23642  0.46732  0.57657  1.0000
  C   C1033     1.0  0.04880  0.27921  0.68381  1.0000
  C   C1034     1.0  0.21196  0.25891  0.53285  1.0000
  C   C1035     1.0  0.18685  0.25808  0.91683  1.0000
  C   C1036     1.0  0.11103  0.24841  0.69174  1.0000
  H   H851      1.0  0.22507  0.26150  0.49636  1.0000
  H   H852      1.0  0.22206  0.31166  0.66097  1.0000
  H   H853      1.0  0.11368  0.24078  0.54243  1.0000
  C   C1037     1.0  0.08631  0.24283  0.72026  1.0000
  H   H854      1.0  0.19752  0.25266  0.62277  1.0000
  C   C1038     1.0  0.19454  0.26323  0.81775  1.0000
  H   H855      1.0  0.17363  0.38018  0.71686  1.0000
  C   C1039     1.0  0.22702  0.34625  0.53755  1.0000
  H   H856      1.0  0.20812  0.26902  0.90570  1.0000
  H   H857      1.0  0.08994  0.28751  0.68438  1.0000
  C   C1040     1.0  0.13961  0.26746  0.82991  1.0000
  H   H858      1.0  0.10483  0.23217  0.87248  1.0000
  H   H859      1.0  0.11777  0.29130  0.68291  1.0000
  H   H860      1.0  0.17288  0.35610  0.53850  1.0000
  H   H861      1.0  0.07645  0.27487  0.84524  1.0000
  C   C1041     1.0  0.23110  0.35784  0.55863  1.0000
  P   P36       1.0  0.20372  0.36374  0.69558  1.0000
  H   H862      1.0  0.11489  0.34502  0.69033  1.0000
  C   C1042     1.0  0.19339  0.38362  0.68526  1.0000
  H   H863      1.0  0.18537  0.34104  0.69239  1.0000
  C   C1043     1.0  0.20911  0.34823  0.68339  1.0000
  C   C1044     1.0  0.10709  0.29730  0.69094  1.0000
  C   C1045     1.0  0.09135  0.29522  0.69171  1.0000
  C   C1046     1.0  0.07746  0.30326  0.70173  1.0000
  C   C1047     1.0  0.07933  0.31328  0.71107  1.0000
  C   C1048     1.0  0.09519  0.31495  0.71083  1.0000
  C   C1049     1.0  0.10904  0.30719  0.70040  1.0000
  P   P37       1.0  0.09739  0.32871  0.72214  1.0000
  C   C1050     1.0  0.08433  0.32642  0.74268  1.0000
  C   C1051     1.0  0.11805  0.32341  0.72587  1.0000
  C   C1052     1.0  0.12393  0.30741  0.73458  1.0000
  C   C1053     1.0  0.13972  0.30295  0.73799  1.0000
  C   C1054     1.0  0.14970  0.31457  0.73293  1.0000
  C   C1055     1.0  0.14380  0.33068  0.72462  1.0000
  C   C1056     1.0  0.12796  0.33517  0.72125  1.0000
  C   C1057     1.0  0.07811  0.31201  0.75021  1.0000
  C   C1058     1.0  0.06895  0.30985  0.76651  1.0000
  C   C1059     1.0  0.06612  0.32193  0.77552  1.0000
  C   C1060     1.0  0.07260  0.33613  0.76827  1.0000
  C   C1061     1.0  0.08181  0.33830  0.75197  1.0000
  C   C1062     1.0  0.09269  0.34925  0.70944  1.0000
  C   C1063     1.0  0.10360  0.35375  0.69433  1.0000
  C   C1064     1.0  0.10015  0.36963  0.68437  1.0000
  C   C1065     1.0  0.08552  0.38093  0.68916  1.0000
  C   C1066     1.0  0.07429  0.37632  0.70387  1.0000
  C   C1067     1.0  0.07779  0.36050  0.71394  1.0000
  H   H864      1.0  0.21221  0.27701  0.78089  1.0000
  C   C1068     1.0  0.00643  0.24068  0.67796  1.0000
  H   H865      1.0  0.07695  0.24075  0.73154  1.0000
  C   C1069     1.0  0.02143  0.25552  0.74202  1.0000
  C   C1070     1.0  0.22931  0.42508  0.69123  1.0000
  C   C1071     1.0  0.22839  0.25768  0.53316  1.0000
  H   H866      1.0  0.22779  0.38360  0.67494  1.0000
  C   C1072     1.0  0.20154  0.26205  0.91682  1.0000
  C   C1073     1.0  0.22955  0.23783  0.79726  1.0000
  C   C1074     1.0  0.23506  0.34500  0.55013  1.0000
  C   C1075     1.0  0.99132  0.24112  0.68950  1.0000
  C   C1076     1.0  0.22770  0.35923  0.71359  1.0000
  C   C1077     1.0  0.22771  0.25434  0.64001  1.0000
  H   H867      1.0  0.23321  0.28884  0.80992  1.0000
  P   P38       1.0  0.22621  0.24957  0.76438  1.0000
  C   C1078     1.0  0.23483  0.28442  0.55792  1.0000
  H   H868      1.0  0.17747  0.23745  0.95664  1.0000
  H   H869      1.0  0.09251  0.25233  0.67819  1.0000
  C   C1079     1.0  0.22043  0.29792  0.92592  1.0000
  C   C1080     1.0  0.22252  0.25817  0.86536  1.0000
  C   C1081     1.0  0.08271  0.23417  0.84430  1.0000
  H   H870      1.0  0.22234  0.29606  0.93826  1.0000
  C   C1082     1.0  0.16391  0.23191  0.80360  1.0000
  C   C1083     1.0  0.23264  0.29022  0.91425  1.0000
  C   C1084     1.0  0.23014  0.29249  0.89837  1.0000
  H   H871      1.0  0.21892  0.33459  0.87892  1.0000
  C   C1085     1.0  0.22473  0.32317  0.84257  1.0000
  C   C1086     1.0  0.22039  0.32221  0.85970  1.0000
  H   H872      1.0  0.22314  0.31368  0.83745  1.0000
  C   C1087     1.0  0.22236  0.33489  0.86582  1.0000
  C   C1088     1.0  0.23116  0.33647  0.83180  1.0000
  H   H873      1.0  0.23031  0.35793  0.85974  1.0000
  H   H874      1.0  0.23464  0.33704  0.81862  1.0000
  C   C1089     1.0  0.23322  0.34895  0.83798  1.0000
  H   H875      1.0  0.23825  0.35920  0.82954  1.0000
  C   C1090     1.0  0.20026  0.48092  0.74120  1.0000
  H   H876      1.0  0.21327  0.23151  0.89893  1.0000
  C   C1091     1.0  0.14868  0.50166  0.25247  1.0000
  C   C1092     1.0  0.22675  0.51977  0.38164  1.0000
  S   S150      1.0  0.18988  0.53800  0.30814  1.0000
  H   H877      1.0  0.15606  0.72991  0.20587  1.0000
  H   H878      1.0  0.15801  0.67596  0.28557  1.0000
  H   H879      1.0  0.14008  0.66675  0.27339  1.0000
  H   H880      1.0  0.14666  0.63760  0.27036  1.0000
  H   H881      1.0  0.22376  0.71364  0.02094  1.0000
  H   H882      1.0  0.19399  0.61949  0.10321  1.0000
  Fe  Fe79      1.0  0.21376  0.62457  0.40155  1.0000
  H   H883      1.0  0.22076  0.58928  0.29121  1.0000
  Fe  Fe80      1.0  0.20164  0.64021  0.36946  1.0000
  Fe  Fe81      1.0  0.17280  0.71576  0.01097  1.0000
  S   S151      1.0  0.18054  0.64884  0.35634  1.0000
  P   P39       1.0  0.18514  0.61032  0.07686  1.0000
  C   C1093     1.0  0.06306  0.68287  0.26521  1.0000
  H   H884      1.0  0.14207  0.51406  0.25396  1.0000
  S   S152      1.0  0.19571  0.49026  0.31118  1.0000
  S   S153      1.0  0.20532  0.61429  0.38481  1.0000
  S   S154      1.0  0.20737  0.65092  0.38759  1.0000
  H   H885      1.0  0.23025  0.68825  0.38509  1.0000
  Fe  Fe82      1.0  0.12909  0.62854  0.23232  1.0000
  S   S155      1.0  0.15171  0.62414  0.21213  1.0000
  S   S156      1.0  0.12901  0.61442  0.25866  1.0000
  Fe  Fe83      1.0  0.10927  0.65415  0.20858  1.0000
  S   S157      1.0  0.13045  0.65203  0.18677  1.0000
  S   S158      1.0  0.08562  0.67227  0.20416  1.0000
  Fe  Fe84      1.0  0.13376  0.62478  0.19743  1.0000
  S   S159      1.0  0.13934  0.60623  0.18183  1.0000
  Fe  Fe85      1.0  0.14600  0.65178  0.20370  1.0000
  S   S160      1.0  0.16497  0.66746  0.19445  1.0000
  S   S161      1.0  0.11146  0.62676  0.21824  1.0000
  S   S162      1.0  0.12452  0.65634  0.22485  1.0000
  H   H886      1.0  0.08151  0.67317  0.24547  1.0000
  C   C1094     1.0  0.11116  0.72650  0.09698  1.0000
  S   S163      1.0  0.20746  0.70007  0.27053  1.0000
  S   S164      1.0  0.17240  0.71682  0.30439  1.0000
  Fe  Fe86      1.0  0.19660  0.69510  0.25208  1.0000
  S   S165      1.0  0.19980  0.66944  0.24864  1.0000
  H   H887      1.0  0.19841  0.64077  0.20996  1.0000
  Fe  Fe87      1.0  0.01841  0.71328  0.12134  1.0000
  H   H888      1.0  0.17656  0.52018  0.35881  1.0000
  Fe  Fe88      1.0  0.05392  0.69885  0.12615  1.0000
  C   C1095     1.0  0.21647  0.52103  0.19144  1.0000
  S   S166      1.0  0.07290  0.67606  0.13418  1.0000
  C   C1096     1.0  0.22953  0.58873  0.26544  1.0000
  S   S167      1.0  0.20440  0.71610  0.23199  1.0000
  C   C1097     1.0  0.19556  0.59708  0.20315  1.0000
  S   S168      1.0  0.03012  0.70790  0.14305  1.0000
  S   S169      1.0  0.04200  0.70218  0.10495  1.0000
  H   H889      1.0  0.20974  0.71233  0.44778  1.0000
  H   H890      1.0  0.21586  0.68729  0.36296  1.0000
  C   C1098     1.0  0.19206  0.56893  0.21610  1.0000
  H   H891      1.0  0.19589  0.62254  0.46302  1.0000
  H   H892      1.0  0.21439  0.60459  0.20953  1.0000
  H   H893      1.0  0.14762  0.72307  0.12815  1.0000
  H   H894      1.0  0.17274  0.59986  0.35129  1.0000
  C   C1099     1.0  0.22603  0.69539  0.43322  1.0000
  S   S170      1.0  0.16001  0.70805  0.99590  1.0000
  H   H895      1.0  0.14444  0.68443  0.17243  1.0000
  H   H896      1.0  0.18072  0.49658  0.34578  1.0000
  C   C1100     1.0  0.23778  0.48430  0.38844  1.0000
  C   C1101     1.0  0.20750  0.69225  0.09636  1.0000
  H   H897      1.0  0.21109  0.52470  0.21605  1.0000
  H   H898      1.0  0.21492  0.58385  0.12070  1.0000
  C   C1102     1.0  0.23043  0.62602  0.31593  1.0000
  S   S171      1.0  0.22420  0.55198  0.29642  1.0000
  C   C1103     1.0  0.17808  0.57746  0.05433  1.0000
  C   C1104     1.0  0.23435  0.59104  0.07758  1.0000
  S   S172      1.0  0.20563  0.61785  0.42945  1.0000
  C   C1105     1.0  0.16547  0.68206  0.13342  1.0000
  H   H899      1.0  0.19657  0.64103  0.18188  1.0000
  C   C1106     1.0  0.20310  0.69117  0.97595  1.0000
  C   C1107     1.0  0.09871  0.71874  0.03499  1.0000
  H   H900      1.0  0.15824  0.57952  0.23222  1.0000
  C   C1108     1.0  0.07297  0.71801  0.05587  1.0000
  C   C1109     1.0  0.21112  0.62930  0.29877  1.0000
  H   H901      1.0  0.04906  0.69234  0.36635  1.0000
  C   C1110     1.0  0.08169  0.67258  0.18507  1.0000
  C   C1111     1.0  0.06985  0.68559  0.17843  1.0000
  C   C1112     1.0  0.06724  0.68679  0.16279  1.0000
  C   C1113     1.0  0.07608  0.67461  0.15385  1.0000
  C   C1114     1.0  0.08759  0.66122  0.16069  1.0000
  C   C1115     1.0  0.09045  0.66024  0.17624  1.0000
  H   H902      1.0  0.06294  0.69500  0.18521  1.0000
  H   H903      1.0  0.05845  0.69723  0.15763  1.0000
  H   H904      1.0  0.09439  0.65169  0.15389  1.0000
  H   H905      1.0  0.09929  0.64985  0.18141  1.0000
  C   C1116     1.0  0.17226  0.66954  0.21059  1.0000
  C   C1117     1.0  0.18038  0.68230  0.20813  1.0000
  C   C1118     1.0  0.18821  0.68277  0.22016  1.0000
  C   C1119     1.0  0.18823  0.67022  0.23450  1.0000
  C   C1120     1.0  0.17940  0.65794  0.23725  1.0000
  C   C1121     1.0  0.17108  0.65780  0.22549  1.0000
  H   H906      1.0  0.18065  0.69177  0.19686  1.0000
  H   H907      1.0  0.19475  0.69248  0.21804  1.0000
  H   H908      1.0  0.17898  0.64847  0.24840  1.0000
  H   H909      1.0  0.16460  0.64805  0.22756  1.0000
  C   C1122     1.0  0.19345  0.54183  0.20221  1.0000
  H   H910      1.0  0.12663  0.69410  0.19394  1.0000
  C   C1123     1.0  0.18015  0.68361  0.04773  1.0000
  H   H911      1.0  0.20371  0.56286  0.11497  1.0000
  C   C1124     1.0  0.21464  0.67659  0.98014  1.0000
  C   C1125     1.0  0.04751  0.71100  0.25745  1.0000
  H   H912      1.0  0.16761  0.67041  0.07079  1.0000
  H   H913      1.0  0.16907  0.68872  0.04282  1.0000
  C   C1126     1.0  0.20017  0.51179  0.36578  1.0000
  C   C1127     1.0  0.22323  0.70872  0.18165  1.0000
  H   H914      1.0  0.21855  0.67388  0.99169  1.0000
  C   C1128     1.0  0.21269  0.62873  0.43971  1.0000
  H   H915      1.0  0.19326  0.57642  0.15628  1.0000
  C   C1129     1.0  0.16027  0.60426  0.17227  1.0000
  C   C1130     1.0  0.16912  0.58987  0.16665  1.0000
  C   C1131     1.0  0.21414  0.62226  0.06884  1.0000
  P   P40       1.0  0.23203  0.50196  0.37245  1.0000
  S   S173      1.0  0.11445  0.70955  0.02012  1.0000
  H   H916      1.0  0.16276  0.58033  0.16760  1.0000
  C   C1132     1.0  0.22217  0.54217  0.12407  1.0000
  H   H917      1.0  0.21117  0.70134  0.31259  1.0000
  H   H918      1.0  0.12293  0.72304  0.33379  1.0000
  C   C1133     1.0  0.22246  0.70802  0.44176  1.0000
  C   C1134     1.0  0.18098  0.66760  0.34170  1.0000
  C   C1135     1.0  0.17543  0.68258  0.34690  1.0000
  C   C1136     1.0  0.17302  0.69762  0.33532  1.0000
  C   C1137     1.0  0.17635  0.69778  0.31847  1.0000
  C   C1138     1.0  0.18238  0.68282  0.31318  1.0000
  C   C1139     1.0  0.18463  0.66773  0.32481  1.0000
  H   H919      1.0  0.17252  0.68251  0.35993  1.0000
  H   H920      1.0  0.16851  0.70914  0.33944  1.0000
  H   H921      1.0  0.18489  0.68287  0.30019  1.0000
  H   H922      1.0  0.18882  0.65612  0.32081  1.0000
  C   C1140     1.0  0.18047  0.58334  0.26414  1.0000
  C   C1141     1.0  0.16645  0.57914  0.27576  1.0000
  C   C1142     1.0  0.15062  0.58900  0.27438  1.0000
  C   C1143     1.0  0.14885  0.60306  0.26146  1.0000
  C   C1144     1.0  0.16298  0.60774  0.25059  1.0000
  C   C1145     1.0  0.17871  0.59784  0.25183  1.0000
  H   H923      1.0  0.16774  0.56806  0.28542  1.0000
  H   H924      1.0  0.13970  0.58547  0.28298  1.0000
  H   H925      1.0  0.16183  0.61901  0.24121  1.0000
  H   H926      1.0  0.18952  0.60137  0.24307  1.0000
  C   C1146     1.0  0.21372  0.56232  0.34509  1.0000
  H   H927      1.0  0.17783  0.58637  0.19891  1.0000
  C   C1147     1.0  0.20672  0.71539  0.16112  1.0000
  H   H928      1.0  0.17326  0.67300  0.12635  1.0000
  C   C1148     1.0  0.21633  0.58080  0.36057  1.0000
  C   C1149     1.0  0.20705  0.57137  0.35751  1.0000
  S   S174      1.0  0.22462  0.51384  0.31748  1.0000
  H   H929      1.0  0.21113  0.58736  0.37044  1.0000
  H   H930      1.0  0.19473  0.57088  0.36498  1.0000
  C   C1150     1.0  0.18777  0.51053  0.35892  1.0000
  C   C1151     1.0  0.22838  0.59702  0.24930  1.0000
  S   S175      1.0  0.19156  0.65498  0.09064  1.0000
  C   C1152     1.0  0.23111  0.62067  0.06719  1.0000
  H   H931      1.0  0.22077  0.57116  0.18771  1.0000
  C   C1153     1.0  0.17582  0.59792  0.33882  1.0000
  C   C1154     1.0  0.18625  0.58766  0.16033  1.0000
  C   C1155     1.0  0.09430  0.68252  0.08481  1.0000
  C   C1156     1.0  0.10194  0.67971  0.06901  1.0000
  C   C1157     1.0  0.11613  0.68577  0.06022  1.0000
  C   C1158     1.0  0.12280  0.69453  0.06722  1.0000
  C   C1159     1.0  0.11527  0.69720  0.08317  1.0000
  C   C1160     1.0  0.10095  0.69119  0.09189  1.0000
  P   P41       1.0  0.12432  0.70690  0.09335  1.0000
  C   C1161     1.0  0.14362  0.71213  0.08090  1.0000
  H   H932      1.0  0.99418  0.72164  0.09374  1.0000
  C   C1162     1.0  0.19013  0.49729  0.35155  1.0000
  C   C1163     1.0  0.23770  0.55851  0.16937  1.0000
  C   C1164     1.0  0.16257  0.49397  0.19952  1.0000
  C   C1165     1.0  0.18064  0.59168  0.05720  1.0000
  C   C1166     1.0  0.20872  0.53514  0.40214  1.0000
  C   C1167     1.0  0.15900  0.70230  0.08371  1.0000
  C   C1168     1.0  0.17365  0.70720  0.07454  1.0000
  H   H933      1.0  0.23737  0.57648  0.26760  1.0000
  C   C1169     1.0  0.22419  0.64173  0.20306  1.0000
  C   C1170     1.0  0.23363  0.56733  0.18181  1.0000
  C   C1171     1.0  0.12675  0.69177  0.11228  1.0000
  C   C1172     1.0  0.13632  0.67569  0.11167  1.0000
  C   C1173     1.0  0.13711  0.66349  0.12619  1.0000
  C   C1174     1.0  0.12793  0.66708  0.14136  1.0000
  C   C1175     1.0  0.11802  0.68289  0.14205  1.0000
  C   C1176     1.0  0.11728  0.69511  0.12753  1.0000
  H   H934      1.0  0.08318  0.67803  0.09165  1.0000
  H   H935      1.0  0.09663  0.67322  0.06340  1.0000
  H   H936      1.0  0.12175  0.68397  0.04779  1.0000
  H   H937      1.0  0.13375  0.69917  0.06017  1.0000
  H   H938      1.0  0.09497  0.69307  0.10427  1.0000
  C   C1177     1.0  0.17319  0.72188  0.06254  1.0000
  H   H939      1.0  0.23029  0.71217  0.18826  1.0000
  H   H940      1.0  0.20109  0.68438  0.12285  1.0000
  H   H941      1.0  0.09266  0.70943  0.31027  1.0000
  C   C1178     1.0  0.05657  0.71196  0.24109  1.0000
  H   H942      1.0  0.15994  0.69079  0.09281  1.0000
  H   H943      1.0  0.18542  0.69926  0.07633  1.0000
  H   H944      1.0  0.23494  0.71178  0.04492  1.0000
  C   C1179     1.0  0.20832  0.64100  0.18425  1.0000
  H   H945      1.0  0.22627  0.68355  0.19591  1.0000
  H   H946      1.0  0.14282  0.67242  0.09994  1.0000
  H   H947      1.0  0.14453  0.65115  0.12562  1.0000
  H   H948      1.0  0.12812  0.65747  0.15254  1.0000
  H   H949      1.0  0.11040  0.68547  0.15377  1.0000
  H   H950      1.0  0.10867  0.70681  0.12814  1.0000
  C   C1180     1.0  0.20502  0.69896  0.16520  1.0000
  C   C1181     1.0  0.17669  0.56349  0.06718  1.0000
  H   H951      1.0  0.21962  0.66583  0.06599  1.0000
  H   H952      1.0  0.14625  0.49158  0.27866  1.0000
  H   H953      1.0  0.19815  0.69971  0.98419  1.0000
  C   C1182     1.0  0.14674  0.51988  0.17731  1.0000
  H   H954      1.0  0.22784  0.55545  0.16610  1.0000
  H   H955      1.0  0.14773  0.70612  0.22733  1.0000
  S   S176      1.0  0.20630  0.64532  0.13027  1.0000
  C   C1183     1.0  0.18635  0.63283  0.04630  1.0000
  C   C1184     1.0  0.21727  0.71813  0.10206  1.0000
  H   H956      1.0  0.13042  0.50380  0.18022  1.0000
  H   H957      1.0  0.19825  0.52255  0.37076  1.0000
  H   H958      1.0  0.14055  0.52990  0.16881  1.0000
  C   C1185     1.0  0.16395  0.65603  0.03958  1.0000
  S   S177      1.0  0.22023  0.52408  0.27885  1.0000
  Fe  Fe89      1.0  0.20966  0.53933  0.31977  1.0000
  C   C1186     1.0  0.18818  0.60616  0.30968  1.0000
  C   C1187     1.0  0.17990  0.64662  0.03500  1.0000
  C   C1188     1.0  0.14103  0.50517  0.18375  1.0000
  H   H959      1.0  0.19777  0.53665  0.41199  1.0000
  H   H960      1.0  0.14560  0.72803  0.28541  1.0000
  C   C1189     1.0  0.17936  0.67320  0.06355  1.0000
  C   C1190     1.0  0.22005  0.59596  0.27871  1.0000
  C   C1191     1.0  0.21519  0.64450  0.28983  1.0000
  Fe  Fe90      1.0  0.21222  0.72287  0.25142  1.0000
  C   C1192     1.0  0.23478  0.56582  0.13039  1.0000
  H   H961      1.0  0.18462  0.72528  0.05516  1.0000
  C   C1193     1.0  0.21394  0.69255  0.33783  1.0000
  C   C1194     1.0  0.18758  0.58424  0.20541  1.0000
  H   H962      1.0  0.17873  0.51045  0.19653  1.0000
  C   C1195     1.0  0.22607  0.65083  0.29451  1.0000
  C   C1196     1.0  0.21294  0.52148  0.39484  1.0000
  C   C1197     1.0  0.21802  0.61268  0.24634  1.0000
  H   H963      1.0  0.22126  0.68354  0.03763  1.0000
  C   C1198     1.0  0.15081  0.65809  0.27732  1.0000
  C   C1199     1.0  0.15451  0.64168  0.27562  1.0000
  H   H964      1.0  0.13299  0.68837  0.22122  1.0000
  P   P42       1.0  0.13252  0.72078  0.16372  1.0000
  H   H965      1.0  0.08472  0.69985  0.04090  1.0000
  C   C1200     1.0  0.16132  0.69873  0.12559  1.0000
  C   C1201     1.0  0.17635  0.58173  0.31976  1.0000
  S   S178      1.0  0.14928  0.72706  0.02703  1.0000
  S   S179      1.0  0.20211  0.54955  0.34273  1.0000
  H   H966      1.0  0.18350  0.49775  0.25817  1.0000
  H   H967      1.0  0.16246  0.66413  0.15653  1.0000
  P   P43       1.0  0.19711  0.62103  0.29274  1.0000
  H   H968      1.0  0.22701  0.51088  0.19332  1.0000
  C   C1202     1.0  0.17702  0.62854  0.06244  1.0000
  C   C1203     1.0  0.08536  0.71116  0.04359  1.0000
  C   C1204     1.0  0.23602  0.53715  0.13120  1.0000
  H   H969      1.0  0.18725  0.59044  0.29433  1.0000
  C   C1205     1.0  0.16865  0.63063  0.28021  1.0000
  C   C1206     1.0  0.21509  0.49981  0.36526  1.0000
  H   H970      1.0  0.21967  0.57858  0.47100  1.0000
  C   C1207     1.0  0.20577  0.62896  0.45643  1.0000
  H   H971      1.0  0.23091  0.71315  0.39618  1.0000
  H   H972      1.0  0.09233  0.72631  0.08479  1.0000
  S   S180      1.0  0.22703  0.61833  0.10747  1.0000
  H   H973      1.0  0.22342  0.72235  0.97565  1.0000
  H   H974      1.0  0.15323  0.50843  0.22609  1.0000
  H   H975      1.0  0.20085  0.72420  0.15164  1.0000
  H   H976      1.0  0.98987  0.67707  0.18763  1.0000
  H   H977      1.0  0.21698  0.61901  0.23388  1.0000
  C   C1208     1.0  0.08339  0.71785  0.17840  1.0000
  C   C1209     1.0  0.21221  0.52646  0.17606  1.0000
  C   C1210     1.0  0.18177  0.59204  0.07300  1.0000
  H   H978      1.0  0.14223  0.65904  0.05915  1.0000
  H   H979      1.0  0.21085  0.67479  0.18070  1.0000
  Fe  Fe91      1.0  0.23020  0.65329  0.12535  1.0000
  H   H980      1.0  0.20528  0.51239  0.39929  1.0000
  C   C1211     1.0  0.21383  0.69703  0.35224  1.0000
  C   C1212     1.0  0.20953  0.68073  0.04488  1.0000
  C   C1213     1.0  0.20827  0.59463  0.21125  1.0000
  Fe  Fe92      1.0  0.21324  0.64496  0.10329  1.0000
  C   C1214     1.0  0.21942  0.61976  0.31138  1.0000
  H   H981      1.0  0.19796  0.69501  0.15895  1.0000
  H   H982      1.0  0.18620  0.61945  0.32835  1.0000
  H   H983      1.0  0.16651  0.57557  0.34596  1.0000
  H   H984      1.0  0.19578  0.54437  0.16153  1.0000
  C   C1215     1.0  0.22523  0.72232  0.04152  1.0000
  C   C1216     1.0  0.22540  0.63706  0.43126  1.0000
  C   C1217     1.0  0.14919  0.68871  0.15946  1.0000
  H   H985      1.0  0.04372  0.69577  0.28207  1.0000
  C   C1218     1.0  0.19432  0.60010  0.15916  1.0000
  C   C1219     1.0  0.18532  0.61487  0.16391  1.0000
  C   C1220     1.0  0.19880  0.53979  0.17360  1.0000
  C   C1221     1.0  0.22239  0.64131  0.17145  1.0000
  S   S181      1.0  0.21569  0.59700  0.15197  1.0000
  C   C1222     1.0  0.21614  0.72033  0.16907  1.0000
  H   H986      1.0  0.18130  0.57787  0.09810  1.0000
  C   C1223     1.0  0.22385  0.64645  0.45589  1.0000
  S   S182      1.0  0.23140  0.65779  0.46523  1.0000
  H   H987      1.0  0.17148  0.61805  0.27850  1.0000
  H   H988      1.0  0.23613  0.52782  0.34283  1.0000
  H   H989      1.0  0.22127  0.72783  0.10459  1.0000
  C   C1224     1.0  0.20715  0.60821  0.07461  1.0000
  H   H990      1.0  0.03282  0.69549  0.20083  1.0000
  C   C1225     1.0  0.17786  0.56371  0.08292  1.0000
  H   H991      1.0  0.05839  0.71878  0.35363  1.0000
  H   H992      1.0  0.16144  0.62812  0.17477  1.0000
  C   C1226     1.0  0.21455  0.55898  0.12027  1.0000
  H   H993      1.0  0.15775  0.54371  0.20595  1.0000
  H   H994      1.0  0.22854  0.66293  0.28799  1.0000
  H   H995      1.0  0.01725  0.71964  0.18353  1.0000
  H   H996      1.0  0.21525  0.70247  0.07064  1.0000
  C   C1227     1.0  0.07212  0.68376  0.24893  1.0000
  C   C1228     1.0  0.16829  0.50878  0.19295  1.0000
  H   H997      1.0  0.20646  0.63450  0.06585  1.0000
  H   H998      1.0  0.23633  0.61878  0.32604  1.0000
  C   C1229     1.0  0.21238  0.68745  0.17747  1.0000
  H   H999      1.0  0.18729  0.65016  0.02272  1.0000
  H   H1000     1.0  0.00128  0.70237  0.17730  1.0000
  C   C1230     1.0  0.15097  0.71035  0.13464  1.0000
  C   C1231     1.0  0.13269  0.70237  0.19633  1.0000
  C   C1232     1.0  0.22114  0.69240  0.18595  1.0000
  H   H1001     1.0  0.15899  0.66682  0.03089  1.0000
  S   S183      1.0  0.20023  0.57025  0.26362  1.0000
  C   C1233     1.0  0.20888  0.62013  0.25950  1.0000
  C   C1234     1.0  0.04140  0.72674  0.21203  1.0000
  C   C1235     1.0  0.20864  0.67066  0.06090  1.0000
  H   H1002     1.0  0.06275  0.71206  0.06251  1.0000
  C   C1236     1.0  0.16038  0.52167  0.18189  1.0000
  C   C1237     1.0  0.21140  0.63773  0.46457  1.0000
  H   H1003     1.0  0.16473  0.53311  0.17695  1.0000
  H   H1004     1.0  0.19182  0.60895  0.19515  1.0000
  C   C1238     1.0  0.20877  0.72598  0.33824  1.0000
  H   H1005     1.0  0.23030  0.72417  0.13525  1.0000
  C   C1239     1.0  0.21878  0.71706  0.08573  1.0000
  C   C1240     1.0  0.20730  0.52882  0.20438  1.0000
  C   C1241     1.0  0.23524  0.71477  0.44265  1.0000
  C   C1242     1.0  0.21290  0.57936  0.22174  1.0000
  H   H1006     1.0  0.10300  0.71308  0.19063  1.0000
  C   C1243     1.0  0.18042  0.57791  0.08583  1.0000
  C   C1244     1.0  0.17494  0.65217  0.28897  1.0000
  P   P44       1.0  0.21074  0.71985  0.37127  1.0000
  C   C1245     1.0  0.20562  0.70366  0.38901  1.0000
  H   H1007     1.0  0.17714  0.57729  0.04213  1.0000
  H   H1008     1.0  0.03789  0.72138  0.26093  1.0000
  C   C1246     1.0  0.13622  0.69905  0.21194  1.0000
  C   C1247     1.0  0.18961  0.70497  0.39915  1.0000
  C   C1248     1.0  0.18604  0.69218  0.41285  1.0000
  C   C1249     1.0  0.19842  0.67809  0.41647  1.0000
  C   C1250     1.0  0.21435  0.67686  0.40642  1.0000
  C   C1251     1.0  0.21788  0.68951  0.39278  1.0000
  H   H1009     1.0  0.23632  0.63162  0.06303  1.0000
  C   C1252     1.0  0.16100  0.63810  0.06691  1.0000
  C   C1253     1.0  0.21740  0.59257  0.07905  1.0000
  H   H1010     1.0  0.23103  0.63662  0.41850  1.0000
  C   C1254     1.0  0.14517  0.70553  0.15181  1.0000
  H   H1011     1.0  0.20829  0.55510  0.23275  1.0000
  C   C1255     1.0  0.15451  0.65170  0.05550  1.0000
  P   P45       1.0  0.18196  0.55228  0.21879  1.0000
  H   H1012     1.0  0.21425  0.49177  0.27711  1.0000
  C   C1256     1.0  0.20929  0.64109  0.20005  1.0000
  C   C1257     1.0  0.19350  0.66695  0.07029  1.0000
  H   H1013     1.0  0.04820  0.69979  0.21866  1.0000
  C   C1258     1.0  0.20575  0.69362  0.11250  1.0000
  H   H1014     1.0  0.21733  0.53300  0.12156  1.0000
  H   H1015     1.0  0.17369  0.69314  0.42064  1.0000
  H   H1016     1.0  0.19573  0.66808  0.42699  1.0000
  C   C1259     1.0  0.02372  0.72152  0.19173  1.0000
  H   H1017     1.0  0.20994  0.70711  0.12787  1.0000
  C   C1260     1.0  0.21739  0.48654  0.35777  1.0000
  H   H1018     1.0  0.17466  0.55250  0.06493  1.0000
  C   C1261     1.0  0.17220  0.58432  0.33581  1.0000
  C   C1262     1.0  0.20942  0.61161  0.27579  1.0000
  C   C1263     1.0  0.16830  0.61686  0.17069  1.0000
  C   C1264     1.0  0.13280  0.71768  0.35532  1.0000
  C   C1265     1.0  0.13731  0.70567  0.36892  1.0000
  C   C1266     1.0  0.13522  0.68954  0.37151  1.0000
  C   C1267     1.0  0.12880  0.68536  0.36040  1.0000
  C   C1268     1.0  0.12488  0.69715  0.34632  1.0000
  C   C1269     1.0  0.12649  0.71349  0.34412  1.0000
  P   P46       1.0  0.11616  0.69170  0.33230  1.0000
  C   C1270     1.0  0.11775  0.70657  0.31281  1.0000
  C   C1271     1.0  0.12720  0.67183  0.32752  1.0000
  C   C1272     1.0  0.12023  0.66389  0.31981  1.0000
  C   C1273     1.0  0.12838  0.64819  0.31669  1.0000
  C   C1274     1.0  0.14360  0.64040  0.32107  1.0000
  C   C1275     1.0  0.15086  0.64849  0.32821  1.0000
  C   C1276     1.0  0.14284  0.66424  0.33116  1.0000
  C   C1277     1.0  0.13282  0.71142  0.30521  1.0000
  C   C1278     1.0  0.14325  0.72694  0.06873  1.0000
  C   C1279     1.0  0.20491  0.48527  0.35102  1.0000
  C   C1280     1.0  0.23777  0.71838  0.38422  1.0000
  C   C1281     1.0  0.10554  0.72587  0.29061  1.0000
  C   C1282     1.0  0.09483  0.69174  0.34269  1.0000
  C   C1283     1.0  0.08958  0.67681  0.35031  1.0000
  C   C1284     1.0  0.07309  0.67706  0.35872  1.0000
  C   C1285     1.0  0.06182  0.69217  0.35980  1.0000
  C   C1286     1.0  0.06707  0.70706  0.35261  1.0000
  C   C1287     1.0  0.08354  0.70685  0.34422  1.0000
  H   H1019     1.0  0.23563  0.59136  0.23909  1.0000
  H   H1020     1.0  0.14247  0.70882  0.37744  1.0000
  H   H1021     1.0  0.13881  0.68018  0.38199  1.0000
  H   H1022     1.0  0.12717  0.67281  0.36269  1.0000
  Fe  Fe93      1.0  0.17933  0.73077  0.24175  1.0000
  H   H1023     1.0  0.10846  0.66980  0.31633  1.0000
  H   H1024     1.0  0.12299  0.64207  0.31075  1.0000
  H   H1025     1.0  0.14994  0.62826  0.31860  1.0000
  H   H1026     1.0  0.16277  0.64266  0.33142  1.0000
  H   H1027     1.0  0.14896  0.67038  0.33629  1.0000
  H   H1028     1.0  0.14351  0.70573  0.31065  1.0000
  H   H1029     1.0  0.21580  0.67959  0.33774  1.0000
  C   C1288     1.0  0.07823  0.72336  0.16347  1.0000
  C   C1289     1.0  0.13404  0.72395  0.29086  1.0000
  C   C1290     1.0  0.14889  0.49226  0.19483  1.0000
  H   H1030     1.0  0.09819  0.66497  0.35000  1.0000
  C   C1291     1.0  0.14457  0.70901  0.21539  1.0000
  H   H1031     1.0  0.22403  0.66605  0.40893  1.0000
  C   C1292     1.0  0.20875  0.72146  0.32391  1.0000
  H   H1032     1.0  0.21235  0.58157  0.08379  1.0000
  C   C1293     1.0  0.03251  0.70800  0.20142  1.0000
  H   H1033     1.0  0.17673  0.55288  0.09288  1.0000
  C   C1294     1.0  0.15937  0.67706  0.15036  1.0000
  H   H1034     1.0  0.20982  0.65157  0.27935  1.0000
  Fe  Fe94      1.0  0.23743  0.52659  0.29278  1.0000
  C   C1295     1.0  0.18429  0.59260  0.30671  1.0000
  C   C1296     1.0  0.17824  0.53452  0.26844  1.0000
  C   C1297     1.0  0.18000  0.51751  0.27036  1.0000
  C   C1298     1.0  0.18239  0.51093  0.25659  1.0000
  C   C1299     1.0  0.18300  0.52138  0.24089  1.0000
  C   C1300     1.0  0.18193  0.53842  0.23879  1.0000
  C   C1301     1.0  0.17906  0.54495  0.25275  1.0000
  S   S184      1.0  0.06106  0.72348  0.11771  1.0000
  C   C1302     1.0  0.04136  0.71055  0.21151  1.0000
  C   C1303     1.0  0.18949  0.54747  0.18662  1.0000
  C   C1304     1.0  0.16040  0.56108  0.21847  1.0000
  C   C1305     1.0  0.15196  0.57439  0.22619  1.0000
  C   C1306     1.0  0.13527  0.58138  0.22610  1.0000
  C   C1307     1.0  0.12685  0.57513  0.21836  1.0000
  C   C1308     1.0  0.13501  0.56154  0.21111  1.0000
  C   C1309     1.0  0.15170  0.55437  0.21135  1.0000
  H   H1035     1.0  0.17613  0.53969  0.27911  1.0000
  H   H1036     1.0  0.17931  0.50947  0.28258  1.0000
  H   H1037     1.0  0.18415  0.51612  0.23052  1.0000
  H   H1038     1.0  0.17733  0.55815  0.25152  1.0000
  H   H1039     1.0  0.18228  0.65640  0.29456  1.0000
  H   H1040     1.0  0.17936  0.55797  0.18451  1.0000
  H   H1041     1.0  0.12894  0.59180  0.23189  1.0000
  H   H1042     1.0  0.11403  0.58095  0.21788  1.0000
  H   H1043     1.0  0.12838  0.55673  0.20519  1.0000
  H   H1044     1.0  0.21732  0.60754  0.31788  1.0000
  C   C1310     1.0  0.06895  0.69826  0.23694  1.0000
  C   C1311     1.0  0.18366  0.60888  0.32579  1.0000
  H   H1045     1.0  0.17359  0.57114  0.31748  1.0000
  C   C1312     1.0  0.21069  0.70652  0.11533  1.0000
  S   S185      1.0  0.23613  0.65486  0.09798  1.0000
  Fe  Fe95      1.0  0.20579  0.54876  0.28439  1.0000
  C   C1313     1.0  0.17444  0.61200  0.09777  1.0000
  C   C1314     1.0  0.15843  0.60883  0.10408  1.0000
  C   C1315     1.0  0.14990  0.61060  0.12006  1.0000
  C   C1316     1.0  0.15729  0.61549  0.12988  1.0000
  C   C1317     1.0  0.17323  0.61855  0.12375  1.0000
  C   C1318     1.0  0.18180  0.61677  0.10779  1.0000
  H   H1046     1.0  0.15240  0.60531  0.09653  1.0000
  H   H1047     1.0  0.13745  0.60840  0.12483  1.0000
  H   H1048     1.0  0.15055  0.61709  0.14218  1.0000
  H   H1049     1.0  0.17890  0.62254  0.13128  1.0000
  H   H1050     1.0  0.20144  0.63251  0.25696  1.0000
  H   H1051     1.0  0.06544  0.72429  0.16326  1.0000
  Fe  Fe96      1.0  0.20611  0.51334  0.30385  1.0000
  C   C1319     1.0  0.13711  0.71604  0.18407  1.0000
  H   H1052     1.0  0.18166  0.60233  0.04707  1.0000
  H   H1053     1.0  0.07600  0.69867  0.22432  1.0000
  C   C1320     1.0  0.20481  0.56660  0.22420  1.0000
  H   H1054     1.0  0.19866  0.62558  0.04247  1.0000
  H   H1055     1.0  0.23740  0.54596  0.21482  1.0000
  C   C1321     1.0  0.17915  0.63586  0.28667  1.0000
  H   H1056     1.0  0.21505  0.55774  0.40201  1.0000
  C   C1322     1.0  0.16096  0.66329  0.28409  1.0000
  C   C1323     1.0  0.23675  0.53150  0.37647  1.0000
  H   H1057     1.0  0.17989  0.71576  0.39653  1.0000
  H   H1058     1.0  0.15346  0.63530  0.07919  1.0000
  C   C1324     1.0  0.14929  0.72241  0.20326  1.0000
  S   S186      1.0  0.99315  0.70658  0.12891  1.0000
  C   C1325     1.0  0.22088  0.57079  0.12340  1.0000
  H   H1059     1.0  0.19157  0.62451  0.16295  1.0000
  C   C1326     1.0  0.21116  0.71382  0.35262  1.0000
  S   S187      1.0  0.19667  0.70009  0.01831  1.0000
  C   C1327     1.0  0.19524  0.68737  0.03833  1.0000
  H   H1060     1.0  0.20400  0.68199  0.09425  1.0000
  H   H1061     1.0  0.21626  0.68980  0.43316  1.0000
  C   C1328     1.0  0.10422  0.71348  0.30512  1.0000
  H   H1062     1.0  0.06909  0.66550  0.36452  1.0000
  H   H1063     1.0  0.22429  0.64247  0.21529  1.0000
  H   H1064     1.0  0.22153  0.64156  0.15913  1.0000
  C   C1329     1.0  0.23105  0.72290  0.37010  1.0000
  C   C1330     1.0  0.23078  0.64606  0.43924  1.0000
  C   C1331     1.0  0.15510  0.49840  0.23664  1.0000
  Fe  Fe97      1.0  0.18229  0.71581  0.27765  1.0000
  C   C1332     1.0  0.11127  0.72119  0.16407  1.0000
  C   C1333     1.0  0.21400  0.70390  0.08299  1.0000
  S   S188      1.0  0.17077  0.70917  0.26063  1.0000
  Fe  Fe98      1.0  0.22205  0.61963  0.13385  1.0000
  C   C1334     1.0  0.21137  0.70476  0.32368  1.0000
  H   H1065     1.0  0.21948  0.52053  0.16599  1.0000
  H   H1066     1.0  0.06550  0.67157  0.27445  1.0000
  H   H1067     1.0  0.08750  0.71849  0.33894  1.0000
  H   H1068     1.0  0.22243  0.57747  0.22840  1.0000
  C   C1335     1.0  0.23260  0.54502  0.38393  1.0000
  C   C1336     1.0  0.23257  0.58085  0.35160  1.0000
  C   C1337     1.0  0.05078  0.69649  0.26947  1.0000
  C   C1338     1.0  0.21902  0.72335  0.02786  1.0000
  S   S189      1.0  0.22738  0.63725  0.35398  1.0000
  C   C1339     1.0  0.09978  0.71682  0.17876  1.0000
  H   H1069     1.0  0.22295  0.52769  0.23909  1.0000
  C   C1340     1.0  0.21848  0.54697  0.39660  1.0000
  C   C1341     1.0  0.23354  0.64168  0.30769  1.0000
  Fe  Fe99      1.0  0.13655  0.72134  0.01051  1.0000
  H   H1070     1.0  0.16620  0.70267  0.11252  1.0000
  H   H1071     1.0  0.07464  0.71447  0.18981  1.0000
  H   H1072     1.0  0.20667  0.73090  0.31294  1.0000
  C   C1342     1.0  0.22972  0.56292  0.33556  1.0000
  C   C1343     1.0  0.20828  0.48140  0.28094  1.0000
  H   H1073     1.0  0.08548  0.72321  0.23272  1.0000
  C   C1344     1.0  0.23749  0.64148  0.17446  1.0000
  Fe  Fe100     1.0  0.04722  0.72776  0.09785  1.0000
  C   C1345     1.0  0.21300  0.72833  0.47079  1.0000
  C   C1346     1.0  0.14547  0.72602  0.18776  1.0000
  H   H1074     1.0  0.23496  0.55602  0.32592  1.0000
  H   H1075     1.0  0.23511  0.59753  0.44415  1.0000
  Fe  Fe101     1.0  0.23375  0.64540  0.37351  1.0000
  H   H1076     1.0  0.23357  0.58978  0.41937  1.0000
  C   C1347     1.0  0.15099  0.48901  0.26640  1.0000
  C   C1348     1.0  0.16379  0.48236  0.23466  1.0000
  H   H1077     1.0  0.23702  0.49907  0.24897  1.0000
  C   C1349     1.0  0.08959  0.72757  0.14881  1.0000
  Fe  Fe102     1.0  0.23146  0.61172  0.37006  1.0000
  S   S190      1.0  0.23209  0.67267  0.13708  1.0000
  C   C1350     1.0  0.10599  0.72655  0.14913  1.0000
  C   C1351     1.0  0.23542  0.52302  0.23266  1.0000
  P   P47       1.0  0.05238  0.73042  0.22530  1.0000
  H   H1078     1.0  0.13432  0.73021  0.35336  1.0000
  C   C1352     1.0  0.08583  0.73084  0.22040  1.0000
  H   H1079     1.0  0.11458  0.73008  0.13772  1.0000
  P   P48       1.0  0.23062  0.73101  0.45386  1.0000
  C   C1353     1.0  0.12036  0.73129  0.28366  1.0000
  C   C1354     1.0  0.00030  0.64931  0.73093  1.0000
  C   C1355     1.0  0.18805  0.48526  0.73203  1.0000
  C   C1356     1.0  0.19682  0.50445  0.60952  1.0000
  S   S191      1.0  0.20543  0.65442  0.51234  1.0000
  H   H1080     1.0  0.14533  0.56399  0.61697  1.0000
  H   H1081     1.0  0.18230  0.48433  0.70962  1.0000
  H   H1082     1.0  0.20594  0.63801  0.47741  1.0000
  Fe  Fe103     1.0  0.21611  0.66978  0.52212  1.0000
  S   S192      1.0  0.20343  0.69357  0.53025  1.0000
  H   H1083     1.0  0.14692  0.70246  0.73690  1.0000
  C   C1357     1.0  0.23184  0.59935  0.49231  1.0000
  C   C1358     1.0  0.23705  0.65161  0.60174  1.0000
  C   C1359     1.0  0.22085  0.66551  0.96957  1.0000
  H   H1084     1.0  0.01719  0.64950  0.81169  1.0000
  S   S193      1.0  0.21660  0.56462  0.63076  1.0000
  H   H1085     1.0  0.20990  0.72597  0.83890  1.0000
  C   C1360     1.0  0.14136  0.72520  0.71911  1.0000
  H   H1086     1.0  0.23706  0.67787  0.55791  1.0000
  C   C1361     1.0  0.07905  0.65681  0.71163  1.0000
  Fe  Fe104     1.0  0.06668  0.70013  0.76845  1.0000
  S   S194      1.0  0.06172  0.68223  0.79272  1.0000
  S   S195      1.0  0.08200  0.69285  0.74475  1.0000
  Fe  Fe105     1.0  0.14713  0.72969  0.60998  1.0000
  Fe  Fe106     1.0  0.06821  0.70046  0.80289  1.0000
  S   S196      1.0  0.22899  0.64846  0.53902  1.0000
  C   C1362     1.0  0.20163  0.70702  0.91762  1.0000
  Fe  Fe107     1.0  0.03592  0.69822  0.79550  1.0000
  C   C1363     1.0  0.23674  0.58228  0.69811  1.0000
  S   S197      1.0  0.13821  0.71490  0.86469  1.0000
  H   H1087     1.0  0.02242  0.62244  0.70621  1.0000
  H   H1088     1.0  0.08550  0.72187  0.96193  1.0000
  S   S198      1.0  0.17164  0.72139  0.87099  1.0000
  H   H1089     1.0  0.02077  0.68765  0.77183  1.0000
  Fe  Fe108     1.0  0.16574  0.70685  0.85631  1.0000
  S   S199      1.0  0.17564  0.67926  0.86024  1.0000
  C   C1364     1.0  0.20479  0.64925  0.90964  1.0000
  H   H1090     1.0  0.14666  0.55239  0.57413  1.0000
  C   C1365     1.0  0.22588  0.65691  0.83080  1.0000
  Fe  Fe109     1.0  0.17095  0.62355  0.69945  1.0000
  S   S200      1.0  0.15189  0.60909  0.70215  1.0000
  S   S201      1.0  0.17932  0.64291  0.67776  1.0000
  Fe  Fe110     1.0  0.17930  0.60609  0.73225  1.0000
  S   S202      1.0  0.16140  0.58963  0.73819  1.0000
  S   S203      1.0  0.19653  0.60352  0.74851  1.0000
  Fe  Fe111     1.0  0.17076  0.58722  0.71178  1.0000
  S   S204      1.0  0.17725  0.56244  0.70481  1.0000
  Fe  Fe112     1.0  0.14399  0.61282  0.72826  1.0000
  S   S205      1.0  0.11786  0.61806  0.74341  1.0000
  S   S206      1.0  0.19038  0.60145  0.70687  1.0000
  S   S207      1.0  0.16122  0.62946  0.72450  1.0000
  C   C1366     1.0  0.08809  0.72669  0.93557  1.0000
  C   C1367     1.0  0.23047  0.55194  0.53281  1.0000
  H   H1091     1.0  0.15800  0.54207  0.60105  1.0000
  H   H1092     1.0  0.15446  0.67013  0.84348  1.0000
  H   H1093     1.0  0.21492  0.50825  0.71320  1.0000
  H   H1094     1.0  0.04055  0.67162  0.74449  1.0000
  C   C1368     1.0  0.17449  0.53288  0.54498  1.0000
  H   H1095     1.0  0.20915  0.72210  0.53639  1.0000
  C   C1369     1.0  0.20328  0.62165  0.74629  1.0000
  H   H1096     1.0  0.19128  0.70197  0.62486  1.0000
  C   C1370     1.0  0.20124  0.58066  0.84985  1.0000
  C   C1371     1.0  0.01343  0.63985  0.79283  1.0000
  C   C1372     1.0  0.19989  0.65165  0.73914  1.0000
  C   C1373     1.0  0.19463  0.63741  0.73964  1.0000
  C   C1374     1.0  0.21685  0.54712  0.72642  1.0000
  C   C1375     1.0  0.20173  0.52688  0.72728  1.0000
  C   C1376     1.0  0.18752  0.52065  0.58453  1.0000
  H   H1097     1.0  0.18365  0.63871  0.73536  1.0000
  C   C1377     1.0  0.16177  0.65800  0.67355  1.0000
  C   C1378     1.0  0.14598  0.65641  0.68304  1.0000
  C   C1379     1.0  0.13198  0.66845  0.67925  1.0000
  C   C1380     1.0  0.13385  0.68203  0.66598  1.0000
  C   C1381     1.0  0.14971  0.68390  0.65700  1.0000
  C   C1382     1.0  0.16362  0.67177  0.66066  1.0000
  H   H1098     1.0  0.14451  0.64589  0.69320  1.0000
  H   H1099     1.0  0.11975  0.66714  0.68647  1.0000
  H   H1100     1.0  0.15130  0.69487  0.64753  1.0000
  H   H1101     1.0  0.17581  0.67301  0.65350  1.0000
  C   C1383     1.0  0.19492  0.67115  0.84851  1.0000
  C   C1384     1.0  0.20120  0.67924  0.83238  1.0000
  C   C1385     1.0  0.21664  0.67198  0.82341  1.0000
  C   C1386     1.0  0.19719  0.59030  0.83489  1.0000
  C   C1387     1.0  0.21957  0.64901  0.84693  1.0000
  C   C1388     1.0  0.20405  0.65596  0.85564  1.0000
  C   C1389     1.0  0.23147  0.72213  0.84868  1.0000
  H   H1102     1.0  0.18931  0.57374  0.56641  1.0000
  H   H1103     1.0  0.06101  0.72203  0.64243  1.0000
  H   H1104     1.0  0.19921  0.64968  0.86807  1.0000
  C   C1390     1.0  0.09268  0.67211  0.74505  1.0000
  C   C1391     1.0  0.08823  0.65926  0.75819  1.0000
  C   C1392     1.0  0.09606  0.64273  0.75754  1.0000
  C   C1393     1.0  0.10868  0.63896  0.74398  1.0000
  C   C1394     1.0  0.11341  0.65181  0.73096  1.0000
  C   C1395     1.0  0.10535  0.66836  0.73146  1.0000
  H   H1105     1.0  0.07846  0.66202  0.76864  1.0000
  H   H1106     1.0  0.09229  0.63280  0.76753  1.0000
  H   H1107     1.0  0.12301  0.64899  0.72036  1.0000
  H   H1108     1.0  0.10875  0.67824  0.72118  1.0000
  C   C1396     1.0  0.09440  0.70817  0.82240  1.0000
  C   C1397     1.0  0.10477  0.70385  0.83357  1.0000
  C   C1398     1.0  0.11345  0.71515  0.83428  1.0000
  C   C1399     1.0  0.09051  0.72272  0.69145  1.0000
  H   H1109     1.0  0.22991  0.67887  0.91277  1.0000
  H   H1110     1.0  0.20465  0.69806  0.85266  1.0000
  H   H1111     1.0  0.12154  0.71150  0.84279  1.0000
  H   H1112     1.0  0.19145  0.54748  0.73926  1.0000
  C   C1400     1.0  0.23391  0.72926  0.57895  1.0000
  C   C1401     1.0  0.20625  0.72370  0.88959  1.0000
  C   C1402     1.0  0.05569  0.65068  0.73401  1.0000
  C   C1403     1.0  0.20690  0.71844  0.92282  1.0000
  C   C1404     1.0  0.22135  0.58283  0.56424  1.0000
  C   C1405     1.0  0.20682  0.56339  0.65175  1.0000
  C   C1406     1.0  0.20456  0.54828  0.66250  1.0000
  C   C1407     1.0  0.19570  0.54799  0.67892  1.0000
  C   C1408     1.0  0.18922  0.56276  0.68461  1.0000
  C   C1409     1.0  0.19196  0.57777  0.67398  1.0000
  C   C1410     1.0  0.20071  0.57806  0.65760  1.0000
  H   H1113     1.0  0.20929  0.53690  0.65806  1.0000
  H   H1114     1.0  0.19368  0.53635  0.68715  1.0000
  H   H1115     1.0  0.18693  0.58922  0.67823  1.0000
  H   H1116     1.0  0.20249  0.58976  0.64938  1.0000
  H   H1117     1.0  0.20363  0.61665  0.78595  1.0000
  C   C1411     1.0  0.16175  0.67928  0.55936  1.0000
  C   C1412     1.0  0.15062  0.66473  0.83558  1.0000
  C   C1413     1.0  0.15483  0.56607  0.60582  1.0000
  H   H1118     1.0  0.21513  0.61392  0.50930  1.0000
  C   C1414     1.0  0.06087  0.67850  0.72510  1.0000
  H   H1119     1.0  0.15636  0.66852  0.56283  1.0000
  C   C1415     1.0  0.21494  0.56137  0.53039  1.0000
  Fe  Fe113     1.0  0.22896  0.65328  0.49277  1.0000
  C   C1416     1.0  0.21454  0.65609  0.68899  1.0000
  C   C1417     1.0  0.18396  0.69335  0.54359  1.0000
  C   C1418     1.0  0.17705  0.67939  0.54803  1.0000
  H   H1120     1.0  0.21570  0.69401  0.70407  1.0000
  C   C1419     1.0  0.16042  0.70695  0.56184  1.0000
  C   C1420     1.0  0.17546  0.70724  0.55024  1.0000
  H   H1121     1.0  0.18350  0.66871  0.54276  1.0000
  H   H1122     1.0  0.20550  0.72610  0.87682  1.0000
  C   C1421     1.0  0.20513  0.67168  0.68314  1.0000
  C   C1422     1.0  0.20386  0.68371  0.95051  1.0000
  H   H1123     1.0  0.22699  0.63927  0.89326  1.0000
  C   C1423     1.0  0.01226  0.64821  0.73953  1.0000
  C   C1424     1.0  0.21380  0.65009  0.74528  1.0000
  C   C1425     1.0  0.09255  0.72403  0.81209  1.0000
  C   C1426     1.0  0.14740  0.59169  0.81470  1.0000
  C   C1427     1.0  0.16864  0.54000  0.55891  1.0000
  C   C1428     1.0  0.02784  0.63745  0.73653  1.0000
  C   C1429     1.0  0.04894  0.60161  0.75432  1.0000
  Fe  Fe114     1.0  0.22052  0.63290  0.52739  1.0000
  C   C1430     1.0  0.17961  0.57138  0.57726  1.0000
  Fe  Fe115     1.0  0.12285  0.71029  0.63424  1.0000
  C   C1431     1.0  0.19657  0.70717  0.63172  1.0000
  H   H1124     1.0  0.99577  0.70079  0.72522  1.0000
  H   H1125     1.0  0.22187  0.67639  0.60036  1.0000
  H   H1126     1.0  0.18757  0.52756  0.54117  1.0000
  C   C1432     1.0  0.17406  0.69043  0.93633  1.0000
  C   C1433     1.0  0.16491  0.68756  0.95275  1.0000
  S   S208      1.0  0.23298  0.48350  0.62804  1.0000
  C   C1434     1.0  0.13985  0.69170  0.94318  1.0000
  C   C1435     1.0  0.14886  0.69423  0.92687  1.0000
  C   C1436     1.0  0.16580  0.69386  0.92343  1.0000
  C   C1437     1.0  0.20133  0.70986  0.90085  1.0000
  C   C1438     1.0  0.15160  0.54675  0.56356  1.0000
  H   H1127     1.0  0.19748  0.48455  0.75290  1.0000
  C   C1439     1.0  0.14409  0.71152  0.68070  1.0000
  C   C1440     1.0  0.21168  0.72684  0.63208  1.0000
  C   C1441     1.0  0.21518  0.70157  0.85420  1.0000
  H   H1128     1.0  0.12661  0.69259  0.94574  1.0000
  H   H1129     1.0  0.14260  0.69703  0.91680  1.0000
  H   H1130     1.0  0.17234  0.69608  0.91067  1.0000
  H   H1131     1.0  0.19748  0.70134  0.89630  1.0000
  S   S209      1.0  0.20945  0.61152  0.54379  1.0000
  H   H1132     1.0  0.22453  0.60817  0.75645  1.0000
  C   C1442     1.0  0.19351  0.69784  0.58061  1.0000
  C   C1443     1.0  0.06940  0.64562  0.72176  1.0000
  H   H1133     1.0  0.22607  0.60845  0.69184  1.0000
  C   C1444     1.0  0.05858  0.58551  0.75759  1.0000
  S   S210      1.0  0.04045  0.71518  0.77048  1.0000
  C   C1445     1.0  0.01728  0.70736  0.72764  1.0000
  S   S211      1.0  0.14648  0.70283  0.61623  1.0000
  S   S212      1.0  0.04199  0.71450  0.80832  1.0000
  C   C1446     1.0  0.20060  0.55763  0.54166  1.0000
  Fe  Fe116     1.0  0.04841  0.73032  0.78304  1.0000
  C   C1447     1.0  0.20444  0.61901  0.81007  1.0000
  H   H1134     1.0  0.04429  0.65564  0.79572  1.0000
  H   H1135     1.0  0.09514  0.59483  0.75557  1.0000
  H   H1136     1.0  0.19078  0.65536  0.82319  1.0000
  H   H1137     1.0  0.04368  0.62044  0.72130  1.0000
  C   C1448     1.0  0.19716  0.68127  0.57949  1.0000
  H   H1138     1.0  0.18592  0.66581  0.79481  1.0000
  H   H1139     1.0  0.99905  0.72103  0.78178  1.0000
  H   H1140     1.0  0.05445  0.71471  0.68994  1.0000
  S   S213      1.0  0.11635  0.69652  0.66056  1.0000
  S   S214      1.0  0.08424  0.69331  0.82156  1.0000
  H   H1141     1.0  0.20204  0.72047  0.57345  1.0000
  H   H1142     1.0  0.18864  0.56520  0.53972  1.0000
  C   C1449     1.0  0.20616  0.67199  0.92040  1.0000
  C   C1450     1.0  0.20787  0.72289  0.64934  1.0000
  H   H1143     1.0  0.10621  0.69164  0.84162  1.0000
  H   H1144     1.0  0.17679  0.59514  0.58249  1.0000
  C   C1451     1.0  0.07261  0.61276  0.75202  1.0000
  H   H1145     1.0  0.23080  0.56062  0.58066  1.0000
  H   H1146     1.0  0.05795  0.69113  0.72666  1.0000
  H   H1147     1.0  0.20711  0.71701  0.93554  1.0000
  C   C1452     1.0  0.22573  0.66838  0.70425  1.0000
  H   H1148     1.0  0.99457  0.64082  0.71241  1.0000
  C   C1453     1.0  0.14165  0.67498  0.82390  1.0000
  C   C1454     1.0  0.13661  0.66810  0.81373  1.0000
  C   C1455     1.0  0.14088  0.65087  0.81490  1.0000
  C   C1456     1.0  0.14985  0.64064  0.82673  1.0000
  P   P49       1.0  0.13560  0.64229  0.80062  1.0000
  C   C1457     1.0  0.11364  0.64281  0.80528  1.0000
  C   C1458     1.0  0.14237  0.65356  0.77983  1.0000
  C   C1459     1.0  0.13583  0.65301  0.76685  1.0000
  C   C1460     1.0  0.14257  0.66011  0.75056  1.0000
  C   C1461     1.0  0.15579  0.66783  0.74709  1.0000
  C   C1462     1.0  0.16209  0.66883  0.75994  1.0000
  C   C1463     1.0  0.15549  0.66164  0.77621  1.0000
  C   C1464     1.0  0.10778  0.63281  0.79878  1.0000
  C   C1465     1.0  0.09090  0.63262  0.80283  1.0000
  C   C1466     1.0  0.07974  0.64241  0.81338  1.0000
  C   C1467     1.0  0.08546  0.65231  0.81994  1.0000
  C   C1468     1.0  0.10232  0.65251  0.81595  1.0000
  C   C1469     1.0  0.14638  0.62086  0.80189  1.0000
  C   C1470     1.0  0.13976  0.60839  0.81422  1.0000
  C   C1471     1.0  0.16865  0.59966  0.79092  1.0000
  C   C1472     1.0  0.16105  0.61637  0.79037  1.0000
  H   H1149     1.0  0.13859  0.68829  0.82273  1.0000
  H   H1150     1.0  0.12951  0.67625  0.80485  1.0000
  H   H1151     1.0  0.15333  0.62737  0.82792  1.0000
  H   H1152     1.0  0.12584  0.64680  0.76910  1.0000
  H   H1153     1.0  0.13776  0.65927  0.74059  1.0000
  H   H1154     1.0  0.16130  0.67285  0.73444  1.0000
  H   H1155     1.0  0.17243  0.67473  0.75728  1.0000
  H   H1156     1.0  0.16099  0.66202  0.78587  1.0000
  H   H1157     1.0  0.11623  0.62509  0.79059  1.0000
  H   H1158     1.0  0.08646  0.62496  0.79772  1.0000
  H   H1159     1.0  0.06664  0.64247  0.81636  1.0000
  H   H1160     1.0  0.07679  0.66010  0.82795  1.0000
  H   H1161     1.0  0.10633  0.66034  0.82122  1.0000
  H   H1162     1.0  0.12849  0.61160  0.82327  1.0000
  H   H1163     1.0  0.08271  0.68168  0.70599  1.0000
  H   H1164     1.0  0.16653  0.62564  0.78070  1.0000
  C   C1473     1.0  0.15462  0.64757  0.83707  1.0000
  H   H1165     1.0  0.22178  0.61976  0.56761  1.0000
  H   H1166     1.0  0.16163  0.63969  0.84611  1.0000
  H   H1167     1.0  0.17546  0.72215  0.50768  1.0000
  H   H1168     1.0  0.08444  0.72758  0.80355  1.0000
  C   C1474     1.0  0.18580  0.72396  0.49727  1.0000
  H   H1169     1.0  0.16810  0.52691  0.52524  1.0000
  S   S215      1.0  0.01231  0.68850  0.80664  1.0000
  H   H1170     1.0  0.08275  0.57059  0.76041  1.0000
  C   C1475     1.0  0.00851  0.68517  0.77710  1.0000
  H   H1171     1.0  0.03597  0.60332  0.75437  1.0000
  H   H1172     1.0  0.16748  0.57438  0.80306  1.0000
  C   C1476     1.0  0.01977  0.63671  0.77697  1.0000
  H   H1173     1.0  0.23421  0.63294  0.75462  1.0000
  C   C1477     1.0  0.19500  0.72297  0.68737  1.0000
  H   H1174     1.0  0.21938  0.67529  0.64825  1.0000
  C   C1478     1.0  0.23226  0.67128  0.64908  1.0000
  H   H1175     1.0  0.08962  0.71381  0.93537  1.0000
  C   C1479     1.0  0.21586  0.68389  0.69891  1.0000
  C   C1480     1.0  0.20595  0.68584  0.68773  1.0000
  C   C1481     1.0  0.23037  0.65875  0.90237  1.0000
  P   P50       1.0  0.19302  0.70572  0.68037  1.0000
  C   C1482     1.0  0.17178  0.70323  0.68623  1.0000
  C   C1483     1.0  0.22508  0.65449  0.69931  1.0000
  H   H1176     1.0  0.19679  0.67251  0.67544  1.0000
  C   C1484     1.0  0.00145  0.68494  0.79379  1.0000
  C   C1485     1.0  0.16015  0.71403  0.67736  1.0000
  C   C1486     1.0  0.17220  0.58073  0.86200  1.0000
  C   C1487     1.0  0.13959  0.69799  0.69283  1.0000
  C   C1488     1.0  0.15109  0.68703  0.70163  1.0000
  C   C1489     1.0  0.16706  0.68975  0.69856  1.0000
  C   C1490     1.0  0.19860  0.71075  0.65799  1.0000
  C   C1491     1.0  0.19287  0.70308  0.64897  1.0000
  H   H1177     1.0  0.22370  0.67795  0.86933  1.0000
  S   S216      1.0  0.07514  0.71711  0.77835  1.0000
  H   H1178     1.0  0.23691  0.56690  0.82625  1.0000
  C   C1492     1.0  0.14785  0.68843  0.95611  1.0000
  C   C1493     1.0  0.23001  0.52507  0.71160  1.0000
  H   H1179     1.0  0.00563  0.68155  0.75454  1.0000
  C   C1494     1.0  0.20333  0.59294  0.48813  1.0000
  C   C1495     1.0  0.02231  0.64662  0.79958  1.0000
  C   C1496     1.0  0.20197  0.60296  0.49890  1.0000
  C   C1497     1.0  0.23248  0.59351  0.82321  1.0000
  Fe  Fe117     1.0  0.13052  0.71008  0.59783  1.0000
  H   H1180     1.0  0.12727  0.69576  0.69513  1.0000
  H   H1181     1.0  0.14765  0.67624  0.71059  1.0000
  H   H1182     1.0  0.17578  0.68102  0.70548  1.0000
  H   H1183     1.0  0.18497  0.69442  0.65528  1.0000
  H   H1184     1.0  0.07823  0.62313  0.75017  1.0000
  H   H1185     1.0  0.12085  0.69410  0.73883  1.0000
  H   H1186     1.0  0.14200  0.58211  0.82398  1.0000
  H   H1187     1.0  0.00922  0.65574  0.74855  1.0000
  S   S217      1.0  0.16746  0.72643  0.83283  1.0000
  H   H1188     1.0  0.18762  0.67415  0.58456  1.0000
  H   H1189     1.0  0.12752  0.55155  0.55811  1.0000
  C   C1498     1.0  0.99987  0.68173  0.76729  1.0000
  H   H1190     1.0  0.19449  0.53074  0.60134  1.0000
  H   H1191     1.0  0.07287  0.63297  0.72019  1.0000
  C   C1499     1.0  0.15357  0.69297  0.56648  1.0000
  P   P51       1.0  0.04349  0.63611  0.74737  1.0000
  H   H1192     1.0  0.05310  0.57494  0.75993  1.0000
  H   H1193     1.0  0.21391  0.57700  0.85131  1.0000
  C   C1500     1.0  0.22769  0.60750  0.61268  1.0000
  H   H1194     1.0  0.21573  0.66126  0.57057  1.0000
  H   H1195     1.0  0.19196  0.56846  0.87486  1.0000
  C   C1501     1.0  0.22585  0.69033  0.86378  1.0000
  C   C1502     1.0  0.07525  0.58304  0.75793  1.0000
  H   H1196     1.0  0.15417  0.59074  0.60747  1.0000
  P   P52       1.0  0.21286  0.59730  0.81745  1.0000
  C   C1503     1.0  0.22332  0.61656  0.58021  1.0000
  C   C1504     1.0  0.16204  0.55369  0.59677  1.0000
  H   H1197     1.0  0.19027  0.52258  0.73102  1.0000
  H   H1198     1.0  0.22157  0.67818  0.81097  1.0000
  H   H1199     1.0  0.01282  0.63119  0.77210  1.0000
  H   H1200     1.0  0.17972  0.59631  0.78173  1.0000
  H   H1201     1.0  0.18125  0.70346  0.58682  1.0000
  H   H1202     1.0  0.21679  0.55837  0.72977  1.0000
  H   H1203     1.0  0.16256  0.57708  0.87249  1.0000
  C   C1505     1.0  0.03153  0.62837  0.72424  1.0000
  H   H1204     1.0  0.15520  0.59435  0.84623  1.0000
  H   H1205     1.0  0.21338  0.64523  0.68575  1.0000
  H   H1206     1.0  0.20844  0.66049  0.63321  1.0000
  C   C1506     1.0  0.19301  0.51971  0.59869  1.0000
  C   C1507     1.0  0.21291  0.67411  0.57138  1.0000
  H   H1207     1.0  0.16930  0.72381  0.74280  1.0000
  H   H1208     1.0  0.22799  0.64722  0.59857  1.0000
  H   H1209     1.0  0.21184  0.72978  0.65564  1.0000
  S   S218      1.0  0.10660  0.71514  0.61642  1.0000
  C   C1508     1.0  0.18878  0.57585  0.86332  1.0000
  H   H1210     1.0  0.20168  0.60615  0.59001  1.0000
  C   C1509     1.0  0.01175  0.72735  0.74452  1.0000
  C   C1510     1.0  0.21556  0.51889  0.71717  1.0000
  H   H1211     1.0  0.19772  0.64112  0.90854  1.0000
  C   C1511     1.0  0.08223  0.59667  0.75521  1.0000
  H   H1212     1.0  0.18820  0.70565  0.95862  1.0000
  C   C1512     1.0  0.20608  0.57677  0.80109  1.0000
  C   C1513     1.0  0.19728  0.66096  0.91944  1.0000
  C   C1514     1.0  0.21701  0.58604  0.80144  1.0000
  C   C1515     1.0  0.05600  0.61535  0.75117  1.0000
  H   H1213     1.0  0.13806  0.53886  0.53364  1.0000
  C   C1516     1.0  0.22093  0.70062  0.56403  1.0000
  C   C1517     1.0  0.20933  0.56875  0.78811  1.0000
  C   C1518     1.0  0.16806  0.59044  0.84720  1.0000
  S   S219      1.0  0.23836  0.67062  0.50128  1.0000
  C   C1519     1.0  0.11578  0.66812  0.61813  1.0000
  C   C1520     1.0  0.10949  0.67037  0.63427  1.0000
  C   C1521     1.0  0.11865  0.66210  0.64632  1.0000
  C   C1522     1.0  0.13419  0.65175  0.64225  1.0000
  C   C1523     1.0  0.14017  0.64855  0.62631  1.0000
  C   C1524     1.0  0.13101  0.65726  0.61414  1.0000
  P   P53       1.0  0.16000  0.63452  0.62131  1.0000
  C   C1525     1.0  0.17522  0.64260  0.62549  1.0000
  C   C1526     1.0  0.16041  0.61339  0.63312  1.0000
  C   C1527     1.0  0.15197  0.60994  0.64975  1.0000
  C   C1528     1.0  0.15357  0.59360  0.65896  1.0000
  C   C1529     1.0  0.16350  0.58054  0.65168  1.0000
  C   C1530     1.0  0.17192  0.58380  0.63520  1.0000
  C   C1531     1.0  0.17047  0.60012  0.62600  1.0000
  C   C1532     1.0  0.17555  0.65943  0.61933  1.0000
  C   C1533     1.0  0.18769  0.66579  0.62185  1.0000
  C   C1534     1.0  0.19937  0.65545  0.63082  1.0000
  C   C1535     1.0  0.19897  0.63872  0.63718  1.0000
  C   C1536     1.0  0.18697  0.63227  0.63450  1.0000
  C   C1537     1.0  0.16494  0.63409  0.59962  1.0000
  C   C1538     1.0  0.15466  0.62827  0.59347  1.0000
  C   C1539     1.0  0.15824  0.62791  0.57674  1.0000
  C   C1540     1.0  0.17233  0.63294  0.56612  1.0000
  C   C1541     1.0  0.18278  0.63847  0.57218  1.0000
  C   C1542     1.0  0.17910  0.63912  0.58884  1.0000
  H   H1214     1.0  0.10911  0.67517  0.60853  1.0000
  H   H1215     1.0  0.09782  0.67898  0.63731  1.0000
  H   H1216     1.0  0.11391  0.66420  0.65872  1.0000
  H   H1217     1.0  0.14165  0.64667  0.65146  1.0000
  H   H1218     1.0  0.13573  0.65638  0.60138  1.0000
  H   H1219     1.0  0.14446  0.61967  0.65591  1.0000
  H   H1220     1.0  0.14747  0.59107  0.67193  1.0000
  H   H1221     1.0  0.16516  0.56794  0.65900  1.0000
  H   H1222     1.0  0.18010  0.57369  0.62972  1.0000
  H   H1223     1.0  0.17752  0.60231  0.61341  1.0000
  H   H1224     1.0  0.16644  0.66761  0.61251  1.0000
  H   H1225     1.0  0.18775  0.67882  0.61712  1.0000
  C   C1543     1.0  0.21100  0.71232  0.47946  1.0000
  H   H1226     1.0  0.20760  0.63081  0.64465  1.0000
  H   H1227     1.0  0.18678  0.61932  0.63971  1.0000
  H   H1228     1.0  0.14370  0.62433  0.60159  1.0000
  H   H1229     1.0  0.15010  0.62373  0.57197  1.0000
  H   H1230     1.0  0.17521  0.63260  0.55315  1.0000
  H   H1231     1.0  0.19371  0.64232  0.56388  1.0000
  H   H1232     1.0  0.18749  0.64334  0.59318  1.0000
  C   C1544     1.0  0.22489  0.68367  0.56394  1.0000
  H   H1233     1.0  0.13531  0.71970  0.67349  1.0000
  H   H1234     1.0  0.18068  0.71810  0.54679  1.0000
  H   H1235     1.0  0.22904  0.61401  0.71738  1.0000
  H   H1236     1.0  0.19570  0.69779  0.49890  1.0000
  C   C1545     1.0  0.21894  0.58626  0.47930  1.0000
  P   P54       1.0  0.18311  0.54041  0.57040  1.0000
  P   P55       1.0  0.19637  0.68827  0.93172  1.0000
  C   C1546     1.0  0.07484  0.67321  0.71338  1.0000
  S   S220      1.0  0.22952  0.53118  0.60366  1.0000
  C   C1547     1.0  0.20175  0.54461  0.55565  1.0000
  H   H1237     1.0  0.09003  0.65270  0.70267  1.0000
  H   H1238     1.0  0.17710  0.60283  0.82233  1.0000
  C   C1548     1.0  0.00026  0.70837  0.73042  1.0000
  C   C1549     1.0  0.07983  0.71509  0.68804  1.0000
  H   H1239     1.0  0.02601  0.69916  0.72010  1.0000
  C   C1550     1.0  0.12350  0.70563  0.73072  1.0000
  C   C1551     1.0  0.20034  0.63005  0.82062  1.0000
  C   C1552     1.0  0.19365  0.64685  0.81511  1.0000
  C   C1553     1.0  0.20098  0.62488  0.79424  1.0000
  H   H1240     1.0  0.10068  0.71239  0.72261  1.0000
  H   H1241     1.0  0.19499  0.57584  0.81065  1.0000
  C   C1554     1.0  0.16350  0.53247  0.53593  1.0000
  H   H1242     1.0  0.22003  0.70143  0.47626  1.0000
  C   C1555     1.0  0.14658  0.53919  0.54066  1.0000
  C   C1556     1.0  0.03479  0.64088  0.76751  1.0000
  H   H1243     1.0  0.23000  0.55202  0.68218  1.0000
  C   C1557     1.0  0.11205  0.71596  0.72150  1.0000
  C   C1558     1.0  0.19077  0.65271  0.79916  1.0000
  H   H1244     1.0  0.23444  0.69542  0.64956  1.0000
  H   H1245     1.0  0.23752  0.48247  0.68196  1.0000
  C   C1559     1.0  0.13811  0.71034  0.72964  1.0000
  H   H1246     1.0  0.22671  0.63743  0.85268  1.0000
  H   H1247     1.0  0.23334  0.66697  0.71286  1.0000
  H   H1248     1.0  0.22926  0.60353  0.62529  1.0000
  H   H1249     1.0  0.18449  0.66150  0.92598  1.0000
  C   C1560     1.0  0.20241  0.54091  0.73198  1.0000
  C   C1561     1.0  0.16176  0.58732  0.80296  1.0000
  H   H1250     1.0  0.00148  0.63732  0.79980  1.0000
  C   C1562     1.0  0.21761  0.62021  0.75157  1.0000
  H   H1251     1.0  0.19413  0.69096  0.82680  1.0000
  H   H1252     1.0  0.19206  0.64623  0.77642  1.0000
  C   C1563     1.0  0.19426  0.64170  0.78881  1.0000
  H   H1253     1.0  0.19308  0.66382  0.73429  1.0000
  H   H1254     1.0  0.22184  0.71617  0.68332  1.0000
  C   C1564     1.0  0.22301  0.63433  0.75075  1.0000
  C   C1565     1.0  0.19761  0.69461  0.96134  1.0000
  H   H1255     1.0  0.20255  0.62575  0.83302  1.0000
  C   C1566     1.0  0.02302  0.71679  0.73477  1.0000
  H   H1256     1.0  0.23340  0.64581  0.64993  1.0000
  C   C1567     1.0  0.14065  0.54633  0.55445  1.0000
  H   H1257     1.0  0.20066  0.56200  0.78756  1.0000
  C   C1568     1.0  0.18049  0.59522  0.83371  1.0000
  C   C1569     1.0  0.22363  0.56969  0.77559  1.0000
  C   C1570     1.0  0.05124  0.66732  0.73535  1.0000
  H   H1258     1.0  0.20118  0.50376  0.62038  1.0000
  H   H1259     1.0  0.15282  0.72866  0.71807  1.0000
  P   P56       1.0  0.23581  0.71353  0.55407  1.0000
  H   H1260     1.0  0.05580  0.64990  0.76780  1.0000
  C   C1571     1.0  0.17247  0.58367  0.58640  1.0000
  H   H1261     1.0  0.08489  0.70518  0.68140  1.0000
  S   S221      1.0  0.13498  0.69239  0.58137  1.0000
  C   C1572     1.0  0.22444  0.59346  0.54876  1.0000
  C   C1573     1.0  0.23477  0.57854  0.77612  1.0000
  H   H1262     1.0  0.22594  0.56382  0.76534  1.0000
  C   C1574     1.0  0.17429  0.55636  0.58224  1.0000
  C   C1575     1.0  0.22284  0.67061  0.91201  1.0000
  C   C1576     1.0  0.21741  0.53511  0.55796  1.0000
  S   S222      1.0  0.21907  0.66757  0.74744  1.0000
  C   C1577     1.0  0.22128  0.64821  0.90103  1.0000
  H   H1263     1.0  0.18989  0.60842  0.50553  1.0000
  C   C1578     1.0  0.21623  0.60609  0.50102  1.0000
  C   C1579     1.0  0.23330  0.60159  0.71513  1.0000
  C   C1580     1.0  0.99468  0.72816  0.74763  1.0000
  C   C1581     1.0  0.01956  0.62955  0.71560  1.0000
  C   C1582     1.0  0.20531  0.70750  0.57286  1.0000
  C   C1583     1.0  0.21402  0.60461  0.60909  1.0000
  H   H1264     1.0  0.18268  0.50621  0.57010  1.0000
  C   C1584     1.0  0.21072  0.72510  0.68714  1.0000
  C   C1585     1.0  0.19038  0.49072  0.59193  1.0000
  H   H1265     1.0  0.23229  0.64242  0.70398  1.0000
  H   H1266     1.0  0.20990  0.58579  0.57305  1.0000
  C   C1586     1.0  0.20609  0.71894  0.62327  1.0000
  C   C1587     1.0  0.21197  0.60889  0.59286  1.0000
  H   H1267     1.0  0.23492  0.58000  0.68710  1.0000
  Fe  Fe118     1.0  0.23451  0.54270  0.62165  1.0000
  H   H1268     1.0  0.22034  0.66017  0.94695  1.0000
  H   H1269     1.0  0.00852  0.72508  0.80437  1.0000
  C   C1588     1.0  0.23077  0.53927  0.71610  1.0000
  C   C1589     1.0  0.21553  0.66905  0.95479  1.0000
  H   H1270     1.0  0.15411  0.71762  0.56709  1.0000
  C   C1590     1.0  0.23329  0.58971  0.48109  1.0000
  C   C1591     1.0  0.03757  0.65020  0.79050  1.0000
  H   H1271     1.0  0.20817  0.72269  0.60993  1.0000
  H   H1272     1.0  0.21407  0.57182  0.51999  1.0000
  C   C1592     1.0  0.04389  0.64720  0.77459  1.0000
  H   H1273     1.0  0.20529  0.59857  0.61887  1.0000
  C   C1593     1.0  0.23321  0.56848  0.56856  1.0000
  C   C1594     1.0  0.06267  0.72047  0.69283  1.0000
  H   H1274     1.0  0.10375  0.71854  0.68739  1.0000
  C   C1595     1.0  0.00391  0.63994  0.71902  1.0000
  C   C1596     1.0  0.23345  0.66823  0.60279  1.0000
  C   C1597     1.0  0.23171  0.59844  0.70071  1.0000
  C   C1598     1.0  0.21811  0.71736  0.84650  1.0000
  C   C1599     1.0  0.19726  0.71019  0.49237  1.0000
  C   C1600     1.0  0.23132  0.58693  0.78881  1.0000
  C   C1601     1.0  0.18645  0.50599  0.58110  1.0000
  H   H1275     1.0  0.19227  0.59064  0.48635  1.0000
  H   H1276     1.0  0.23284  0.61936  0.82011  1.0000
  H   H1277     1.0  0.17579  0.49222  0.73661  1.0000
  C   C1602     1.0  0.15991  0.58112  0.60053  1.0000
  H   H1278     1.0  0.03620  0.71603  0.73272  1.0000
  H   H1279     1.0  0.21873  0.52511  0.56870  1.0000
  H   H1280     1.0  0.17072  0.68459  0.96308  1.0000
  H   H1281     1.0  0.14082  0.68668  0.96877  1.0000
  C   C1603     1.0  0.19541  0.48998  0.60620  1.0000
  H   H1282     1.0  0.22965  0.65408  0.97293  1.0000
  H   H1283     1.0  0.16371  0.72411  0.66751  1.0000
  C   C1604     1.0  0.23681  0.61980  0.58374  1.0000
  C   C1605     1.0  0.23170  0.53869  0.54645  1.0000
  H   H1284     1.0  0.23643  0.72282  0.48771  1.0000
  S   S223      1.0  0.23841  0.63628  0.78300  1.0000
  H   H1285     1.0  0.23813  0.48662  0.59250  1.0000
  C   C1606     1.0  0.98898  0.71864  0.74047  1.0000
  H   H1286     1.0  0.12094  0.73047  0.93842  1.0000
  C   C1607     1.0  0.11174  0.73096  0.82394  1.0000
  Fe  Fe119     1.0  0.14419  0.73106  0.87754  1.0000
  C   C1608     1.0  0.08582  0.73122  0.95051  1.0000
  C   C1609     1.0  0.11476  0.73129  0.71157  1.0000
  S   S224      1.0  0.06157  0.82462  0.18036  1.0000
  Fe  Fe120     1.0  0.07874  0.78820  0.21346  1.0000
  S   S225      1.0  0.09483  0.79842  0.18962  1.0000
  S   S226      1.0  0.08956  0.76730  0.23272  1.0000
  Fe  Fe121     1.0  0.08032  0.82320  0.19475  1.0000
  S   S227      1.0  0.09473  0.84330  0.18957  1.0000
  Fe  Fe122     1.0  0.07470  0.79870  0.17777  1.0000
  S   S228      1.0  0.08144  0.78999  0.15377  1.0000
  S   S229      1.0  0.06485  0.81297  0.21915  1.0000
  S   S230      1.0  0.05966  0.78623  0.20124  1.0000
  Fe  Fe123     1.0  0.14034  0.87478  0.23676  1.0000
  S   S231      1.0  0.16611  0.85902  0.23590  1.0000
  S   S232      1.0  0.11971  0.86052  0.24461  1.0000
  Fe  Fe124     1.0  0.15271  0.90708  0.22555  1.0000
  S   S233      1.0  0.17923  0.89355  0.22306  1.0000
  Fe  Fe125     1.0  0.17270  0.87650  0.21185  1.0000
  S   S234      1.0  0.19103  0.86568  0.19133  1.0000
  Fe  Fe126     1.0  0.17053  0.87733  0.24722  1.0000
  S   S235      1.0  0.18930  0.87122  0.26269  1.0000
  S   S236      1.0  0.14677  0.89140  0.21180  1.0000
  S   S237      1.0  0.14412  0.89174  0.25075  1.0000
  C   C1610     1.0  0.00309  0.77072  0.03980  1.0000
  H   H1287     1.0  0.06330  0.75486  0.12903  1.0000
  C   C1611     1.0  0.13800  0.88927  0.12367  1.0000
  H   H1288     1.0  0.16218  0.80296  0.09886  1.0000
  S   S238      1.0  0.21395  0.77076  0.33992  1.0000
  C   C1612     1.0  0.22069  0.82842  0.21920  1.0000
  Fe  Fe127     1.0  0.20712  0.79665  0.32522  1.0000
  S   S239      1.0  0.18134  0.81027  0.32263  1.0000
  C   C1613     1.0  0.17899  0.79321  0.02464  1.0000
  C   C1614     1.0  0.20068  0.84935  0.10949  1.0000
  H   H1289     1.0  0.20819  0.89841  0.04255  1.0000
  C   C1615     1.0  0.21473  0.86307  0.12069  1.0000
  Fe  Fe128     1.0  0.22633  0.82581  0.01040  1.0000
  S   S240      1.0  0.16775  0.74963  0.22186  1.0000
  C   C1616     1.0  0.07175  0.73597  0.21349  1.0000
  C   C1617     1.0  0.16034  0.78252  0.04959  1.0000
  C   C1618     1.0  0.16669  0.77456  0.16152  1.0000
  C   C1619     1.0  0.15018  0.92206  0.30485  1.0000
  C   C1620     1.0  0.19377  0.95024  0.29565  1.0000
  H   H1290     1.0  0.16670  0.78121  0.25878  1.0000
  C   C1621     1.0  0.11900  0.84283  0.30702  1.0000
  H   H1291     1.0  0.08565  0.73160  0.13719  1.0000
  H   H1292     1.0  0.19472  0.75236  0.08212  1.0000
  C   C1622     1.0  0.99094  0.79237  0.14159  1.0000
  H   H1293     1.0  0.15887  0.89036  0.28526  1.0000
  S   S241      1.0  0.20653  0.92386  0.13042  1.0000
  C   C1623     1.0  0.14022  0.81565  0.29453  1.0000
  C   C1624     1.0  0.13365  0.83009  0.28381  1.0000
  Fe  Fe129     1.0  0.04724  0.81205  0.20441  1.0000
  H   H1294     1.0  0.18890  0.94792  0.15076  1.0000
  C   C1625     1.0  0.14760  0.90936  0.29934  1.0000
  C   C1626     1.0  0.12782  0.84656  0.99203  1.0000
  C   C1627     1.0  0.13589  0.81492  0.31161  1.0000
  C   C1628     1.0  0.17325  0.76965  0.37373  1.0000
  C   C1629     1.0  0.15957  0.96161  0.25202  1.0000
  C   C1630     1.0  0.15765  0.78049  0.02300  1.0000
  H   H1295     1.0  0.03238  0.75288  0.20218  1.0000
  C   C1631     1.0  0.12315  0.84361  0.29004  1.0000
  H   H1296     1.0  0.21456  0.78239  0.26972  1.0000
  C   C1632     1.0  0.19855  0.75468  0.16255  1.0000
  C   C1633     1.0  0.15228  0.77773  0.04019  1.0000
  H   H1297     1.0  0.11824  0.85470  0.28160  1.0000
  H   H1298     1.0  0.21909  0.88901  0.25158  1.0000
  H   H1299     1.0  0.19926  0.83796  0.10760  1.0000
  C   C1634     1.0  0.12532  0.82848  0.31780  1.0000
  C   C1635     1.0  0.20187  0.80836  0.98252  1.0000
  S   S242      1.0  0.22445  0.79916  0.01962  1.0000
  P   P57       1.0  0.19974  0.92096  0.28489  1.0000
  C   C1636     1.0  0.16971  0.75763  0.36798  1.0000
  H   H1300     1.0  0.02222  0.78982  0.20143  1.0000
  Fe  Fe130     1.0  0.22980  0.78137  0.34915  1.0000
  C   C1637     1.0  0.99610  0.83721  0.10637  1.0000
  C   C1638     1.0  0.22746  0.74509  0.17839  1.0000
  C   C1639     1.0  0.17923  0.91656  0.29073  1.0000
  C   C1640     1.0  0.16077  0.90022  0.28961  1.0000
  H   H1301     1.0  0.20368  0.76785  0.40921  1.0000
  H   H1302     1.0  0.16748  0.93574  0.30477  1.0000
  S   S243      1.0  0.14860  0.93518  0.21814  1.0000
  C   C1641     1.0  0.15341  0.94500  0.23112  1.0000
  C   C1642     1.0  0.19466  0.88145  0.17379  1.0000
  C   C1643     1.0  0.18446  0.89726  0.17307  1.0000
  C   C1644     1.0  0.18794  0.91014  0.15946  1.0000
  C   C1645     1.0  0.20198  0.90733  0.14683  1.0000
  C   C1646     1.0  0.21200  0.89140  0.14737  1.0000
  C   C1647     1.0  0.20804  0.87837  0.16064  1.0000
  H   H1303     1.0  0.17382  0.89956  0.18297  1.0000
  H   H1304     1.0  0.17992  0.92233  0.15893  1.0000
  C   C1648     1.0  0.09662  0.73318  0.09092  1.0000
  H   H1305     1.0  0.21560  0.86603  0.16092  1.0000
  C   C1649     1.0  0.15565  0.94595  0.25820  1.0000
  C   C1650     1.0  0.15290  0.93753  0.24777  1.0000
  H   H1306     1.0  0.15480  0.94025  0.27112  1.0000
  H   H1307     1.0  0.14998  0.92542  0.25274  1.0000
  C   C1651     1.0  0.18648  0.85527  0.28016  1.0000
  C   C1652     1.0  0.20008  0.84625  0.28706  1.0000
  C   C1653     1.0  0.19841  0.83264  0.30032  1.0000
  C   C1654     1.0  0.18308  0.82814  0.30688  1.0000
  C   C1655     1.0  0.16930  0.83769  0.30046  1.0000
  C   C1656     1.0  0.17102  0.85112  0.28693  1.0000
  H   H1308     1.0  0.21205  0.84947  0.28185  1.0000
  H   H1309     1.0  0.20907  0.82559  0.30534  1.0000
  H   H1310     1.0  0.15742  0.83452  0.30572  1.0000
  H   H1311     1.0  0.16045  0.85814  0.28167  1.0000
  C   C1657     1.0  0.06759  0.77883  0.15257  1.0000
  C   C1658     1.0  0.05262  0.77856  0.16415  1.0000
  C   C1659     1.0  0.04166  0.76969  0.16322  1.0000
  H   H1312     1.0  0.15603  0.78046  0.06286  1.0000
  C   C1660     1.0  0.23508  0.81636  0.22186  1.0000
  C   C1661     1.0  0.98919  0.82240  0.20456  1.0000
  H   H1313     1.0  0.04918  0.78560  0.17361  1.0000
  H   H1314     1.0  0.03004  0.76994  0.17215  1.0000
  C   C1662     1.0  0.20779  0.95162  0.23123  1.0000
  H   H1315     1.0  0.12229  0.82795  0.33095  1.0000
  C   C1663     1.0  0.11134  0.76221  0.22946  1.0000
  C   C1664     1.0  0.11920  0.74772  0.23908  1.0000
  C   C1665     1.0  0.13655  0.74371  0.23696  1.0000
  C   C1666     1.0  0.14607  0.75409  0.22502  1.0000
  C   C1667     1.0  0.13826  0.76842  0.21528  1.0000
  C   C1668     1.0  0.12096  0.77253  0.21761  1.0000
  H   H1316     1.0  0.11182  0.73961  0.24817  1.0000
  C   C1669     1.0  0.98900  0.77671  0.05109  1.0000
  H   H1317     1.0  0.14554  0.77669  0.20630  1.0000
  H   H1318     1.0  0.11507  0.78409  0.21076  1.0000
  C   C1670     1.0  0.10117  0.84800  0.20525  1.0000
  C   C1671     1.0  0.11003  0.86061  0.20092  1.0000
  C   C1672     1.0  0.11558  0.86463  0.21290  1.0000
  C   C1673     1.0  0.11235  0.85609  0.22937  1.0000
  C   C1674     1.0  0.10324  0.84364  0.23380  1.0000
  C   C1675     1.0  0.09780  0.83950  0.22178  1.0000
  H   H1319     1.0  0.11257  0.86735  0.18821  1.0000
  H   H1320     1.0  0.12219  0.87447  0.20942  1.0000
  H   H1321     1.0  0.10055  0.83704  0.24654  1.0000
  H   H1322     1.0  0.09093  0.82982  0.22531  1.0000
  H   H1323     1.0  0.19325  0.83443  0.25768  1.0000
  C   C1676     1.0  0.15119  0.75238  0.31701  1.0000
  C   C1677     1.0  0.15710  0.96081  0.22490  1.0000
  H   H1324     1.0  0.21795  0.81134  0.25856  1.0000
  P   P58       1.0  0.15344  0.79805  0.28634  1.0000
  H   H1325     1.0  0.11741  0.78127  0.14098  1.0000
  H   H1326     1.0  0.18669  0.77641  0.28036  1.0000
  H   H1327     1.0  0.16542  0.82902  0.26914  1.0000
  C   C1678     1.0  0.16954  0.88347  0.14771  1.0000
  C   C1679     1.0  0.15658  0.89307  0.15718  1.0000
  C   C1680     1.0  0.14766  0.88544  0.17216  1.0000
  C   C1681     1.0  0.15177  0.86824  0.17773  1.0000
  C   C1682     1.0  0.16470  0.85847  0.16829  1.0000
  C   C1683     1.0  0.17345  0.86620  0.15308  1.0000
  P   P59       1.0  0.16830  0.83614  0.17474  1.0000
  C   C1684     1.0  0.16508  0.83061  0.19708  1.0000
  C   C1685     1.0  0.15328  0.82922  0.16871  1.0000
  C   C1686     1.0  0.14933  0.81376  0.17684  1.0000
  C   C1687     1.0  0.13625  0.80929  0.17372  1.0000
  C   C1688     1.0  0.12740  0.81993  0.16210  1.0000
  C   C1689     1.0  0.13158  0.83509  0.15361  1.0000
  C   C1690     1.0  0.14443  0.83976  0.15691  1.0000
  C   C1691     1.0  0.17814  0.82819  0.20487  1.0000
  C   C1692     1.0  0.17563  0.82367  0.22209  1.0000
  C   C1693     1.0  0.15999  0.82190  0.23169  1.0000
  C   C1694     1.0  0.14688  0.82449  0.22412  1.0000
  C   C1695     1.0  0.14931  0.82900  0.20692  1.0000
  C   C1696     1.0  0.18930  0.82668  0.16571  1.0000
  C   C1697     1.0  0.20258  0.83345  0.16512  1.0000
  C   C1698     1.0  0.21892  0.82582  0.15893  1.0000
  C   C1699     1.0  0.22213  0.81140  0.15308  1.0000
  C   C1700     1.0  0.20900  0.80470  0.15335  1.0000
  C   C1701     1.0  0.19263  0.81228  0.15963  1.0000
  H   H1328     1.0  0.17668  0.88953  0.13635  1.0000
  H   H1329     1.0  0.15376  0.90645  0.15313  1.0000
  H   H1330     1.0  0.13770  0.89287  0.17962  1.0000
  H   H1331     1.0  0.14488  0.86256  0.18942  1.0000
  H   H1332     1.0  0.18328  0.85898  0.14539  1.0000
  H   H1333     1.0  0.15578  0.80553  0.18618  1.0000
  H   H1334     1.0  0.13256  0.79783  0.18077  1.0000
  H   H1335     1.0  0.11686  0.81675  0.16014  1.0000
  H   H1336     1.0  0.12424  0.84358  0.14511  1.0000
  H   H1337     1.0  0.14691  0.85187  0.15073  1.0000
  H   H1338     1.0  0.19021  0.83000  0.19777  1.0000
  H   H1339     1.0  0.18568  0.82197  0.22806  1.0000
  H   H1340     1.0  0.15788  0.81902  0.24500  1.0000
  H   H1341     1.0  0.13469  0.82340  0.23164  1.0000
  H   H1342     1.0  0.13873  0.83153  0.20144  1.0000
  H   H1343     1.0  0.20028  0.84454  0.16968  1.0000
  H   H1344     1.0  0.22906  0.83101  0.15889  1.0000
  H   H1345     1.0  0.21004  0.74168  0.42935  1.0000
  H   H1346     1.0  0.21460  0.75224  0.26993  1.0000
  H   H1347     1.0  0.18267  0.80677  0.15992  1.0000
  H   H1348     1.0  0.19266  0.93746  0.22726  1.0000
  H   H1349     1.0  0.99082  0.86157  0.09083  1.0000
  C   C1702     1.0  0.02083  0.77741  0.24353  1.0000
  C   C1703     1.0  0.01529  0.75284  0.06239  1.0000
  H   H1350     1.0  0.16585  0.73871  0.33501  1.0000
  C   C1704     1.0  0.15258  0.87897  0.11701  1.0000
  H   H1351     1.0  0.00376  0.77514  0.02666  1.0000
  H   H1352     1.0  0.13438  0.88854  0.13689  1.0000
  C   C1705     1.0  0.21972  0.91918  0.19124  1.0000
  C   C1706     1.0  0.20579  0.91396  0.19094  1.0000
  C   C1707     1.0  0.19036  0.92504  0.19169  1.0000
  C   C1708     1.0  0.18874  0.94135  0.19255  1.0000
  C   C1709     1.0  0.20256  0.94672  0.19265  1.0000
  C   C1710     1.0  0.21798  0.93564  0.19222  1.0000
  S   S244      1.0  0.16274  0.97158  0.26585  1.0000
  H   H1353     1.0  0.23212  0.78979  0.42738  1.0000
  S   S245      1.0  0.22338  0.80478  0.05575  1.0000
  H   H1354     1.0  0.11123  0.75440  0.15670  1.0000
  C   C1711     1.0  0.19300  0.88645  0.03570  1.0000
  H   H1355     1.0  0.13158  0.73470  0.06610  1.0000
  H   H1356     1.0  0.02724  0.75416  0.03679  1.0000
  H   H1357     1.0  0.20674  0.90131  0.19036  1.0000
  H   H1358     1.0  0.17948  0.92099  0.19184  1.0000
  H   H1359     1.0  0.17671  0.94977  0.19314  1.0000
  H   H1360     1.0  0.01667  0.74804  0.18489  1.0000
  C   C1712     1.0  0.20433  0.75785  0.08284  1.0000
  C   C1713     1.0  0.02355  0.73759  0.19234  1.0000
  C   C1714     1.0  0.08668  0.74065  0.05022  1.0000
  H   H1361     1.0  0.00178  0.77895  0.19438  1.0000
  H   H1362     1.0  0.21631  0.75134  0.21769  1.0000
  P   P60       1.0  0.21892  0.74143  0.16308  1.0000
  S   S246      1.0  0.23011  0.77296  0.37624  1.0000
  H   H1363     1.0  0.11158  0.75932  0.11164  1.0000
  C   C1715     1.0  0.21099  0.76697  0.41792  1.0000
  Fe  Fe131     1.0  0.03633  0.73291  0.13285  1.0000
  Fe  Fe132     1.0  0.22554  0.83104  0.04401  1.0000
  C   C1716     1.0  0.22715  0.77930  0.42805  1.0000
  C   C1717     1.0  0.00988  0.79730  0.20108  1.0000
  H   H1364     1.0  0.02540  0.74342  0.06679  1.0000
  S   S247      1.0  0.22726  0.79214  0.30297  1.0000
  H   H1365     1.0  0.10959  0.73944  0.03178  1.0000
  H   H1366     1.0  0.21980  0.86103  0.30694  1.0000
  H   H1367     1.0  0.15765  0.74315  0.05025  1.0000
  H   H1368     1.0  0.22023  0.77878  0.24029  1.0000
  C   C1718     1.0  0.99703  0.78072  0.15466  1.0000
  C   C1719     1.0  0.15799  0.73185  0.05975  1.0000
  H   H1369     1.0  0.18693  0.81107  0.07868  1.0000
  S   S248      1.0  0.13601  0.74582  0.99241  1.0000
  C   C1720     1.0  0.08939  0.96143  0.25243  1.0000
  C   C1721     1.0  0.01628  0.75886  0.04546  1.0000
  C   C1722     1.0  0.08752  0.74912  0.09244  1.0000
  H   H1370     1.0  0.20119  0.73722  0.01307  1.0000
  P   P61       1.0  0.22679  0.73262  0.06875  1.0000
  H   H1371     1.0  0.13233  0.82378  0.01027  1.0000
  C   C1723     1.0  0.21924  0.96622  0.15052  1.0000
  H   H1372     1.0  0.19723  0.89095  0.02256  1.0000
  Fe  Fe133     1.0  0.16047  0.73314  0.97918  1.0000
  H   H1373     1.0  0.20500  0.81472  0.99006  1.0000
  H   H1374     1.0  0.21745  0.90654  0.22393  1.0000
  C   C1724     1.0  0.22306  0.87227  0.29867  1.0000
  H   H1375     1.0  0.22529  0.97593  0.28717  1.0000
  C   C1725     1.0  0.19966  0.77834  0.23141  1.0000
  H   H1376     1.0  0.11544  0.95013  0.24633  1.0000
  C   C1726     1.0  0.08701  0.75228  0.18940  1.0000
  C   C1727     1.0  0.10042  0.73619  0.21171  1.0000
  H   H1377     1.0  0.08549  0.94979  0.25547  1.0000
  C   C1728     1.0  0.22853  0.89702  0.22544  1.0000
  C   C1729     1.0  0.18087  0.74232  0.36764  1.0000
  C   C1730     1.0  0.19420  0.88440  0.06391  1.0000
  C   C1731     1.0  0.19985  0.77142  0.09028  1.0000
  C   C1732     1.0  0.23836  0.86101  0.18188  1.0000
  H   H1378     1.0  0.23663  0.86913  0.03556  1.0000
  H   H1379     1.0  0.06183  0.75121  0.19233  1.0000
  H   H1380     1.0  0.15869  0.75867  0.18494  1.0000
  H   H1381     1.0  0.13993  0.92927  0.31224  1.0000
  H   H1382     1.0  0.13539  0.90665  0.30251  1.0000
  H   H1383     1.0  0.11095  0.85339  0.31179  1.0000
  C   C1733     1.0  0.01453  0.79276  0.08268  1.0000
  C   C1734     1.0  0.02875  0.78016  0.08368  1.0000
  C   C1735     1.0  0.03520  0.77540  0.09786  1.0000
  C   C1736     1.0  0.02747  0.78328  0.11103  1.0000
  C   C1737     1.0  0.01356  0.79640  0.10988  1.0000
  C   C1738     1.0  0.00685  0.80076  0.09580  1.0000
  P   P62       1.0  0.00344  0.80611  0.12718  1.0000
  C   C1739     1.0  0.21519  0.95410  0.24256  1.0000
  C   C1740     1.0  0.01820  0.80983  0.13624  1.0000
  C   C1741     1.0  0.22108  0.75145  0.07635  1.0000
  C   C1742     1.0  0.02412  0.81752  0.15866  1.0000
  C   C1743     1.0  0.04012  0.81843  0.14944  1.0000
  C   C1744     1.0  0.04521  0.81511  0.13366  1.0000
  C   C1745     1.0  0.03424  0.81103  0.12696  1.0000
  H   H1384     1.0  0.04407  0.78199  0.24392  1.0000
  Fe  Fe134     1.0  0.20514  0.80813  0.04053  1.0000
  H   H1385     1.0  0.20903  0.95935  0.21891  1.0000
  H   H1386     1.0  0.23845  0.76387  0.44787  1.0000
  C   C1746     1.0  0.11660  0.73610  0.10427  1.0000
  H   H1387     1.0  0.11202  0.75177  0.18991  1.0000
  C   C1747     1.0  0.21182  0.95443  0.14888  1.0000
  C   C1748     1.0  0.20375  0.95266  0.31826  1.0000
  H   H1388     1.0  0.12814  0.73137  0.10840  1.0000
  H   H1389     1.0  0.18692  0.95602  0.28596  1.0000
  C   C1749     1.0  0.01303  0.76636  0.24103  1.0000
  H   H1390     1.0  0.00941  0.79613  0.07180  1.0000
  H   H1391     1.0  0.03463  0.77388  0.07357  1.0000
  H   H1392     1.0  0.04595  0.76527  0.09883  1.0000
  H   H1393     1.0  0.03231  0.77910  0.12215  1.0000
  C   C1750     1.0  0.22876  0.77201  0.08544  1.0000
  C   C1751     1.0  0.99090  0.82650  0.12139  1.0000
  H   H1394     1.0  0.00757  0.83321  0.09793  1.0000
  H   H1395     1.0  0.04870  0.82144  0.15462  1.0000
  H   H1396     1.0  0.05775  0.81554  0.12674  1.0000
  H   H1397     1.0  0.03833  0.80895  0.11455  1.0000
  C   C1752     1.0  0.13687  0.74085  0.15246  1.0000
  S   S249      1.0  0.02271  0.73917  0.11252  1.0000
  H   H1398     1.0  0.22850  0.93991  0.19268  1.0000
  C   C1753     1.0  0.03797  0.77336  0.24214  1.0000
  S   S250      1.0  0.18785  0.73909  0.25977  1.0000
  C   C1754     1.0  0.21207  0.77843  0.09169  1.0000
  C   C1755     1.0  0.03253  0.74024  0.20218  1.0000
  H   H1399     1.0  0.15292  0.80858  0.99053  1.0000
  H   H1400     1.0  0.08727  0.76085  0.17758  1.0000
  C   C1756     1.0  0.00534  0.81291  0.20501  1.0000
  C   C1757     1.0  0.23248  0.97650  0.18307  1.0000
  C   C1758     1.0  0.18276  0.87408  0.06979  1.0000
  C   C1759     1.0  0.17186  0.84569  0.09474  1.0000
  H   H1401     1.0  0.14253  0.73254  0.24442  1.0000
  H   H1402     1.0  0.19313  0.83803  0.07593  1.0000
  H   H1403     1.0  0.16490  0.78172  0.37348  1.0000
  H   H1404     1.0  0.19071  0.77564  0.38363  1.0000
  H   H1405     1.0  0.19406  0.77135  0.24311  1.0000
  C   C1760     1.0  0.21480  0.75209  0.42926  1.0000
  C   C1761     1.0  0.19147  0.86476  0.10270  1.0000
  H   H1406     1.0  0.00896  0.78032  0.15668  1.0000
  C   C1762     1.0  0.14382  0.77173  0.13450  1.0000
  H   H1407     1.0  0.14089  0.80409  0.32016  1.0000
  C   C1763     1.0  0.18012  0.77794  0.14861  1.0000
  C   C1764     1.0  0.19505  0.95990  0.30565  1.0000
  H   H1408     1.0  0.21937  0.80401  0.18973  1.0000
  H   H1409     1.0  0.99563  0.81018  0.09503  1.0000
  C   C1765     1.0  0.20633  0.73666  0.02337  1.0000
  S   S251      1.0  0.14603  0.77676  0.01111  1.0000
  C   C1766     1.0  0.10625  0.96160  0.24727  1.0000
  S   S252      1.0  0.01919  0.82081  0.21106  1.0000
  H   H1410     1.0  0.23265  0.96419  0.14748  1.0000
  C   C1767     1.0  0.16506  0.81467  0.09808  1.0000
  C   C1768     1.0  0.21461  0.78267  0.22975  1.0000
  C   C1769     1.0  0.15738  0.87984  0.09992  1.0000
  C   C1770     1.0  0.15675  0.75773  0.13615  1.0000
  H   H1411     1.0  0.16944  0.75874  0.13040  1.0000
  H   H1412     1.0  0.14642  0.78363  0.12744  1.0000
  H   H1413     1.0  0.11877  0.80567  0.28307  1.0000
  C   C1771     1.0  0.17375  0.80227  0.27589  1.0000
  C   C1772     1.0  0.18786  0.78916  0.27540  1.0000
  C   C1773     1.0  0.20373  0.79244  0.26919  1.0000
  C   C1774     1.0  0.20567  0.80874  0.26285  1.0000
  C   C1775     1.0  0.19174  0.82176  0.26246  1.0000
  C   C1776     1.0  0.17586  0.81858  0.26903  1.0000
  C   C1777     1.0  0.16592  0.92568  0.30057  1.0000
  H   H1414     1.0  0.18654  0.89660  0.27783  1.0000
  C   C1778     1.0  0.12749  0.77041  0.14208  1.0000
  H   H1415     1.0  0.15357  0.77634  0.23912  1.0000
  H   H1416     1.0  0.15059  0.89190  0.07638  1.0000
  C   C1779     1.0  0.01317  0.81321  0.15211  1.0000
  C   C1780     1.0  0.20123  0.93324  0.29814  1.0000
  C   C1781     1.0  0.19598  0.76801  0.14907  1.0000
  C   C1782     1.0  0.03981  0.74779  0.23426  1.0000
  C   C1783     1.0  0.21213  0.84853  0.11857  1.0000
  C   C1784     1.0  0.17648  0.90379  0.28537  1.0000
  C   C1785     1.0  0.19395  0.87930  0.10512  1.0000
  Fe  Fe135     1.0  0.23283  0.92060  0.11567  1.0000
  H   H1417     1.0  0.16009  0.87022  0.12517  1.0000
  C   C1786     1.0  0.21610  0.84247  0.22592  1.0000
  H   H1418     1.0  0.20493  0.85172  0.22389  1.0000
  C   C1787     1.0  0.19961  0.79157  0.20283  1.0000
  H   H1419     1.0  0.20784  0.88979  0.11528  1.0000
  C   C1788     1.0  0.22909  0.74889  0.28790  1.0000
  C   C1789     1.0  0.14607  0.78283  0.24866  1.0000
  C   C1790     1.0  0.20571  0.87846  0.11385  1.0000
  C   C1791     1.0  0.17898  0.81924  0.08666  1.0000
  C   C1792     1.0  0.21428  0.79646  0.20129  1.0000
  C   C1793     1.0  0.04555  0.76085  0.15075  1.0000
  C   C1794     1.0  0.00125  0.75880  0.07369  1.0000
  C   C1795     1.0  0.20325  0.93266  0.26374  1.0000
  C   C1796     1.0  0.10739  0.75198  0.10592  1.0000
  H   H1420     1.0  0.06073  0.75599  0.23601  1.0000
  H   H1421     1.0  0.17522  0.79039  0.00198  1.0000
  C   C1797     1.0  0.15469  0.82541  0.10811  1.0000
  C   C1798     1.0  0.12662  0.79946  0.27341  1.0000
  C   C1799     1.0  0.14788  0.76702  0.30516  1.0000
  C   C1800     1.0  0.15333  0.74241  0.14531  1.0000
  H   H1422     1.0  0.13655  0.83096  0.27059  1.0000
  C   C1801     1.0  0.17359  0.79042  0.04184  1.0000
  H   H1423     1.0  0.11110  0.73244  0.21724  1.0000
  H   H1424     1.0  0.15435  0.78203  0.16103  1.0000
  H   H1425     1.0  0.19038  0.75945  0.02872  1.0000
  H   H1426     1.0  0.14919  0.73656  0.17875  1.0000
  H   H1427     1.0  0.07637  0.75424  0.08765  1.0000
  C   C1802     1.0  0.15349  0.78569  0.25977  1.0000
  H   H1428     1.0  0.19373  0.79499  0.19247  1.0000
  H   H1429     1.0  0.10600  0.80093  0.26309  1.0000
  C   C1803     1.0  0.18773  0.76621  0.37952  1.0000
  S   S253      1.0  0.18304  0.79672  0.05398  1.0000
  C   C1804     1.0  0.22207  0.79183  0.21468  1.0000
  C   C1805     1.0  0.11926  0.79666  0.26221  1.0000
  S   S254      1.0  0.03130  0.74972  0.15037  1.0000
  C   C1806     1.0  0.14388  0.79440  0.27197  1.0000
  H   H1430     1.0  0.18692  0.89135  0.10011  1.0000
  C   C1807     1.0  0.18241  0.83463  0.08504  1.0000
  H   H1431     1.0  0.18916  0.79935  0.01859  1.0000
  H   H1432     1.0  0.17819  0.78820  0.13819  1.0000
  C   C1808     1.0  0.15617  0.77973  0.30267  1.0000
  C   C1809     1.0  0.21735  0.78050  0.41715  1.0000
  H   H1433     1.0  0.18904  0.92063  0.25533  1.0000
  C   C1810     1.0  0.19861  0.93935  0.23591  1.0000
  H   H1434     1.0  0.14158  0.77233  0.04619  1.0000
  C   C1811     1.0  0.19221  0.78266  0.21794  1.0000
  H   H1435     1.0  0.13921  0.76815  0.29773  1.0000
  C   C1812     1.0  0.16749  0.77771  0.31242  1.0000
  H   H1436     1.0  0.22199  0.85534  0.24085  1.0000
  C   C1813     1.0  0.12899  0.78842  0.24981  1.0000
  H   H1437     1.0  0.17691  0.87286  0.03266  1.0000
  C   C1814     1.0  0.17106  0.78819  0.01525  1.0000
  P   P63       1.0  0.17597  0.86597  0.09170  1.0000
  H   H1438     1.0  0.21306  0.82709  0.21181  1.0000
  H   H1439     1.0  0.17410  0.78731  0.31057  1.0000
  H   H1440     1.0  0.21928  0.83661  0.12352  1.0000
  C   C1815     1.0  0.23518  0.86435  0.07626  1.0000
  H   H1441     1.0  0.12320  0.78637  0.24116  1.0000
  C   C1816     1.0  0.20019  0.74919  0.03226  1.0000
  C   C1817     1.0  0.20647  0.74834  0.04584  1.0000
  H   H1442     1.0  0.08570  0.77082  0.10113  1.0000
  H   H1443     1.0  0.18687  0.77669  0.09460  1.0000
  H   H1444     1.0  0.14526  0.74233  0.31845  1.0000
  H   H1445     1.0  0.18074  0.77905  0.21918  1.0000
  C   C1818     1.0  0.09284  0.75849  0.09999  1.0000
  C   C1819     1.0  0.15805  0.84087  0.10646  1.0000
  C   C1820     1.0  0.12807  0.90052  0.11330  1.0000
  C   C1821     1.0  0.18469  0.97131  0.15744  1.0000
  C   C1822     1.0  0.16040  0.96902  0.23526  1.0000
  C   C1823     1.0  0.22604  0.74592  0.27391  1.0000
  C   C1824     1.0  0.04742  0.75858  0.23759  1.0000
  H   H1446     1.0  0.20118  0.95943  0.19320  1.0000
  C   C1825     1.0  0.12400  0.75507  0.15105  1.0000
  C   C1826     1.0  0.07143  0.77028  0.13986  1.0000
  C   C1827     1.0  0.23804  0.73511  0.26481  1.0000
  C   C1828     1.0  0.16281  0.75031  0.32636  1.0000
  H   H1447     1.0  0.20700  0.73898  0.33804  1.0000
  C   C1829     1.0  0.06038  0.76136  0.13888  1.0000
  H   H1448     1.0  0.21891  0.94669  0.26729  1.0000
  H   H1449     1.0  0.18926  0.97303  0.30362  1.0000
  H   H1450     1.0  0.15851  0.76036  0.36343  1.0000
  H   H1451     1.0  0.01618  0.74325  0.23445  1.0000
  H   H1452     1.0  0.19968  0.88746  0.07219  1.0000
  C   C1830     1.0  0.17086  0.76305  0.32414  1.0000
  H   H1453     1.0  0.21777  0.93010  0.33075  1.0000
  C   C1831     1.0  0.02244  0.75147  0.23665  1.0000
  H   H1454     1.0  0.17812  0.73321  0.36292  1.0000
  H   H1455     1.0  0.99231  0.76077  0.17557  1.0000
  H   H1456     1.0  0.14967  0.84907  0.11413  1.0000
  C   C1832     1.0  0.07763  0.97621  0.25385  1.0000
  C   C1833     1.0  0.19645  0.92982  0.25204  1.0000
  C   C1834     1.0  0.14727  0.89105  0.08958  1.0000
  H   H1457     1.0  0.20469  0.96018  0.32601  1.0000
  H   H1458     1.0  0.99069  0.77266  0.10633  1.0000
  H   H1459     1.0  0.01365  0.78927  0.24622  1.0000
  H   H1460     1.0  0.00081  0.75356  0.08666  1.0000
  H   H1461     1.0  0.08297  0.77054  0.13085  1.0000
  H   H1462     1.0  0.11677  0.90853  0.11847  1.0000
  H   H1463     1.0  0.12498  0.91011  0.08824  1.0000
  C   C1835     1.0  0.18488  0.75124  0.17532  1.0000
  H   H1464     1.0  0.22206  0.78740  0.98562  1.0000
  H   H1465     1.0  0.18635  0.74077  0.18567  1.0000
  H   H1466     1.0  0.20285  0.75462  0.46942  1.0000
  C   C1836     1.0  0.22587  0.84463  0.23531  1.0000
  S   S255      1.0  0.22124  0.80763  0.33606  1.0000
  C   C1837     1.0  0.13541  0.83001  0.99739  1.0000
  H   H1467     1.0  0.21559  0.91293  0.31319  1.0000
  C   C1838     1.0  0.10094  0.74710  0.19632  1.0000
  C   C1839     1.0  0.21310  0.94453  0.25870  1.0000
  H   H1468     1.0  0.02025  0.82012  0.17091  1.0000
  C   C1840     1.0  0.16908  0.76127  0.17488  1.0000
  Fe  Fe136     1.0  0.15072  0.75066  0.00769  1.0000
  H   H1469     1.0  0.21999  0.75742  0.29480  1.0000
  H   H1470     1.0  0.16742  0.86238  0.06251  1.0000
  H   H1471     1.0  0.18001  0.76151  0.33120  1.0000
  C   C1841     1.0  0.22506  0.75061  0.43992  1.0000
  S   S256      1.0  0.17518  0.73991  0.99304  1.0000
  C   C1842     1.0  0.21144  0.79288  0.98009  1.0000
  H   H1472     1.0  0.21941  0.94334  0.14476  1.0000
  C   C1843     1.0  0.23572  0.73485  0.13190  1.0000
  H   H1473     1.0  0.20611  0.77072  0.13879  1.0000
  C   C1844     1.0  0.22409  0.74978  0.20575  1.0000
  C   C1845     1.0  0.13270  0.90140  0.09627  1.0000
  C   C1846     1.0  0.21726  0.74805  0.19359  1.0000
  H   H1474     1.0  0.21153  0.79354  0.14881  1.0000
  S   S257      1.0  0.20536  0.83514  0.03043  1.0000
  C   C1847     1.0  0.19917  0.89065  0.04696  1.0000
  H   H1475     1.0  0.22275  0.88914  0.13758  1.0000
  H   H1476     1.0  0.15732  0.96674  0.21208  1.0000
  H   H1477     1.0  0.08706  0.75225  0.05253  1.0000
  H   H1478     1.0  0.11882  0.85327  0.00079  1.0000
  C   C1848     1.0  0.07249  0.74674  0.19789  1.0000
  H   H1479     1.0  0.14381  0.82194  0.11690  1.0000
  H   H1480     1.0  0.21016  0.74861  0.38354  1.0000
  H   H1481     1.0  0.99975  0.76962  0.24193  1.0000
  C   C1849     1.0  0.14713  0.82137  0.98615  1.0000
  C   C1850     1.0  0.21111  0.93573  0.32090  1.0000
  C   C1851     1.0  0.19458  0.95702  0.15223  1.0000
  C   C1852     1.0  0.17634  0.87022  0.05837  1.0000
  H   H1482     1.0  0.20161  0.75841  0.05226  1.0000
  S   S258      1.0  0.05717  0.74284  0.07287  1.0000
  C   C1853     1.0  0.19568  0.73899  0.37300  1.0000
  C   C1854     1.0  0.07352  0.73288  0.05907  1.0000
  C   C1855     1.0  0.18156  0.87626  0.04141  1.0000
  H   H1483     1.0  0.20863  0.78917  0.09712  1.0000
  C   C1856     1.0  0.19885  0.75088  0.37931  1.0000
  H   H1484     1.0  0.16348  0.73170  0.14670  1.0000
  C   C1857     1.0  0.23252  0.74533  0.14285  1.0000
  H   H1485     1.0  0.22383  0.86250  0.12744  1.0000
  C   C1858     1.0  0.99825  0.79116  0.19709  1.0000
  C   C1859     1.0  0.21123  0.88723  0.29771  1.0000
  C   C1860     1.0  0.20985  0.92602  0.31091  1.0000
  H   H1486     1.0  0.22226  0.96368  0.23892  1.0000
  H   H1487     1.0  0.21494  0.79176  0.40784  1.0000
  C   C1861     1.0  0.11134  0.97657  0.24333  1.0000
  H   H1488     1.0  0.21980  0.97662  0.18969  1.0000
  C   C1862     1.0  0.21877  0.73463  0.05085  1.0000
  H   H1489     1.0  0.17131  0.97317  0.16011  1.0000
  H   H1490     1.0  0.23462  0.73519  0.34434  1.0000
  S   S259      1.0  0.22563  0.84339  0.06406  1.0000
  C   C1863     1.0  0.23088  0.76447  0.43952  1.0000
  C   C1864     1.0  0.09941  0.73345  0.03843  1.0000
  H   H1491     1.0  0.19897  0.88736  0.30558  1.0000
  C   C1865     1.0  0.21517  0.90170  0.28655  1.0000
  C   C1866     1.0  0.23349  0.86096  0.06194  1.0000
  H   H1492     1.0  0.99054  0.75455  0.13403  1.0000
  H   H1493     1.0  0.23479  0.80544  0.14834  1.0000
  H   H1494     1.0  0.23750  0.76751  0.14594  1.0000
  S   S260      1.0  0.23697  0.93692  0.09038  1.0000
  H   H1495     1.0  0.00077  0.81263  0.15943  1.0000
  H   H1496     1.0  0.06459  0.97600  0.25814  1.0000
  H   H1497     1.0  0.12129  0.74116  0.27268  1.0000
  C   C1867     1.0  0.13197  0.85445  0.97540  1.0000
  S   S261      1.0  0.22700  0.83786  0.98352  1.0000
  Fe  Fe137     1.0  0.23580  0.76741  0.31880  1.0000
  C   C1868     1.0  0.23131  0.90105  0.27678  1.0000
  H   H1498     1.0  0.12447  0.97635  0.23980  1.0000
  C   C1869     1.0  0.18847  0.81587  0.97497  1.0000
  C   C1870     1.0  0.23328  0.75865  0.07770  1.0000
  H   H1499     1.0  0.22835  0.74739  0.98914  1.0000
  H   H1500     1.0  0.18143  0.82804  0.97677  1.0000
  H   H1501     1.0  0.23212  0.85604  0.08800  1.0000
  H   H1502     1.0  0.22747  0.76283  0.00966  1.0000
  H   H1503     1.0  0.22936  0.87293  0.20233  1.0000
  C   C1871     1.0  0.22941  0.88708  0.24119  1.0000
  H   H1504     1.0  0.20411  0.74856  0.19643  1.0000
  H   H1505     1.0  0.23411  0.84986  0.18890  1.0000
  C   C1872     1.0  0.23561  0.87422  0.18944  1.0000
  H   H1506     1.0  0.23470  0.91202  0.26816  1.0000
  C   C1873     1.0  0.23798  0.87155  0.04669  1.0000
  S   S262      1.0  0.23523  0.73221  0.24657  1.0000
  C   C1874     1.0  0.20940  0.98076  0.15550  1.0000
  H   H1507     1.0  0.23822  0.77774  0.08611  1.0000
  H   H1508     1.0  0.16321  0.98118  0.23039  1.0000
  H   H1509     1.0  0.09505  0.73139  0.28477  1.0000
  C   C1875     1.0  0.99450  0.76172  0.63576  1.0000
  S   S263      1.0  0.20434  0.91761  0.77297  1.0000
  H   H1510     1.0  0.02105  0.78888  0.78678  1.0000
  S   S264      1.0  0.19671  0.88414  0.81280  1.0000
  C   C1876     1.0  0.20920  0.97980  0.66192  1.0000
  C   C1877     1.0  0.06677  0.74128  0.70434  1.0000
  C   C1878     1.0  0.18269  0.74985  0.69453  1.0000
  H   H1511     1.0  0.21417  0.77361  0.84129  1.0000
  Fe  Fe138     1.0  0.21987  0.79415  0.89326  1.0000
  S   S265      1.0  0.19871  0.78175  0.89823  1.0000
  C   C1879     1.0  0.14190  0.83298  0.63849  1.0000
  H   H1512     1.0  0.21819  0.73671  0.62558  1.0000
  Fe  Fe139     1.0  0.03800  0.83841  0.67989  1.0000
  S   S266      1.0  0.04335  0.81458  0.69835  1.0000
  S   S267      1.0  0.05475  0.85680  0.67213  1.0000
  C   C1880     1.0  0.17069  0.74752  0.62156  1.0000
  S   S268      1.0  0.01158  0.80518  0.69170  1.0000
  Fe  Fe140     1.0  0.01592  0.81894  0.70795  1.0000
  S   S269      1.0  0.00387  0.81561  0.73494  1.0000
  Fe  Fe141     1.0  0.03862  0.80300  0.68037  1.0000
  S   S270      1.0  0.05394  0.77767  0.67795  1.0000
  S   S271      1.0  0.03501  0.82648  0.66100  1.0000
  Fe  Fe142     1.0  0.11853  0.91014  0.71986  1.0000
  S   S272      1.0  0.11662  0.88560  0.73754  1.0000
  Fe  Fe143     1.0  0.14020  0.89308  0.69236  1.0000
  S   S273      1.0  0.14023  0.86740  0.70783  1.0000
  S   S274      1.0  0.15480  0.89908  0.66635  1.0000
  Fe  Fe144     1.0  0.11299  0.87747  0.71638  1.0000
  S   S275      1.0  0.09527  0.86030  0.72213  1.0000
  Fe  Fe145     1.0  0.14383  0.87769  0.72739  1.0000
  S   S276      1.0  0.16107  0.86312  0.74450  1.0000
  S   S277      1.0  0.11259  0.90273  0.69945  1.0000
  S   S278      1.0  0.14598  0.90272  0.71123  1.0000
  C   C1881     1.0  0.14607  0.79595  0.96189  1.0000
  S   S279      1.0  0.04122  0.75746  0.78350  1.0000
  H   H1513     1.0  0.16896  0.73500  0.69009  1.0000
  C   C1882     1.0  0.11700  0.95083  0.72043  1.0000
  C   C1883     1.0  0.09547  0.74660  0.86512  1.0000
  C   C1884     1.0  0.19949  0.86175  0.84177  1.0000
  H   H1514     1.0  0.16388  0.83554  0.64409  1.0000
  C   C1885     1.0  0.13250  0.96725  0.69658  1.0000
  H   H1515     1.0  0.21514  0.77291  0.96813  1.0000
  H   H1516     1.0  0.20516  0.87651  0.76101  1.0000
  C   C1886     1.0  0.11556  0.96255  0.72957  1.0000
  C   C1887     1.0  0.99431  0.81701  0.62732  1.0000
  H   H1517     1.0  0.22992  0.81340  0.75888  1.0000
  S   S280      1.0  0.09083  0.76451  0.60701  1.0000
  C   C1888     1.0  0.20755  0.78480  0.97018  1.0000
  P   P64       1.0  0.19917  0.96489  0.71251  1.0000
  C   C1889     1.0  0.21471  0.86993  0.68379  1.0000
  H   H1518     1.0  0.16193  0.73891  0.89778  1.0000
  H   H1519     1.0  0.03457  0.78647  0.63744  1.0000
  Fe  Fe146     1.0  0.19146  0.78726  0.65044  1.0000
  C   C1890     1.0  0.16998  0.76474  0.64517  1.0000
  C   C1891     1.0  0.18182  0.76586  0.63026  1.0000
  C   C1892     1.0  0.18207  0.75743  0.61843  1.0000
  H   H1520     1.0  0.03250  0.79936  0.92674  1.0000
  C   C1893     1.0  0.16525  0.73850  0.92166  1.0000
  C   C1894     1.0  0.15892  0.75444  0.64850  1.0000
  H   H1521     1.0  0.13637  0.95051  0.83173  1.0000
  H   H1522     1.0  0.03781  0.82765  0.91468  1.0000
  Fe  Fe147     1.0  0.22358  0.90354  0.75547  1.0000
  H   H1523     1.0  0.15013  0.75302  0.66023  1.0000
  C   C1895     1.0  0.18091  0.76299  0.87050  1.0000
  C   C1896     1.0  0.16859  0.88328  0.65692  1.0000
  C   C1897     1.0  0.17799  0.88803  0.64107  1.0000
  C   C1898     1.0  0.18896  0.87611  0.63277  1.0000
  C   C1899     1.0  0.19059  0.85924  0.64016  1.0000
  C   C1900     1.0  0.18141  0.85431  0.65617  1.0000
  C   C1901     1.0  0.17038  0.86638  0.66458  1.0000
  H   H1524     1.0  0.17669  0.90104  0.63509  1.0000
  H   H1525     1.0  0.19601  0.87998  0.62042  1.0000
  H   H1526     1.0  0.18266  0.84128  0.66196  1.0000
  H   H1527     1.0  0.16318  0.86260  0.67682  1.0000
  C   C1902     1.0  0.01400  0.79871  0.74805  1.0000
  C   C1903     1.0  0.02980  0.77239  0.76997  1.0000
  C   C1904     1.0  0.02131  0.78731  0.77470  1.0000
  C   C1905     1.0  0.01312  0.80026  0.76395  1.0000
  C   C1906     1.0  0.19205  0.76498  0.85523  1.0000
  C   C1907     1.0  0.20543  0.77223  0.85304  1.0000
  H   H1528     1.0  0.14239  0.77331  0.60146  1.0000
  C   C1908     1.0  0.06404  0.77453  0.65803  1.0000
  C   C1909     1.0  0.07220  0.75845  0.65614  1.0000
  C   C1910     1.0  0.08056  0.75542  0.64052  1.0000
  C   C1911     1.0  0.08045  0.76843  0.62658  1.0000
  C   C1912     1.0  0.07214  0.78456  0.62838  1.0000
  C   C1913     1.0  0.06410  0.78765  0.64414  1.0000
  H   H1529     1.0  0.07212  0.74829  0.66680  1.0000
  C   C1914     1.0  0.18788  0.73994  0.48895  1.0000
  H   H1530     1.0  0.07207  0.79466  0.61761  1.0000
  H   H1531     1.0  0.05791  0.80011  0.64551  1.0000
  C   C1915     1.0  0.06597  0.85784  0.68603  1.0000
  C   C1916     1.0  0.06356  0.84866  0.70231  1.0000
  C   C1917     1.0  0.07270  0.84959  0.71307  1.0000
  C   C1918     1.0  0.08421  0.85977  0.70785  1.0000
  C   C1919     1.0  0.08673  0.86892  0.69154  1.0000
  C   C1920     1.0  0.07763  0.86793  0.68067  1.0000
  H   H1532     1.0  0.05456  0.84094  0.70664  1.0000
  H   H1533     1.0  0.07071  0.84251  0.72558  1.0000
  H   H1534     1.0  0.09561  0.87679  0.68730  1.0000
  H   H1535     1.0  0.07959  0.87507  0.66809  1.0000
  C   C1921     1.0  0.19647  0.77540  0.88148  1.0000
  C   C1922     1.0  0.20765  0.77746  0.86616  1.0000
  H   H1536     1.0  0.17780  0.80045  0.92803  1.0000
  C   C1923     1.0  0.18313  0.76818  0.88358  1.0000
  H   H1537     1.0  0.23406  0.81248  0.65875  1.0000
  C   C1924     1.0  0.16391  0.93834  0.71903  1.0000
  C   C1925     1.0  0.04568  0.97520  0.76999  1.0000
  H   H1538     1.0  0.21807  0.78289  0.86448  1.0000
  S   S281      1.0  0.17026  0.73739  0.95164  1.0000
  C   C1926     1.0  0.20341  0.88905  0.73600  1.0000
  C   C1927     1.0  0.19889  0.87835  0.75119  1.0000
  C   C1928     1.0  0.18644  0.86971  0.75353  1.0000
  C   C1929     1.0  0.17791  0.87245  0.74102  1.0000
  C   C1930     1.0  0.18264  0.88299  0.72586  1.0000
  C   C1931     1.0  0.19547  0.89109  0.72327  1.0000
  H   H1539     1.0  0.22019  0.77005  0.92765  1.0000
  H   H1540     1.0  0.18322  0.86117  0.76511  1.0000
  H   H1541     1.0  0.17657  0.88478  0.71598  1.0000
  H   H1542     1.0  0.19889  0.89931  0.71151  1.0000
  C   C1932     1.0  0.20269  0.87690  0.83179  1.0000
  H   H1543     1.0  0.23186  0.85736  0.62606  1.0000
  S   S282      1.0  0.19615  0.80380  0.62529  1.0000
  C   C1933     1.0  0.21109  0.88574  0.83680  1.0000
  C   C1934     1.0  0.02268  0.81189  0.62984  1.0000
  H   H1544     1.0  0.21627  0.74500  0.88597  1.0000
  C   C1935     1.0  0.00816  0.82297  0.62629  1.0000
  H   H1545     1.0  0.13691  0.73186  0.95780  1.0000
  S   S283      1.0  0.01064  0.84390  0.69102  1.0000
  C   C1936     1.0  0.22133  0.97102  0.77949  1.0000
  C   C1937     1.0  0.06945  0.76802  0.88154  1.0000
  C   C1938     1.0  0.14865  0.94476  0.82587  1.0000
  H   H1546     1.0  0.20044  0.80661  0.77147  1.0000
  H   H1547     1.0  0.19308  0.92348  0.80637  1.0000
  H   H1548     1.0  0.17140  0.92747  0.66142  1.0000
  C   C1939     1.0  0.23129  0.89869  0.63621  1.0000
  C   C1940     1.0  0.21189  0.79879  0.80802  1.0000
  C   C1941     1.0  0.22549  0.85496  0.68906  1.0000
  H   H1549     1.0  0.05494  0.76521  0.86615  1.0000
  S   S284      1.0  0.23228  0.80221  0.63172  1.0000
  H   H1550     1.0  0.19714  0.83264  0.71347  1.0000
  C   C1942     1.0  0.20141  0.74215  0.47571  1.0000
  S   S285      1.0  0.12467  0.73664  0.62932  1.0000
  C   C1943     1.0  0.18437  0.80780  0.96508  1.0000
  H   H1551     1.0  0.99433  0.77336  0.74468  1.0000
  H   H1552     1.0  0.22420  0.84101  0.78193  1.0000
  C   C1944     1.0  0.13699  0.78429  0.60660  1.0000
  C   C1945     1.0  0.15282  0.85789  0.62875  1.0000
  H   H1553     1.0  0.18736  0.86295  0.89537  1.0000
  H   H1554     1.0  0.17502  0.94736  0.67547  1.0000
  H   H1555     1.0  0.22449  0.74123  0.69004  1.0000
  C   C1946     1.0  0.12532  0.97778  0.80906  1.0000
  C   C1947     1.0  0.23177  0.86890  0.62888  1.0000
  H   H1556     1.0  0.15451  0.93849  0.71288  1.0000
  C   C1948     1.0  0.19403  0.79219  0.96271  1.0000
  C   C1949     1.0  0.00205  0.73569  0.79667  1.0000
  H   H1557     1.0  0.20923  0.84727  0.80894  1.0000
  H   H1558     1.0  0.03451  0.82527  0.74070  1.0000
  C   C1950     1.0  0.02269  0.78386  0.74308  1.0000
  S   S286      1.0  0.14363  0.75276  0.85591  1.0000
  H   H1559     1.0  0.06135  0.75168  0.71025  1.0000
  C   C1951     1.0  0.05364  0.75415  0.61010  1.0000
  C   C1952     1.0  0.12972  0.73571  0.71017  1.0000
  H   H1560     1.0  0.14352  0.76862  0.94139  1.0000
  H   H1561     1.0  0.14687  0.85221  0.95138  1.0000
  H   H1562     1.0  0.05249  0.93304  0.78128  1.0000
  Fe  Fe148     1.0  0.17076  0.74194  0.84829  1.0000
  C   C1953     1.0  0.05428  0.94526  0.77437  1.0000
  C   C1954     1.0  0.18243  0.92501  0.66623  1.0000
  H   H1563     1.0  0.13926  0.87837  0.61348  1.0000
  H   H1564     1.0  0.22776  0.83012  0.70354  1.0000
  H   H1565     1.0  0.14254  0.74442  0.74342  1.0000
  H   H1566     1.0  0.08289  0.75120  0.96222  1.0000
  C   C1955     1.0  0.18060  0.92940  0.81165  1.0000
  C   C1956     1.0  0.21667  0.87917  0.85158  1.0000
  H   H1567     1.0  0.19620  0.83332  0.94219  1.0000
  H   H1568     1.0  0.02345  0.78265  0.73074  1.0000
  H   H1569     1.0  0.20320  0.84313  0.86385  1.0000
  C   C1957     1.0  0.21417  0.86363  0.86116  1.0000
  C   C1958     1.0  0.20539  0.85501  0.85636  1.0000
  H   H1570     1.0  0.03702  0.75904  0.75044  1.0000
  C   C1959     1.0  0.20776  0.75179  0.94521  1.0000
  H   H1571     1.0  0.12669  0.94430  0.69673  1.0000
  C   C1960     1.0  0.21274  0.79802  0.79185  1.0000
  H   H1572     1.0  0.10931  0.96056  0.74244  1.0000
  H   H1573     1.0  0.09105  0.73475  0.90936  1.0000
  C   C1961     1.0  0.14000  0.86566  0.62038  1.0000
  C   C1962     1.0  0.08731  0.75535  0.92081  1.0000
  H   H1574     1.0  0.17446  0.76661  0.89538  1.0000
  C   C1963     1.0  0.19832  0.75180  0.69437  1.0000
  C   C1964     1.0  0.20573  0.74819  0.52585  1.0000
  C   C1965     1.0  0.21099  0.76274  0.52382  1.0000
  H   H1575     1.0  0.20014  0.94137  0.68665  1.0000
  S   S287      1.0  0.20368  0.84506  0.62833  1.0000
  S   S288      1.0  0.10772  0.93359  0.72993  1.0000
  C   C1966     1.0  0.12551  0.95324  0.70389  1.0000
  Fe  Fe149     1.0  0.00798  0.82968  0.67395  1.0000
  C   C1967     1.0  0.18374  0.74216  0.73778  1.0000
  C   C1968     1.0  0.03023  0.77048  0.75424  1.0000
  C   C1969     1.0  0.19127  0.85754  0.69945  1.0000
  C   C1970     1.0  0.21058  0.91807  0.67922  1.0000
  H   H1576     1.0  0.22259  0.73732  0.57573  1.0000
  C   C1971     1.0  0.15380  0.84155  0.63777  1.0000
  H   H1577     1.0  0.19587  0.74836  0.52024  1.0000
  H   H1578     1.0  0.20514  0.77430  0.51669  1.0000
  H   H1579     1.0  0.09993  0.74750  0.80466  1.0000
  H   H1580     1.0  0.17800  0.85861  0.70356  1.0000
  C   C1972     1.0  0.14581  0.86724  0.78633  1.0000
  C   C1973     1.0  0.15496  0.87892  0.78469  1.0000
  C   C1974     1.0  0.16718  0.87509  0.79373  1.0000
  C   C1975     1.0  0.17019  0.85963  0.80450  1.0000
  C   C1976     1.0  0.16057  0.84804  0.80679  1.0000
  C   C1977     1.0  0.14863  0.85182  0.79726  1.0000
  P   P65       1.0  0.16538  0.82774  0.82008  1.0000
  C   C1978     1.0  0.14994  0.81583  0.82348  1.0000
  C   C1979     1.0  0.18460  0.81705  0.80896  1.0000
  C   C1980     1.0  0.18580  0.81662  0.79253  1.0000
  C   C1981     1.0  0.19978  0.80710  0.78404  1.0000
  P   P66       1.0  0.22324  0.88713  0.67024  1.0000
  C   C1982     1.0  0.19751  0.87102  0.68883  1.0000
  C   C1983     1.0  0.19789  0.80830  0.81658  1.0000
  C   C1984     1.0  0.13303  0.82290  0.82836  1.0000
  C   C1985     1.0  0.12104  0.81376  0.83087  1.0000
  C   C1986     1.0  0.12587  0.79740  0.82881  1.0000
  C   C1987     1.0  0.14269  0.79015  0.82439  1.0000
  C   C1988     1.0  0.15469  0.79922  0.82189  1.0000
  C   C1989     1.0  0.16627  0.82885  0.84045  1.0000
  C   C1990     1.0  0.16276  0.84418  0.84496  1.0000
  C   C1991     1.0  0.16408  0.84479  0.86055  1.0000
  C   C1992     1.0  0.16844  0.83014  0.87193  1.0000
  C   C1993     1.0  0.17107  0.81489  0.86788  1.0000
  C   C1994     1.0  0.16992  0.81417  0.85226  1.0000
  H   H1581     1.0  0.13694  0.87003  0.77864  1.0000
  H   H1582     1.0  0.18878  0.88220  0.68484  1.0000
  H   H1583     1.0  0.17468  0.88394  0.79207  1.0000
  H   H1584     1.0  0.18005  0.85677  0.81101  1.0000
  H   H1585     1.0  0.14178  0.84282  0.79785  1.0000
  H   H1586     1.0  0.17576  0.82338  0.78637  1.0000
  C   C1995     1.0  0.18601  0.94998  0.72062  1.0000
  H   H1587     1.0  0.19756  0.80858  0.82909  1.0000
  H   H1588     1.0  0.12915  0.83550  0.83019  1.0000
  H   H1589     1.0  0.10801  0.81929  0.83457  1.0000
  H   H1590     1.0  0.11667  0.79019  0.83089  1.0000
  H   H1591     1.0  0.14648  0.77736  0.82305  1.0000
  H   H1592     1.0  0.16764  0.79308  0.81890  1.0000
  H   H1593     1.0  0.15912  0.85576  0.83658  1.0000
  H   H1594     1.0  0.16201  0.85666  0.86370  1.0000
  H   H1595     1.0  0.16984  0.83053  0.88390  1.0000
  H   H1596     1.0  0.17416  0.80363  0.87689  1.0000
  H   H1597     1.0  0.17216  0.80215  0.84936  1.0000
  C   C1996     1.0  0.12181  0.78157  0.67198  1.0000
  C   C1997     1.0  0.12292  0.77885  0.65651  1.0000
  C   C1998     1.0  0.11525  0.76717  0.65510  1.0000
  C   C1999     1.0  0.10720  0.75748  0.66928  1.0000
  C   C2000     1.0  0.10613  0.76000  0.68494  1.0000
  C   C2001     1.0  0.11308  0.77247  0.68610  1.0000
  P   P67       1.0  0.09787  0.74618  0.70352  1.0000
  Fe  Fe150     1.0  0.22435  0.78657  0.65676  1.0000
  H   H1598     1.0  0.19078  0.77330  0.62764  1.0000
  H   H1599     1.0  0.17744  0.74116  0.91687  1.0000
  C   C2002     1.0  0.15115  0.97412  0.74528  1.0000
  H   H1600     1.0  0.19261  0.90191  0.65860  1.0000
  H   H1601     1.0  0.19648  0.75639  0.94050  1.0000
  H   H1602     1.0  0.22200  0.79187  0.81404  1.0000
  S   S289      1.0  0.22250  0.85501  0.87881  1.0000
  C   C2003     1.0  0.23270  0.82532  0.75239  1.0000
  C   C2004     1.0  0.14723  0.79268  0.60956  1.0000
  H   H1603     1.0  0.16759  0.77905  0.92219  1.0000
  C   C2005     1.0  0.18894  0.93710  0.73432  1.0000
  C   C2006     1.0  0.08632  0.75740  0.71946  1.0000
  C   C2007     1.0  0.07732  0.77374  0.71538  1.0000
  C   C2008     1.0  0.06816  0.78221  0.72786  1.0000
  C   C2009     1.0  0.06782  0.77433  0.74441  1.0000
  C   C2010     1.0  0.07639  0.75800  0.74856  1.0000
  C   C2011     1.0  0.08554  0.74950  0.73619  1.0000
  H   H1604     1.0  0.12775  0.79071  0.67295  1.0000
  H   H1605     1.0  0.13005  0.78554  0.64564  1.0000
  H   H1606     1.0  0.15269  0.83354  0.92641  1.0000
  C   C2012     1.0  0.11362  0.97522  0.80201  1.0000
  H   H1607     1.0  0.11212  0.77489  0.69793  1.0000
  H   H1608     1.0  0.15149  0.78859  0.88087  1.0000
  C   C2013     1.0  0.08406  0.73594  0.69958  1.0000
  S   S290      1.0  0.23308  0.91066  0.79421  1.0000
  H   H1609     1.0  0.00647  0.81171  0.76781  1.0000
  C   C2014     1.0  0.17240  0.92171  0.82704  1.0000
  H   H1610     1.0  0.20463  0.85283  0.91622  1.0000
  C   C2015     1.0  0.20847  0.90663  0.67154  1.0000
  C   C2016     1.0  0.16688  0.92567  0.73269  1.0000
  H   H1611     1.0  0.21980  0.83181  0.83417  1.0000
  Fe  Fe151     1.0  0.22138  0.78694  0.62225  1.0000
  H   H1612     1.0  0.07694  0.77968  0.70264  1.0000
  H   H1613     1.0  0.06091  0.79468  0.72479  1.0000
  H   H1614     1.0  0.06035  0.78046  0.75421  1.0000
  H   H1615     1.0  0.07559  0.75188  0.76145  1.0000
  H   H1616     1.0  0.21797  0.93218  0.70655  1.0000
  H   H1617     1.0  0.11588  0.76538  0.64301  1.0000
  C   C2017     1.0  0.15642  0.92936  0.83412  1.0000
  C   C2018     1.0  0.15841  0.73621  0.93863  1.0000
  C   C2019     1.0  0.23140  0.74746  0.54019  1.0000
  C   C2020     1.0  0.18105  0.73562  0.69090  1.0000
  C   C2021     1.0  0.05615  0.73359  0.70094  1.0000
  P   P68       1.0  0.08852  0.77103  0.90179  1.0000
  C   C2022     1.0  0.10862  0.77640  0.89522  1.0000
  C   C2023     1.0  0.04334  0.95944  0.77899  1.0000
  H   H1618     1.0  0.21597  0.74102  0.91538  1.0000
  C   C2024     1.0  0.17923  0.92520  0.74049  1.0000
  Fe  Fe152     1.0  0.20643  0.81755  0.63712  1.0000
  S   S291      1.0  0.19908  0.80282  0.66283  1.0000
  S   S292      1.0  0.22839  0.81094  0.86923  1.0000
  C   C2025     1.0  0.11436  0.78374  0.87860  1.0000
  C   C2026     1.0  0.12974  0.78821  0.87349  1.0000
  C   C2027     1.0  0.13949  0.78537  0.88488  1.0000
  C   C2028     1.0  0.13393  0.77805  0.90140  1.0000
  C   C2029     1.0  0.11854  0.77363  0.90659  1.0000
  C   C2030     1.0  0.07250  0.78907  0.90568  1.0000
  C   C2031     1.0  0.05692  0.78711  0.91573  1.0000
  C   C2032     1.0  0.04447  0.80098  0.91894  1.0000
  C   C2033     1.0  0.04746  0.81691  0.91214  1.0000
  C   C2034     1.0  0.06292  0.81897  0.90212  1.0000
  C   C2035     1.0  0.07541  0.80512  0.89887  1.0000
  H   H1619     1.0  0.21992  0.85888  0.72334  1.0000
  C   C2036     1.0  0.10125  0.73537  0.81282  1.0000
  H   H1620     1.0  0.17049  0.75754  0.87221  1.0000
  H   H1621     1.0  0.19967  0.76311  0.69657  1.0000
  H   H1622     1.0  0.15200  0.97450  0.73243  1.0000
  C   C2037     1.0  0.14046  0.73439  0.91680  1.0000
  C   C2038     1.0  0.20209  0.84286  0.70498  1.0000
  C   C2039     1.0  0.22116  0.75941  0.93792  1.0000
  C   C2040     1.0  0.13085  0.97907  0.70567  1.0000
  C   C2041     1.0  0.22707  0.85089  0.73223  1.0000
  H   H1623     1.0  0.10703  0.78586  0.86957  1.0000
  H   H1624     1.0  0.13431  0.79355  0.86064  1.0000
  H   H1625     1.0  0.15306  0.89067  0.77588  1.0000
  C   C2042     1.0  0.19859  0.93273  0.68052  1.0000
  H   H1626     1.0  0.11474  0.76762  0.91936  1.0000
  H   H1627     1.0  0.14015  0.79995  0.97333  1.0000
  C   C2043     1.0  0.02325  0.79487  0.63465  1.0000
  C   C2044     1.0  0.21198  0.73458  0.89479  1.0000
  H   H1628     1.0  0.06525  0.83132  0.89691  1.0000
  H   H1629     1.0  0.08729  0.80702  0.89115  1.0000
  H   H1630     1.0  0.17047  0.96028  0.70258  1.0000
  C   C2045     1.0  0.99868  0.75520  0.62154  1.0000
  S   S293      1.0  0.16907  0.77608  0.65961  1.0000
  H   H1631     1.0  0.07631  0.93587  0.75732  1.0000
  S   S294      1.0  0.21893  0.90003  0.73248  1.0000
  H   H1632     1.0  0.03325  0.73630  0.65535  1.0000
  H   H1633     1.0  0.18177  0.91520  0.75092  1.0000
  H   H1634     1.0  0.19909  0.93590  0.73995  1.0000
  C   C2046     1.0  0.99480  0.79999  0.63221  1.0000
  H   H1635     1.0  0.21755  0.80551  0.69166  1.0000
  C   C2047     1.0  0.22784  0.87031  0.64532  1.0000
  C   C2048     1.0  0.15641  0.73737  0.91080  1.0000
  C   C2049     1.0  0.00719  0.76094  0.66503  1.0000
  C   C2050     1.0  0.01492  0.76773  0.67312  1.0000
  P   P69       1.0  0.01015  0.76671  0.64275  1.0000
  C   C2051     1.0  0.14369  0.84579  0.96412  1.0000
  C   C2052     1.0  0.03043  0.75603  0.63366  1.0000
  C   C2053     1.0  0.03802  0.76240  0.61733  1.0000
  C   C2054     1.0  0.21075  0.97190  0.67811  1.0000
  H   H1636     1.0  0.21350  0.89750  0.82920  1.0000
  Fe  Fe153     1.0  0.22427  0.92990  0.77302  1.0000
  C   C2055     1.0  0.08000  0.75109  0.86106  1.0000
  H   H1637     1.0  0.08137  0.97801  0.69244  1.0000
  C   C2056     1.0  0.17321  0.95061  0.71313  1.0000
  H   H1638     1.0  0.11192  0.78377  0.60757  1.0000
  H   H1639     1.0  0.12620  0.86733  0.97129  1.0000
  H   H1640     1.0  0.19303  0.85492  0.83787  1.0000
  C   C2057     1.0  0.99912  0.75153  0.79958  1.0000
  H   H1641     1.0  0.16133  0.85343  0.90052  1.0000
  C   C2058     1.0  0.05882  0.97686  0.75613  1.0000
  H   H1642     1.0  0.17899  0.75060  0.49281  1.0000
  H   H1643     1.0  0.02226  0.77682  0.66632  1.0000
  H   H1644     1.0  0.03193  0.77380  0.61019  1.0000
  Fe  Fe154     1.0  0.14018  0.73565  0.84225  1.0000
  H   H1645     1.0  0.01135  0.75268  0.61467  1.0000
  C   C2059     1.0  0.22368  0.83541  0.74067  1.0000
  C   C2060     1.0  0.16902  0.73691  0.74069  1.0000
  H   H1646     1.0  0.23478  0.79840  0.71240  1.0000
  C   C2061     1.0  0.06178  0.73952  0.61908  1.0000
  C   C2062     1.0  0.01346  0.76264  0.69021  1.0000
  H   H1647     1.0  0.14175  0.77538  0.91013  1.0000
  H   H1648     1.0  0.22342  0.88589  0.85532  1.0000
  H   H1649     1.0  0.15979  0.91606  0.73707  1.0000
  C   C2063     1.0  0.15396  0.74853  0.74100  1.0000
  C   C2064     1.0  0.08504  0.76356  0.88567  1.0000
  C   C2065     1.0  0.14951  0.95885  0.77366  1.0000
  C   C2066     1.0  0.18343  0.75901  0.73532  1.0000
  C   C2067     1.0  0.16831  0.77077  0.73570  1.0000
  C   C2068     1.0  0.15364  0.76540  0.73841  1.0000
  P   P70       1.0  0.16740  0.79263  0.73280  1.0000
  C   C2069     1.0  0.15574  0.80371  0.71700  1.0000
  C   C2070     1.0  0.15800  0.79977  0.75181  1.0000
  C   C2071     1.0  0.14941  0.79001  0.76567  1.0000
  C   C2072     1.0  0.14232  0.79576  0.78026  1.0000
  C   C2073     1.0  0.14381  0.81123  0.78116  1.0000
  C   C2074     1.0  0.15248  0.82093  0.76751  1.0000
  C   C2075     1.0  0.15955  0.81525  0.75289  1.0000
  C   C2076     1.0  0.15887  0.79776  0.70259  1.0000
  C   C2077     1.0  0.15024  0.80637  0.69012  1.0000
  C   C2078     1.0  0.13826  0.82088  0.69202  1.0000
  C   C2079     1.0  0.13477  0.82669  0.70646  1.0000
  C   C2080     1.0  0.14350  0.81820  0.71889  1.0000
  C   C2081     1.0  0.18832  0.79585  0.72632  1.0000
  C   C2082     1.0  0.19796  0.79228  0.73813  1.0000
  C   C2083     1.0  0.21464  0.79329  0.73314  1.0000
  C   C2084     1.0  0.22179  0.79784  0.71637  1.0000
  C   C2085     1.0  0.21216  0.80171  0.70464  1.0000
  C   C2086     1.0  0.19552  0.80074  0.70954  1.0000
  C   C2087     1.0  0.08435  0.74776  0.95066  1.0000
  S   S295      1.0  0.13321  0.73656  0.58978  1.0000
  C   C2088     1.0  0.22911  0.83410  0.79272  1.0000
  H   H1650     1.0  0.19503  0.76268  0.73309  1.0000
  H   H1651     1.0  0.14195  0.77433  0.73881  1.0000
  H   H1652     1.0  0.14821  0.77792  0.76540  1.0000
  H   H1653     1.0  0.13572  0.78816  0.79091  1.0000
  H   H1654     1.0  0.13817  0.81573  0.79241  1.0000
  H   H1655     1.0  0.15356  0.83300  0.76809  1.0000
  H   H1656     1.0  0.16607  0.82306  0.74237  1.0000
  H   H1657     1.0  0.16833  0.78674  0.70075  1.0000
  H   H1658     1.0  0.15306  0.80194  0.67884  1.0000
  H   H1659     1.0  0.13183  0.82778  0.68222  1.0000
  H   H1660     1.0  0.12545  0.83797  0.70788  1.0000
  H   H1661     1.0  0.14072  0.82315  0.72978  1.0000
  H   H1662     1.0  0.19270  0.78829  0.75114  1.0000
  C   C2089     1.0  0.18445  0.93615  0.67417  1.0000
  H   H1663     1.0  0.00311  0.74697  0.71264  1.0000
  H   H1664     1.0  0.18849  0.80378  0.70011  1.0000
  C   C2090     1.0  0.11598  0.84104  0.75735  1.0000
  C   C2091     1.0  0.11265  0.84641  0.77200  1.0000
  C   C2092     1.0  0.10044  0.84099  0.78539  1.0000
  C   C2093     1.0  0.09147  0.83030  0.78406  1.0000
  C   C2094     1.0  0.09491  0.82464  0.76943  1.0000
  C   C2095     1.0  0.10717  0.83022  0.75604  1.0000
  P   P71       1.0  0.08212  0.81221  0.76720  1.0000
  C   C2096     1.0  0.09384  0.79919  0.75273  1.0000
  C   C2097     1.0  0.07574  0.79847  0.78675  1.0000
  C   C2098     1.0  0.06103  0.79286  0.79019  1.0000
  C   C2099     1.0  0.05728  0.78054  0.80424  1.0000
  C   C2100     1.0  0.06811  0.77373  0.81499  1.0000
  C   C2101     1.0  0.08270  0.77931  0.81177  1.0000
  C   C2102     1.0  0.08659  0.79153  0.79766  1.0000
  C   C2103     1.0  0.09718  0.80604  0.73567  1.0000
  C   C2104     1.0  0.10652  0.79603  0.72453  1.0000
  C   C2105     1.0  0.11226  0.77906  0.73032  1.0000
  C   C2106     1.0  0.10866  0.77209  0.74720  1.0000
  C   C2107     1.0  0.09962  0.78207  0.75837  1.0000
  C   C2108     1.0  0.06431  0.82579  0.75961  1.0000
  C   C2109     1.0  0.05961  0.84258  0.76049  1.0000
  C   C2110     1.0  0.04598  0.85299  0.75431  1.0000
  C   C2111     1.0  0.03688  0.84672  0.74729  1.0000
  C   C2112     1.0  0.04146  0.83006  0.74634  1.0000
  C   C2113     1.0  0.05519  0.81971  0.75234  1.0000
  H   H1665     1.0  0.12508  0.84567  0.74679  1.0000
  H   H1666     1.0  0.11931  0.85506  0.77274  1.0000
  H   H1667     1.0  0.09761  0.84546  0.79661  1.0000
  H   H1668     1.0  0.08158  0.82679  0.79429  1.0000
  H   H1669     1.0  0.10961  0.82683  0.74434  1.0000
  H   H1670     1.0  0.05266  0.79745  0.78184  1.0000
  H   H1671     1.0  0.04621  0.77583  0.80645  1.0000
  H   H1672     1.0  0.06542  0.76379  0.82555  1.0000
  H   H1673     1.0  0.09135  0.77360  0.81986  1.0000
  H   H1674     1.0  0.09839  0.79499  0.79490  1.0000
  H   H1675     1.0  0.09276  0.81915  0.73099  1.0000
  H   H1676     1.0  0.10929  0.80145  0.71142  1.0000
  H   H1677     1.0  0.11959  0.77125  0.72183  1.0000
  H   H1678     1.0  0.11273  0.75887  0.75168  1.0000
  H   H1679     1.0  0.09707  0.77620  0.77134  1.0000
  H   H1680     1.0  0.06663  0.84785  0.76552  1.0000
  H   H1681     1.0  0.04268  0.86602  0.75461  1.0000
  H   H1682     1.0  0.02646  0.85481  0.74228  1.0000
  H   H1683     1.0  0.05877  0.80703  0.75114  1.0000
  C   C2114     1.0  0.12817  0.85709  0.62091  1.0000
  C   C2115     1.0  0.12905  0.84065  0.62995  1.0000
  P   P72       1.0  0.11371  0.82948  0.63095  1.0000
  C   C2116     1.0  0.12298  0.81224  0.62072  1.0000
  C   C2117     1.0  0.10397  0.82245  0.65234  1.0000
  C   C2118     1.0  0.10566  0.82917  0.66473  1.0000
  C   C2119     1.0  0.09731  0.82451  0.68109  1.0000
  C   C2120     1.0  0.08680  0.81354  0.68518  1.0000
  C   C2121     1.0  0.08466  0.80718  0.67289  1.0000
  C   C2122     1.0  0.09314  0.81163  0.65656  1.0000
  C   C2123     1.0  0.14031  0.80665  0.61646  1.0000
  S   S296      1.0  0.21866  0.81157  0.90884  1.0000
  C   C2124     1.0  0.19446  0.91043  0.66475  1.0000
  C   C2125     1.0  0.11983  0.79012  0.61016  1.0000
  C   C2126     1.0  0.11283  0.80404  0.61711  1.0000
  C   C2127     1.0  0.09734  0.84311  0.62120  1.0000
  C   C2128     1.0  0.08314  0.85173  0.63055  1.0000
  C   C2129     1.0  0.07028  0.86196  0.62312  1.0000
  C   C2130     1.0  0.07156  0.86384  0.60624  1.0000
  C   C2131     1.0  0.08578  0.85554  0.59677  1.0000
  C   C2132     1.0  0.09866  0.84523  0.60420  1.0000
  H   H1684     1.0  0.11836  0.86339  0.61434  1.0000
  H   H1685     1.0  0.14280  0.82031  0.64558  1.0000
  H   H1686     1.0  0.11282  0.83853  0.66178  1.0000
  H   H1687     1.0  0.09836  0.83008  0.69046  1.0000
  H   H1688     1.0  0.07990  0.81045  0.69775  1.0000
  H   H1689     1.0  0.07621  0.79896  0.67588  1.0000
  H   H1690     1.0  0.09094  0.80675  0.64732  1.0000
  H   H1691     1.0  0.14867  0.81278  0.61853  1.0000
  H   H1692     1.0  0.23303  0.74215  0.59734  1.0000
  H   H1693     1.0  0.13237  0.74731  0.70243  1.0000
  C   C2133     1.0  0.22046  0.83766  0.80808  1.0000
  H   H1694     1.0  0.09948  0.80833  0.61963  1.0000
  H   H1695     1.0  0.08185  0.85056  0.64364  1.0000
  H   H1696     1.0  0.05928  0.86833  0.63058  1.0000
  H   H1697     1.0  0.06152  0.87173  0.60054  1.0000
  H   H1698     1.0  0.08677  0.85702  0.58368  1.0000
  H   H1699     1.0  0.10959  0.83888  0.59670  1.0000
  C   C2134     1.0  0.19318  0.84873  0.91861  1.0000
  C   C2135     1.0  0.18346  0.85439  0.90679  1.0000
  C   C2136     1.0  0.16886  0.84893  0.90967  1.0000
  C   C2137     1.0  0.16404  0.83767  0.92431  1.0000
  C   C2138     1.0  0.17382  0.83183  0.93620  1.0000
  C   C2139     1.0  0.18837  0.83755  0.93331  1.0000
  P   P73       1.0  0.16707  0.81782  0.95532  1.0000
  C   C2140     1.0  0.15946  0.80228  0.95091  1.0000
  H   H1700     1.0  0.13909  0.96900  0.68379  1.0000
  H   H1701     1.0  0.11012  0.74919  0.88023  1.0000
  S   S297      1.0  0.23177  0.77831  0.59833  1.0000
  C   C2141     1.0  0.22648  0.82910  0.82227  1.0000
  H   H1702     1.0  0.08684  0.74293  0.63923  1.0000
  H   H1703     1.0  0.15016  0.92339  0.84611  1.0000
  H   H1704     1.0  0.22210  0.96301  0.68003  1.0000
  H   H1705     1.0  0.05972  0.75933  0.59766  1.0000
  C   C2142     1.0  0.14785  0.77812  0.94392  1.0000
  C   C2143     1.0  0.16136  0.78409  0.93307  1.0000
  C   C2144     1.0  0.16714  0.79616  0.93649  1.0000
  C   C2145     1.0  0.22035  0.95393  0.71288  1.0000
  H   H1706     1.0  0.98986  0.80289  0.67328  1.0000
  C   C2146     1.0  0.17281  0.94468  0.80321  1.0000
  H   H1707     1.0  0.23038  0.88881  0.70092  1.0000
  H   H1708     1.0  0.19107  0.75870  0.60681  1.0000
  H   H1709     1.0  0.22214  0.79028  0.74222  1.0000
  C   C2147     1.0  0.21921  0.84149  0.69956  1.0000
  C   C2148     1.0  0.20888  0.73823  0.95856  1.0000
  H   H1710     1.0  0.17188  0.75971  0.69666  1.0000
  S   S298      1.0  0.18920  0.75845  0.83889  1.0000
  H   H1711     1.0  0.17850  0.90984  0.83347  1.0000
  H   H1712     1.0  0.16201  0.86454  0.62821  1.0000
  P   P74       1.0  0.14724  0.97285  0.79996  1.0000
  S   S299      1.0  0.23257  0.88232  0.77496  1.0000
  H   H1713     1.0  0.08063  0.96336  0.74167  1.0000
  H   H1714     1.0  0.16057  0.78827  0.60661  1.0000
  Fe  Fe155     1.0  0.21463  0.89731  0.79261  1.0000
  H   H1715     1.0  0.03341  0.81650  0.62911  1.0000
  H   H1716     1.0  0.04287  0.73816  0.70421  1.0000
  H   H1717     1.0  0.22704  0.97313  0.71982  1.0000
  H   H1718     1.0  0.13012  0.77898  0.96700  1.0000
  H   H1719     1.0  0.21926  0.97699  0.65162  1.0000
  H   H1720     1.0  0.14987  0.94843  0.75353  1.0000
  C   C2149     1.0  0.14028  0.78398  0.95835  1.0000
  H   H1721     1.0  0.22132  0.91577  0.68430  1.0000
  H   H1722     1.0  0.23121  0.91027  0.63891  1.0000
  H   H1723     1.0  0.17944  0.95051  0.79132  1.0000
  C   C2150     1.0  0.08508  0.75979  0.93589  1.0000
  H   H1724     1.0  0.08413  0.77252  0.93621  1.0000
  S   S300      1.0  0.21607  0.76949  0.64682  1.0000
  C   C2151     1.0  0.22531  0.97601  0.80434  1.0000
  H   H1725     1.0  0.10201  0.74801  0.66787  1.0000
  C   C2152     1.0  0.08884  0.73868  0.92078  1.0000
  H   H1726     1.0  0.14873  0.94733  0.78269  1.0000
  H   H1727     1.0  0.00392  0.75329  0.80916  1.0000
  C   C2153     1.0  0.21319  0.73331  0.53515  1.0000
  S   S301      1.0  0.17100  0.73740  0.60635  1.0000
  C   C2154     1.0  0.99663  0.73343  0.78382  1.0000
  C   C2155     1.0  0.07001  0.96254  0.75189  1.0000
  H   H1728     1.0  0.00750  0.83621  0.62315  1.0000
  C   C2156     1.0  0.19771  0.97544  0.69152  1.0000
  C   C2157     1.0  0.09669  0.97913  0.80914  1.0000
  C   C2158     1.0  0.09803  0.75288  0.87725  1.0000
  C   C2159     1.0  0.00432  0.75074  0.69940  1.0000
  H   H1729     1.0  0.22479  0.85980  0.65495  1.0000
  C   C2160     1.0  0.06766  0.94683  0.76089  1.0000
  S   S302      1.0  0.12244  0.74538  0.82486  1.0000
  Fe  Fe156     1.0  0.11055  0.74112  0.60984  1.0000
  H   H1730     1.0  0.09162  0.73668  0.73986  1.0000
  Fe  Fe157     1.0  0.22962  0.82717  0.88491  1.0000
  H   H1731     1.0  0.01957  0.76791  0.69627  1.0000
  C   C2161     1.0  0.21233  0.73941  0.69070  1.0000
  H   H1732     1.0  0.23326  0.73450  0.84263  1.0000
  C   C2162     1.0  0.03874  0.74135  0.64269  1.0000
  H   H1733     1.0  0.21391  0.83138  0.73823  1.0000
  C   C2163     1.0  0.15940  0.74568  0.63681  1.0000
  H   H1734     1.0  0.05915  0.77617  0.88780  1.0000
  C   C2164     1.0  0.22619  0.93820  0.70908  1.0000
  H   H1735     1.0  0.03308  0.95822  0.78956  1.0000
  H   H1736     1.0  0.11745  0.97030  0.79097  1.0000
  C   C2165     1.0  0.00927  0.78876  0.63605  1.0000
  H   H1737     1.0  0.05441  0.77483  0.92109  1.0000
  C   C2166     1.0  0.15680  0.95257  0.81036  1.0000
  C   C2167     1.0  0.22387  0.76236  0.53093  1.0000
  C   C2168     1.0  0.15015  0.95941  0.75716  1.0000
  C   C2169     1.0  0.23520  0.88240  0.61610  1.0000
  S   S303      1.0  0.22039  0.95791  0.76733  1.0000
  C   C2170     1.0  0.06698  0.76184  0.86924  1.0000
  H   H1738     1.0  0.99017  0.79665  0.72136  1.0000
  H   H1739     1.0  0.01634  0.73508  0.74941  1.0000
  C   C2171     1.0  0.22771  0.88519  0.64910  1.0000
  C   C2172     1.0  0.12237  0.97667  0.72219  1.0000
  H   H1740     1.0  0.22338  0.79033  0.78541  1.0000
  H   H1741     1.0  0.22645  0.95177  0.80064  1.0000
  H   H1742     1.0  0.10549  0.73812  0.85893  1.0000
  H   H1743     1.0  0.19128  0.78574  0.95504  1.0000
  H   H1744     1.0  0.22777  0.97126  0.81661  1.0000
  C   C2173     1.0  0.14954  0.97317  0.77845  1.0000
  H   H1745     1.0  0.15132  0.73723  0.63981  1.0000
  H   H1746     1.0  0.19415  0.96043  0.74828  1.0000
  H   H1747     1.0  0.07815  0.74607  0.85165  1.0000
  C   C2174     1.0  0.22454  0.96495  0.79534  1.0000
  C   C2175     1.0  0.23124  0.96113  0.71663  1.0000
  H   H1748     1.0  0.22804  0.77361  0.52927  1.0000
  C   C2176     1.0  0.14233  0.73347  0.94470  1.0000
  H   H1749     1.0  0.22352  0.84217  0.95041  1.0000
  C   C2177     1.0  0.23126  0.83002  0.95372  1.0000
  H   H1750     1.0  0.23401  0.82376  0.93043  1.0000
  C   C2178     1.0  0.15132  0.82912  0.96942  1.0000
  H   H1751     1.0  0.17917  0.97157  0.80786  1.0000
  C   C2179     1.0  0.99843  0.74857  0.67433  1.0000
  H   H1752     1.0  0.23559  0.86237  0.82367  1.0000
  C   C2180     1.0  0.22585  0.73290  0.54264  1.0000
  C   C2181     1.0  0.23516  0.82473  0.96936  1.0000
  C   C2182     1.0  0.23572  0.75344  0.94391  1.0000
  C   C2183     1.0  0.99005  0.76505  0.79011  1.0000
  H   H1753     1.0  0.99291  0.74262  0.66839  1.0000
  C   C2184     1.0  0.99681  0.74368  0.69147  1.0000
  H   H1754     1.0  0.06354  0.97908  0.72012  1.0000
  H   H1755     1.0  0.07403  0.73345  0.61346  1.0000
  H   H1756     1.0  0.08773  0.97730  0.80352  1.0000
  C   C2185     1.0  0.19224  0.97355  0.74283  1.0000
  C   C2186     1.0  0.23690  0.73987  0.95744  1.0000
  H   H1757     1.0  0.98966  0.74718  0.60481  1.0000
  H   H1758     1.0  0.19854  0.73224  0.96409  1.0000
  H   H1759     1.0  0.23792  0.88129  0.60338  1.0000
  C   C2187     1.0  0.13329  0.73276  0.93373  1.0000
  C   C2188     1.0  0.22320  0.73249  0.96490  1.0000
  C   C2189     1.0  0.23713  0.81957  0.94243  1.0000
  C   C2190     1.0  0.23495  0.89731  0.61976  1.0000
  H   H1760     1.0  0.98981  0.73436  0.69861  1.0000
  C   C2191     1.0  0.21200  0.73216  0.91141  1.0000
  S   S304      1.0  0.12946  0.73243  0.90337  1.0000
  C   C2192     1.0  0.05441  0.73315  0.63539  1.0000
  H   H1761     1.0  0.19543  0.73313  0.73750  1.0000
  C   C2193     1.0  0.19352  0.97948  0.72575  1.0000
  H   H1762     1.0  0.23755  0.90780  0.60985  1.0000
  H   H1763     1.0  0.18824  0.97985  0.76628  1.0000
  C   C2194     1.0  0.29711  0.01518  0.20249  1.0000
  C   C2195     1.0  0.31393  0.18546  0.46179  1.0000
  S   S305      1.0  0.25768  0.10466  0.31612  1.0000
  C   C2196     1.0  0.25306  0.21192  0.33302  1.0000
  Fe  Fe158     1.0  0.30134  0.17225  0.40307  1.0000
  S   S306      1.0  0.28883  0.19744  0.39081  1.0000
  S   S307      1.0  0.31564  0.16662  0.42309  1.0000
  Fe  Fe159     1.0  0.29209  0.15472  0.38136  1.0000
  S   S308      1.0  0.27826  0.17851  0.36800  1.0000
  S   S309      1.0  0.29858  0.13111  0.37218  1.0000
  Fe  Fe160     1.0  0.29987  0.18880  0.36693  1.0000
  S   S310      1.0  0.31113  0.20460  0.34293  1.0000
  Fe  Fe161     1.0  0.26866  0.18460  0.39304  1.0000
  C   C2197     1.0  0.29562  0.06159  0.05466  1.0000
  S   S311      1.0  0.31417  0.16474  0.37906  1.0000
  S   S312      1.0  0.28050  0.15977  0.40669  1.0000
  Fe  Fe162     1.0  0.42560  0.19284  0.25981  1.0000
  S   S313      1.0  0.40783  0.20448  0.28000  1.0000
  S   S314      1.0  0.45367  0.18731  0.25667  1.0000
  Fe  Fe163     1.0  0.39746  0.18881  0.24671  1.0000
  S   S315      1.0  0.37769  0.20023  0.26597  1.0000
  S   S316      1.0  0.38814  0.18330  0.22712  1.0000
  Fe  Fe164     1.0  0.39329  0.21877  0.26068  1.0000
  C   C2198     1.0  0.28021  0.01670  0.20403  1.0000
  Fe  Fe165     1.0  0.39382  0.18501  0.28347  1.0000
  S   S317      1.0  0.38333  0.17111  0.30873  1.0000
  S   S318      1.0  0.41205  0.20876  0.23995  1.0000
  S   S319      1.0  0.41260  0.17188  0.26474  1.0000
  Fe  Fe166     1.0  0.29661  0.01939  0.13054  1.0000
  S   S320      1.0  0.27859  0.03998  0.11810  1.0000
  H   H1764     1.0  0.32453  0.20736  0.99019  1.0000
  Fe  Fe167     1.0  0.30288  0.04226  0.14927  1.0000
  S   S321      1.0  0.28467  0.06402  0.13868  1.0000
  S   S322      1.0  0.31336  0.04418  0.16979  1.0000
  Fe  Fe168     1.0  0.26861  0.04599  0.14319  1.0000
  C   C2199     1.0  0.25448  0.22644  0.15328  1.0000
  Fe  Fe169     1.0  0.29671  0.05577  0.11480  1.0000
  S   S323      1.0  0.30718  0.07362  0.09211  1.0000
  S   S324      1.0  0.28586  0.02485  0.15576  1.0000
  S   S325      1.0  0.31581  0.03460  0.12528  1.0000
  Fe  Fe170     1.0  0.29764  0.16475  0.01416  1.0000
  S   S326      1.0  0.27653  0.16763  0.03593  1.0000
  S   S327      1.0  0.32414  0.16542  0.01211  1.0000
  Fe  Fe171     1.0  0.27582  0.16186  0.99268  1.0000
  S   S328      1.0  0.25283  0.16473  0.01283  1.0000
  Fe  Fe172     1.0  0.26219  0.18456  0.01730  1.0000
  C   C2200     1.0  0.26911  0.07654  0.00599  1.0000
  Fe  Fe173     1.0  0.26918  0.14738  0.02973  1.0000
  S   S329      1.0  0.25895  0.12750  0.05021  1.0000
  S   S330      1.0  0.28399  0.18316  0.99596  1.0000
  S   S331      1.0  0.29157  0.14296  0.00920  1.0000
  Fe  Fe174     1.0  0.35362  0.11762  0.21375  1.0000
  S   S332      1.0  0.32865  0.13465  0.21775  1.0000
  S   S333      1.0  0.37055  0.11540  0.23043  1.0000
  Fe  Fe175     1.0  0.34828  0.10854  0.18421  1.0000
  S   S334      1.0  0.32323  0.12534  0.18552  1.0000
  S   S335      1.0  0.35736  0.09431  0.16387  1.0000
  Fe  Fe176     1.0  0.33449  0.14343  0.19042  1.0000
  S   S336      1.0  0.32568  0.17042  0.18020  1.0000
  Fe  Fe177     1.0  0.31944  0.11513  0.21259  1.0000
  S   S337      1.0  0.29410  0.11052  0.22474  1.0000
  S   S338      1.0  0.36031  0.12772  0.18643  1.0000
  S   S339      1.0  0.34380  0.09683  0.21133  1.0000
  H   H1765     1.0  0.25321  0.99674  0.19228  1.0000
  C   C2201     1.0  0.35751  0.22598  0.17439  1.0000
  H   H1766     1.0  0.34425  0.19942  0.45383  1.0000
  Fe  Fe178     1.0  0.26637  0.07881  0.31202  1.0000
  S   S340      1.0  0.29258  0.07152  0.29826  1.0000
  H   H1767     1.0  0.27376  0.99938  0.05239  1.0000
  H   H1768     1.0  0.33023  0.08203  0.30869  1.0000
  Fe  Fe179     1.0  0.34884  0.21950  0.05867  1.0000
  S   S341      1.0  0.33471  0.20494  0.08118  1.0000
  S   S342      1.0  0.35293  0.21493  0.03323  1.0000
  Fe  Fe180     1.0  0.35483  0.20517  0.09297  1.0000
  S   S343      1.0  0.36915  0.18376  0.10837  1.0000
  S   S344      1.0  0.37013  0.21756  0.06992  1.0000
  C   C2202     1.0  0.33815  0.17525  0.16058  1.0000
  C   C2203     1.0  0.33102  0.18607  0.14782  1.0000
  C   C2204     1.0  0.34062  0.18891  0.13174  1.0000
  C   C2205     1.0  0.35744  0.18116  0.12856  1.0000
  C   C2206     1.0  0.36469  0.17071  0.14143  1.0000
  C   C2207     1.0  0.35500  0.16771  0.15745  1.0000
  H   H1769     1.0  0.31799  0.19173  0.15031  1.0000
  H   H1770     1.0  0.33490  0.19664  0.12174  1.0000
  H   H1771     1.0  0.37772  0.16477  0.13896  1.0000
  H   H1772     1.0  0.36063  0.15971  0.16738  1.0000
  C   C2208     1.0  0.29393  0.09959  0.24504  1.0000
  C   C2209     1.0  0.27966  0.10274  0.25724  1.0000
  C   C2210     1.0  0.27958  0.09464  0.27370  1.0000
  C   C2211     1.0  0.29351  0.08288  0.27792  1.0000
  C   C2212     1.0  0.30778  0.07965  0.26567  1.0000
  C   C2213     1.0  0.30812  0.08830  0.24927  1.0000
  H   H1773     1.0  0.26887  0.11189  0.25409  1.0000
  H   H1774     1.0  0.26871  0.09766  0.28307  1.0000
  H   H1775     1.0  0.31848  0.07036  0.26882  1.0000
  H   H1776     1.0  0.31924  0.08598  0.23990  1.0000
  C   C2214     1.0  0.33103  0.17926  0.01909  1.0000
  C   C2215     1.0  0.34653  0.18272  0.01075  1.0000
  C   C2216     1.0  0.35292  0.19355  0.01543  1.0000
  C   C2217     1.0  0.34427  0.20060  0.02898  1.0000
  C   C2218     1.0  0.32895  0.19671  0.03793  1.0000
  C   C2219     1.0  0.32219  0.18621  0.03280  1.0000
  H   H1777     1.0  0.35354  0.17726  0.00032  1.0000
  H   H1778     1.0  0.36472  0.19645  0.00848  1.0000
  H   H1779     1.0  0.32209  0.20224  0.04834  1.0000
  H   H1780     1.0  0.31025  0.18349  0.03939  1.0000
  H   H1781     1.0  0.25589  0.01636  0.16517  1.0000
  C   C2220     1.0  0.32441  0.05965  0.16656  1.0000
  C   C2221     1.0  0.32032  0.06945  0.17823  1.0000
  C   C2222     1.0  0.32978  0.08088  0.17680  1.0000
  C   C2223     1.0  0.34414  0.08172  0.16438  1.0000
  C   C2224     1.0  0.34835  0.07185  0.15273  1.0000
  C   C2225     1.0  0.33834  0.06103  0.15365  1.0000
  H   H1782     1.0  0.31008  0.06790  0.18867  1.0000
  H   H1783     1.0  0.32645  0.08843  0.18585  1.0000
  H   H1784     1.0  0.35954  0.07233  0.14317  1.0000
  H   H1785     1.0  0.34190  0.05309  0.14492  1.0000
  C   C2226     1.0  0.29368  0.08860  0.08063  1.0000
  C   C2227     1.0  0.27658  0.08973  0.08533  1.0000
  C   C2228     1.0  0.26609  0.10168  0.07581  1.0000
  C   C2229     1.0  0.27259  0.11270  0.06173  1.0000
  C   C2230     1.0  0.28971  0.11161  0.05704  1.0000
  C   C2231     1.0  0.30023  0.09957  0.06649  1.0000
  H   H1786     1.0  0.27150  0.08136  0.09626  1.0000
  H   H1787     1.0  0.25287  0.10245  0.07936  1.0000
  H   H1788     1.0  0.29485  0.11994  0.04607  1.0000
  H   H1789     1.0  0.31348  0.09865  0.06276  1.0000
  H   H1790     1.0  0.36877  0.20886  0.33867  1.0000
  C   C2232     1.0  0.27641  0.04960  0.27583  1.0000
  H   H1791     1.0  0.24401  0.99901  0.05915  1.0000
  H   H1792     1.0  0.25667  0.99628  0.24243  1.0000
  C   C2233     1.0  0.24966  0.21026  0.97518  1.0000
  C   C2234     1.0  0.38205  0.16458  0.22976  1.0000
  C   C2235     1.0  0.38867  0.14987  0.23993  1.0000
  C   C2236     1.0  0.38485  0.13484  0.24031  1.0000
  C   C2237     1.0  0.37429  0.13450  0.23067  1.0000
  C   C2238     1.0  0.36727  0.14932  0.22092  1.0000
  C   C2239     1.0  0.37117  0.16427  0.22046  1.0000
  H   H1793     1.0  0.39717  0.14997  0.24704  1.0000
  H   H1794     1.0  0.39035  0.12342  0.24785  1.0000
  H   H1795     1.0  0.35919  0.14923  0.21337  1.0000
  H   H1796     1.0  0.36602  0.17560  0.21255  1.0000
  H   H1797     1.0  0.25729  0.20068  0.16590  1.0000
  C   C2240     1.0  0.28240  0.12398  0.36959  1.0000
  C   C2241     1.0  0.26610  0.12865  0.37822  1.0000
  C   C2242     1.0  0.45076  0.18717  0.31504  1.0000
  H   H1798     1.0  0.24724  0.15552  0.26766  1.0000
  C   C2243     1.0  0.27330  0.10735  0.35656  1.0000
  C   C2244     1.0  0.28600  0.11320  0.35889  1.0000
  C   C2245     1.0  0.46791  0.22016  0.33546  1.0000
  C   C2246     1.0  0.34634  0.21551  0.18113  1.0000
  H   H1799     1.0  0.27613  0.09916  0.34817  1.0000
  H   H1800     1.0  0.29862  0.10949  0.35227  1.0000
  C   C2247     1.0  0.33082  0.19511  0.33263  1.0000
  C   C2248     1.0  0.33741  0.17822  0.33779  1.0000
  C   C2249     1.0  0.35340  0.17098  0.33023  1.0000
  C   C2250     1.0  0.36297  0.18051  0.31727  1.0000
  C   C2251     1.0  0.35631  0.19734  0.31167  1.0000
  C   C2252     1.0  0.34024  0.20462  0.31935  1.0000
  H   H1801     1.0  0.33017  0.17058  0.34746  1.0000
  H   H1802     1.0  0.35829  0.15792  0.33437  1.0000
  H   H1803     1.0  0.36366  0.20482  0.30170  1.0000
  H   H1804     1.0  0.33525  0.21770  0.31521  1.0000
  C   C2253     1.0  0.48032  0.21053  0.28103  1.0000
  C   C2254     1.0  0.25687  0.21907  0.30328  1.0000
  H   H1805     1.0  0.30195  0.21557  0.13576  1.0000
  C   C2255     1.0  0.46369  0.19662  0.26593  1.0000
  C   C2256     1.0  0.45487  0.20907  0.27455  1.0000
  C   C2257     1.0  0.46312  0.21592  0.28211  1.0000
  H   H1806     1.0  0.27591  0.06211  0.27642  1.0000
  H   H1807     1.0  0.24816  0.12208  0.09854  1.0000
  H   H1808     1.0  0.44169  0.21337  0.27533  1.0000
  C   C2258     1.0  0.26625  0.09934  0.01857  1.0000
  C   C2259     1.0  0.37289  0.11822  0.01916  1.0000
  H   H1809     1.0  0.41982  0.22458  0.35947  1.0000
  H   H1810     1.0  0.27081  0.07191  0.99505  1.0000
  H   H1811     1.0  0.36040  0.00339  0.22542  1.0000
  H   H1812     1.0  0.28017  0.00979  0.10577  1.0000
  H   H1813     1.0  0.33689  0.07832  0.28000  1.0000
  H   H1814     1.0  0.26986  0.10567  0.11400  1.0000
  H   H1815     1.0  0.34136  0.07619  0.09255  1.0000
  H   H1816     1.0  0.43143  0.19980  0.20093  1.0000
  H   H1817     1.0  0.26894  0.19943  0.04728  1.0000
  H   H1818     1.0  0.45497  0.20034  0.34553  1.0000
  C   C2260     1.0  0.29940  0.20737  0.44306  1.0000
  C   C2261     1.0  0.30171  0.19643  0.43279  1.0000
  C   C2262     1.0  0.31069  0.18013  0.43667  1.0000
  C   C2263     1.0  0.31668  0.17465  0.45126  1.0000
  H   H1819     1.0  0.39269  0.22422  0.19329  1.0000
  C   C2264     1.0  0.41397  0.16168  0.15667  1.0000
  H   H1820     1.0  0.29703  0.20077  0.42159  1.0000
  C   C2265     1.0  0.24128  0.98470  0.26409  1.0000
  H   H1821     1.0  0.25579  0.02157  0.21931  1.0000
  H   H1822     1.0  0.40333  0.18685  0.40039  1.0000
  H   H1823     1.0  0.26943  0.10169  0.99243  1.0000
  C   C2266     1.0  0.37854  0.14170  0.41205  1.0000
  C   C2267     1.0  0.37483  0.15649  0.40040  1.0000
  C   C2268     1.0  0.37244  0.17172  0.40468  1.0000
  P   P75       1.0  0.37209  0.15581  0.38057  1.0000
  C   C2269     1.0  0.39159  0.14819  0.36727  1.0000
  C   C2270     1.0  0.35782  0.14252  0.38414  1.0000
  C   C2271     1.0  0.35725  0.13547  0.37151  1.0000
  C   C2272     1.0  0.34570  0.12582  0.37414  1.0000
  C   C2273     1.0  0.33467  0.12304  0.38941  1.0000
  C   C2274     1.0  0.33509  0.13001  0.40203  1.0000
  C   C2275     1.0  0.34652  0.13977  0.39940  1.0000
  C   C2276     1.0  0.39274  0.15047  0.35026  1.0000
  C   C2277     1.0  0.40777  0.14499  0.33987  1.0000
  C   C2278     1.0  0.40577  0.13995  0.37370  1.0000
  C   C2279     1.0  0.36210  0.17639  0.37115  1.0000
  C   C2280     1.0  0.37068  0.18627  0.35737  1.0000
  C   C2281     1.0  0.36243  0.20183  0.34995  1.0000
  C   C2282     1.0  0.34576  0.20794  0.35657  1.0000
  C   C2283     1.0  0.33735  0.19853  0.37068  1.0000
  C   C2284     1.0  0.34550  0.18287  0.37801  1.0000
  H   H1824     1.0  0.28835  0.03847  0.29632  1.0000
  H   H1825     1.0  0.25585  0.99173  0.14569  1.0000
  H   H1826     1.0  0.36540  0.13763  0.35951  1.0000
  H   H1827     1.0  0.34494  0.12081  0.36424  1.0000
  H   H1828     1.0  0.32542  0.11595  0.39127  1.0000
  H   H1829     1.0  0.32610  0.12842  0.41367  1.0000
  H   H1830     1.0  0.34608  0.14554  0.40920  1.0000
  H   H1831     1.0  0.38208  0.15675  0.34489  1.0000
  C   C2285     1.0  0.27286  0.99083  0.09920  1.0000
  H   H1832     1.0  0.40536  0.13778  0.38672  1.0000
  H   H1833     1.0  0.38359  0.18198  0.35202  1.0000
  H   H1834     1.0  0.33914  0.21968  0.35043  1.0000
  H   H1835     1.0  0.32433  0.20313  0.37561  1.0000
  H   H1836     1.0  0.33876  0.17575  0.38895  1.0000
  C   C2286     1.0  0.38010  0.20226  0.16973  1.0000
  C   C2287     1.0  0.36874  0.19187  0.17622  1.0000
  C   C2288     1.0  0.41859  0.20239  0.35310  1.0000
  H   H1837     1.0  0.45979  0.19253  0.31704  1.0000
  H   H1838     1.0  0.43354  0.13301  0.33817  1.0000
  C   C2289     1.0  0.26973  0.03075  0.26361  1.0000
  H   H1839     1.0  0.26073  0.18321  0.31257  1.0000
  H   H1840     1.0  0.37266  0.17870  0.17665  1.0000
  C   C2290     1.0  0.33831  0.22096  0.42580  1.0000
  H   H1841     1.0  0.25825  0.20815  0.34392  1.0000
  P   P76       1.0  0.42580  0.20990  0.33123  1.0000
  H   H1842     1.0  0.33332  0.22055  0.18548  1.0000
  C   C2291     1.0  0.35618  0.02482  0.17540  1.0000
  C   C2292     1.0  0.37176  0.02223  0.16479  1.0000
  C   C2293     1.0  0.38552  0.02416  0.16904  1.0000
  C   C2294     1.0  0.38367  0.02874  0.18388  1.0000
  C   C2295     1.0  0.36796  0.03180  0.19440  1.0000
  C   C2296     1.0  0.35421  0.02967  0.19012  1.0000
  P   P77       1.0  0.36609  0.03687  0.21385  1.0000
  C   C2297     1.0  0.37665  0.01832  0.22597  1.0000
  C   C2298     1.0  0.37461  0.05475  0.21080  1.0000
  C   C2299     1.0  0.37591  0.05960  0.22455  1.0000
  C   C2300     1.0  0.38199  0.07371  0.22241  1.0000
  C   C2301     1.0  0.38651  0.08327  0.20658  1.0000
  C   C2302     1.0  0.38477  0.07883  0.19288  1.0000
  C   C2303     1.0  0.37872  0.06471  0.19496  1.0000
  C   C2304     1.0  0.41681  0.21245  0.36407  1.0000
  C   C2305     1.0  0.39097  0.01807  0.23090  1.0000
  C   C2306     1.0  0.34455  0.04286  0.22370  1.0000
  C   C2307     1.0  0.33472  0.05702  0.21571  1.0000
  C   C2308     1.0  0.31805  0.06230  0.22294  1.0000
  C   C2309     1.0  0.31113  0.05358  0.23839  1.0000
  C   C2310     1.0  0.32089  0.03959  0.24664  1.0000
  C   C2311     1.0  0.33760  0.03424  0.23936  1.0000
  H   H1843     1.0  0.34553  0.02328  0.17208  1.0000
  H   H1844     1.0  0.37313  0.01874  0.15328  1.0000
  H   H1845     1.0  0.39762  0.02209  0.16084  1.0000
  H   H1846     1.0  0.39448  0.03001  0.18711  1.0000
  H   H1847     1.0  0.34195  0.03173  0.19799  1.0000
  H   H1848     1.0  0.37201  0.05261  0.23694  1.0000
  H   H1849     1.0  0.38277  0.07759  0.23304  1.0000
  H   H1850     1.0  0.39078  0.09445  0.20502  1.0000
  H   H1851     1.0  0.38756  0.08663  0.18066  1.0000
  H   H1852     1.0  0.37679  0.06204  0.18420  1.0000
  C   C2312     1.0  0.37110  0.00357  0.22960  1.0000
  H   H1853     1.0  0.39601  0.02903  0.22765  1.0000
  H   H1854     1.0  0.34016  0.06408  0.20397  1.0000
  H   H1855     1.0  0.31065  0.07351  0.21681  1.0000
  H   H1856     1.0  0.29838  0.05808  0.24417  1.0000
  H   H1857     1.0  0.31557  0.03314  0.25885  1.0000
  H   H1858     1.0  0.34501  0.02366  0.24616  1.0000
  C   C2313     1.0  0.27518  0.08422  0.18454  1.0000
  C   C2314     1.0  0.27516  0.06733  0.18827  1.0000
  H   H1859     1.0  0.38553  0.20853  0.10791  1.0000
  H   H1860     1.0  0.31985  0.06452  0.05406  1.0000
  S   S345      1.0  0.30480  0.21665  0.46859  1.0000
  C   C2315     1.0  0.26204  0.09597  0.17868  1.0000
  H   H1861     1.0  0.34334  0.19032  0.18711  1.0000
  C   C2316     1.0  0.24338  0.14332  0.32694  1.0000
  H   H1862     1.0  0.26502  0.22076  0.29115  1.0000
  C   C2317     1.0  0.41700  0.14439  0.16185  1.0000
  H   H1863     1.0  0.29307  0.22017  0.43962  1.0000
  H   H1864     1.0  0.25195  0.09074  0.25610  1.0000
  C   C2318     1.0  0.40893  0.18130  0.37635  1.0000
  H   H1865     1.0  0.40598  0.16920  0.38116  1.0000
  H   H1866     1.0  0.38213  0.13072  0.43683  1.0000
  H   H1867     1.0  0.26648  0.99946  0.09005  1.0000
  H   H1868     1.0  0.32359  0.16203  0.45435  1.0000
  H   H1869     1.0  0.28546  0.08823  0.18599  1.0000
  H   H1870     1.0  0.28537  0.05811  0.19264  1.0000
  C   C2319     1.0  0.28874  0.21857  0.14095  1.0000
  C   C2320     1.0  0.42245  0.18608  0.31686  1.0000
  H   H1871     1.0  0.26243  0.10895  0.17548  1.0000
  H   H1872     1.0  0.38040  0.20028  0.13824  1.0000
  H   H1873     1.0  0.25510  0.21403  0.37077  1.0000
  C   C2321     1.0  0.25576  0.16359  0.30471  1.0000
  H   H1874     1.0  0.29321  0.07300  0.04559  1.0000
  C   C2322     1.0  0.26985  0.04691  0.26398  1.0000
  C   C2323     1.0  0.28367  0.05191  0.06191  1.0000
  S   S346      1.0  0.30108  0.99236  0.12941  1.0000
  H   H1875     1.0  0.30499  0.02159  0.08820  1.0000
  S   S347      1.0  0.24488  0.07973  0.30155  1.0000
  C   C2324     1.0  0.41136  0.20685  0.38107  1.0000
  H   H1876     1.0  0.37090  0.18397  0.42387  1.0000
  H   H1877     1.0  0.24487  0.03104  0.09181  1.0000
  C   C2325     1.0  0.33359  0.09202  0.29846  1.0000
  C   C2326     1.0  0.25078  0.16563  0.33324  1.0000
  H   H1878     1.0  0.27757  0.16556  0.24937  1.0000
  C   C2327     1.0  0.36837  0.22789  0.20905  1.0000
  C   C2328     1.0  0.24879  0.01071  0.26135  1.0000
  C   C2329     1.0  0.45651  0.17494  0.30575  1.0000
  C   C2330     1.0  0.44529  0.16845  0.30183  1.0000
  C   C2331     1.0  0.42828  0.17391  0.30750  1.0000
  C   C2332     1.0  0.29152  0.02033  0.22993  1.0000
  C   C2333     1.0  0.24866  0.14963  0.31008  1.0000
  C   C2334     1.0  0.36581  0.22625  0.41357  1.0000
  H   H1879     1.0  0.29617  0.02188  0.23969  1.0000
  P   P78       1.0  0.40175  0.19414  0.16166  1.0000
  C   C2335     1.0  0.30241  0.03268  0.07872  1.0000
  H   H1880     1.0  0.28771  0.19383  0.15526  1.0000
  S   S348      1.0  0.24225  0.19564  0.40341  1.0000
  C   C2336     1.0  0.40905  0.22379  0.32220  1.0000
  C   C2337     1.0  0.41115  0.20871  0.10476  1.0000
  C   C2338     1.0  0.25612  0.17197  0.31638  1.0000
  H   H1881     1.0  0.39665  0.17169  0.19416  1.0000
  H   H1882     1.0  0.46969  0.17115  0.30081  1.0000
  H   H1883     1.0  0.44978  0.15966  0.29384  1.0000
  H   H1884     1.0  0.41959  0.16923  0.30401  1.0000
  H   H1885     1.0  0.41567  0.17879  0.35118  1.0000
  H   H1886     1.0  0.34503  0.10048  0.06988  1.0000
  H   H1887     1.0  0.38017  0.12981  0.40911  1.0000
  C   C2339     1.0  0.42186  0.13713  0.34631  1.0000
  C   C2340     1.0  0.27449  0.02177  0.23158  1.0000
  H   H1888     1.0  0.39978  0.12798  0.31039  1.0000
  C   C2341     1.0  0.29380  0.14152  0.25093  1.0000
  C   C2342     1.0  0.30085  0.12725  0.26127  1.0000
  C   C2343     1.0  0.29597  0.12545  0.27839  1.0000
  C   C2344     1.0  0.28448  0.13821  0.28515  1.0000
  C   C2345     1.0  0.27773  0.15281  0.27479  1.0000
  C   C2346     1.0  0.28254  0.15440  0.25762  1.0000
  C   C2347     1.0  0.27788  0.18452  0.27877  1.0000
  C   C2348     1.0  0.28925  0.18172  0.28869  1.0000
  C   C2349     1.0  0.30045  0.19200  0.28488  1.0000
  C   C2350     1.0  0.30069  0.20493  0.27088  1.0000
  C   C2351     1.0  0.28976  0.20753  0.26064  1.0000
  C   C2352     1.0  0.27849  0.19729  0.26448  1.0000
  H   H1889     1.0  0.29696  0.14255  0.23771  1.0000
  H   H1890     1.0  0.30988  0.11746  0.25603  1.0000
  H   H1891     1.0  0.30102  0.11407  0.28637  1.0000
  H   H1892     1.0  0.28097  0.13658  0.29842  1.0000
  H   H1893     1.0  0.30922  0.18971  0.29259  1.0000
  H   H1894     1.0  0.30962  0.21266  0.26778  1.0000
  C   C2353     1.0  0.31638  0.21958  0.98933  1.0000
  H   H1895     1.0  0.27060  0.19910  0.25604  1.0000
  C   C2354     1.0  0.27897  0.22114  0.03586  1.0000
  C   C2355     1.0  0.35880  0.13108  0.02045  1.0000
  C   C2356     1.0  0.35784  0.12728  0.04958  1.0000
  C   C2357     1.0  0.35139  0.13566  0.03558  1.0000
  P   P79       1.0  0.34874  0.13362  0.06892  1.0000
  C   C2358     1.0  0.34703  0.11550  0.08540  1.0000
  C   C2359     1.0  0.34590  0.11615  0.10173  1.0000
  C   C2360     1.0  0.34395  0.10224  0.11454  1.0000
  C   C2361     1.0  0.34261  0.08776  0.11114  1.0000
  C   C2362     1.0  0.34305  0.08722  0.09503  1.0000
  C   C2363     1.0  0.34518  0.10104  0.08220  1.0000
  C   C2364     1.0  0.32757  0.14504  0.06964  1.0000
  C   C2365     1.0  0.31632  0.13833  0.06587  1.0000
  C   C2366     1.0  0.29972  0.14665  0.06711  1.0000
  C   C2367     1.0  0.29420  0.16171  0.07215  1.0000
  C   C2368     1.0  0.30526  0.16839  0.07614  1.0000
  C   C2369     1.0  0.32187  0.16007  0.07495  1.0000
  H   H1896     1.0  0.35361  0.13765  0.00971  1.0000
  H   H1897     1.0  0.34068  0.14580  0.03634  1.0000
  H   H1898     1.0  0.34636  0.12741  0.10460  1.0000
  H   H1899     1.0  0.34319  0.10278  0.12713  1.0000
  H   H1900     1.0  0.34070  0.07710  0.12102  1.0000
  H   H1901     1.0  0.32040  0.12670  0.06186  1.0000
  H   H1902     1.0  0.29114  0.14151  0.06396  1.0000
  H   H1903     1.0  0.28138  0.16820  0.07280  1.0000
  H   H1904     1.0  0.30111  0.18010  0.07997  1.0000
  H   H1905     1.0  0.33015  0.16548  0.07813  1.0000
  C   C2370     1.0  0.26349  0.21446  0.31737  1.0000
  C   C2371     1.0  0.25753  0.03966  0.05575  1.0000
  C   C2372     1.0  0.26453  0.01067  0.05405  1.0000
  C   C2373     1.0  0.25260  0.98517  0.15840  1.0000
  H   H1906     1.0  0.24759  0.14335  0.30126  1.0000
  C   C2374     1.0  0.24526  0.04577  0.24235  1.0000
  C   C2375     1.0  0.28079  0.99670  0.10793  1.0000
  C   C2376     1.0  0.39349  0.22930  0.33204  1.0000
  H   H1907     1.0  0.23989  0.07198  0.11087  1.0000
  C   C2377     1.0  0.25708  0.11172  0.36546  1.0000
  C   C2378     1.0  0.24736  0.02037  0.17581  1.0000
  H   H1908     1.0  0.28966  0.17141  0.29921  1.0000
  C   C2379     1.0  0.25738  0.10996  0.12068  1.0000
  C   C2380     1.0  0.24969  0.99721  0.25477  1.0000
  H   H1909     1.0  0.32587  0.03890  0.07531  1.0000
  H   H1910     1.0  0.45618  0.22556  0.28869  1.0000
  H   H1911     1.0  0.48790  0.18184  0.25789  1.0000
  H   H1912     1.0  0.43150  0.19924  0.13582  1.0000
  H   H1913     1.0  0.31586  0.01625  0.21396  1.0000
  C   C2381     1.0  0.33420  0.10697  0.30146  1.0000
  C   C2382     1.0  0.33780  0.12023  0.28823  1.0000
  C   C2383     1.0  0.41680  0.21966  0.15983  1.0000
  P   P80       1.0  0.33815  0.13962  0.29229  1.0000
  C   C2384     1.0  0.33664  0.15636  0.27429  1.0000
  C   C2385     1.0  0.32073  0.14597  0.30826  1.0000
  C   C2386     1.0  0.32068  0.15872  0.31550  1.0000
  C   C2387     1.0  0.30722  0.16370  0.32789  1.0000
  C   C2388     1.0  0.29376  0.15601  0.33310  1.0000
  C   C2389     1.0  0.29352  0.14367  0.32564  1.0000
  C   C2390     1.0  0.30689  0.13871  0.31323  1.0000
  C   C2391     1.0  0.34632  0.16828  0.26994  1.0000
  C   C2392     1.0  0.34563  0.18064  0.25551  1.0000
  C   C2393     1.0  0.33506  0.18140  0.24551  1.0000
  C   C2394     1.0  0.32485  0.17003  0.25015  1.0000
  C   C2395     1.0  0.32550  0.15768  0.26459  1.0000
  C   C2396     1.0  0.35756  0.13601  0.29823  1.0000
  C   C2397     1.0  0.37230  0.13579  0.28608  1.0000
  C   C2398     1.0  0.38747  0.13296  0.29045  1.0000
  C   C2399     1.0  0.38806  0.12988  0.30705  1.0000
  C   C2400     1.0  0.37349  0.12950  0.31929  1.0000
  C   C2401     1.0  0.35826  0.13254  0.31493  1.0000
  H   H1914     1.0  0.33161  0.10826  0.31411  1.0000
  C   C2402     1.0  0.25133  0.05856  0.23006  1.0000
  H   H1915     1.0  0.33111  0.16469  0.31168  1.0000
  H   H1916     1.0  0.30729  0.17333  0.33369  1.0000
  H   H1917     1.0  0.28363  0.15937  0.34311  1.0000
  H   H1918     1.0  0.28304  0.13775  0.32969  1.0000
  H   H1919     1.0  0.30635  0.12916  0.30767  1.0000
  H   H1920     1.0  0.35467  0.16793  0.27745  1.0000
  H   H1921     1.0  0.35373  0.18931  0.25179  1.0000
  H   H1922     1.0  0.33502  0.19062  0.23404  1.0000
  H   H1923     1.0  0.31673  0.17053  0.24236  1.0000
  H   H1924     1.0  0.31764  0.14889  0.26795  1.0000
  H   H1925     1.0  0.37203  0.13798  0.27319  1.0000
  H   H1926     1.0  0.39873  0.13333  0.28092  1.0000
  P   P81       1.0  0.25956  0.02708  0.24970  1.0000
  P   P82       1.0  0.26448  0.17024  0.28304  1.0000
  H   H1927     1.0  0.34712  0.13219  0.32459  1.0000
  C   C2403     1.0  0.38142  0.16655  0.07196  1.0000
  C   C2404     1.0  0.30139  0.11377  0.10969  1.0000
  C   C2405     1.0  0.30259  0.09911  0.12180  1.0000
  C   C2406     1.0  0.30205  0.09944  0.13800  1.0000
  C   C2407     1.0  0.30030  0.11451  0.14214  1.0000
  C   C2408     1.0  0.29858  0.12942  0.13015  1.0000
  C   C2409     1.0  0.29954  0.12888  0.11381  1.0000
  P   P83       1.0  0.29874  0.14848  0.13488  1.0000
  C   C2410     1.0  0.28978  0.14839  0.15640  1.0000
  C   C2411     1.0  0.32041  0.14879  0.12989  1.0000
  C   C2412     1.0  0.33081  0.13758  0.13993  1.0000
  C   C2413     1.0  0.34782  0.13700  0.13577  1.0000
  C   C2414     1.0  0.35460  0.14730  0.12134  1.0000
  C   C2415     1.0  0.34437  0.15818  0.11105  1.0000
  C   C2416     1.0  0.32735  0.15890  0.11526  1.0000
  C   C2417     1.0  0.29603  0.15602  0.16503  1.0000
  C   C2418     1.0  0.28917  0.15568  0.18180  1.0000
  C   C2419     1.0  0.27619  0.14762  0.19008  1.0000
  C   C2420     1.0  0.26956  0.14049  0.18142  1.0000
  C   C2421     1.0  0.27613  0.14112  0.16457  1.0000
  C   C2422     1.0  0.28656  0.16668  0.12393  1.0000
  C   C2423     1.0  0.27321  0.16551  0.11829  1.0000
  C   C2424     1.0  0.26324  0.17984  0.11069  1.0000
  C   C2425     1.0  0.26641  0.19541  0.10888  1.0000
  C   C2426     1.0  0.27959  0.19667  0.11455  1.0000
  C   C2427     1.0  0.28951  0.18240  0.12224  1.0000
  C   C2428     1.0  0.45486  0.21255  0.33757  1.0000
  H   H1928     1.0  0.30459  0.08738  0.11847  1.0000
  H   H1929     1.0  0.30356  0.08793  0.14721  1.0000
  H   H1930     1.0  0.30086  0.11437  0.15454  1.0000
  H   H1931     1.0  0.29937  0.14003  0.10415  1.0000
  H   H1932     1.0  0.32584  0.12914  0.15087  1.0000
  H   H1933     1.0  0.35576  0.12855  0.14375  1.0000
  H   H1934     1.0  0.36775  0.14708  0.11824  1.0000
  H   H1935     1.0  0.34967  0.16624  0.09990  1.0000
  H   H1936     1.0  0.31978  0.16727  0.10700  1.0000
  H   H1937     1.0  0.30647  0.16187  0.15897  1.0000
  H   H1938     1.0  0.29440  0.16110  0.18855  1.0000
  H   H1939     1.0  0.27150  0.14667  0.20326  1.0000
  H   H1940     1.0  0.25954  0.13422  0.18788  1.0000
  H   H1941     1.0  0.27079  0.13565  0.15797  1.0000
  H   H1942     1.0  0.27036  0.15359  0.11990  1.0000
  H   H1943     1.0  0.25302  0.17887  0.10625  1.0000
  H   H1944     1.0  0.25870  0.20651  0.10299  1.0000
  H   H1945     1.0  0.28214  0.20875  0.11302  1.0000
  H   H1946     1.0  0.29949  0.18365  0.12686  1.0000
  H   H1947     1.0  0.27722  0.00469  0.27465  1.0000
  H   H1948     1.0  0.40845  0.14695  0.32676  1.0000
  C   C2429     1.0  0.24042  0.07302  0.22414  1.0000
  H   H1949     1.0  0.28256  0.02512  0.04966  1.0000
  C   C2430     1.0  0.26833  0.09334  0.00450  1.0000
  H   H1950     1.0  0.27583  0.01536  0.19396  1.0000
  H   H1951     1.0  0.27803  0.02997  0.08011  1.0000
  C   C2431     1.0  0.41289  0.13702  0.17862  1.0000
  C   C2432     1.0  0.33730  0.08993  0.28228  1.0000
  C   C2433     1.0  0.26203  0.06221  0.18610  1.0000
  H   H1952     1.0  0.38860  0.17460  0.07304  1.0000
  C   C2434     1.0  0.37935  0.98893  0.23858  1.0000
  C   C2435     1.0  0.27455  0.20840  0.04911  1.0000
  C   C2436     1.0  0.40742  0.19126  0.38721  1.0000
  C   C2437     1.0  0.39552  0.20650  0.11408  1.0000
  H   H1953     1.0  0.40248  0.14124  0.20322  1.0000
  H   H1954     1.0  0.42334  0.22464  0.29715  1.0000
  C   C2438     1.0  0.26891  0.02015  0.21843  1.0000
  C   C2439     1.0  0.40575  0.14693  0.19022  1.0000
  C   C2440     1.0  0.34179  0.10272  0.26908  1.0000
  H   H1955     1.0  0.37861  0.11473  0.00740  1.0000
  C   C2441     1.0  0.28069  0.20635  0.15174  1.0000
  C   C2442     1.0  0.39266  0.20191  0.13131  1.0000
  H   H1956     1.0  0.41032  0.21455  0.38947  1.0000
  H   H1957     1.0  0.26454  0.05735  0.22506  1.0000
  H   H1958     1.0  0.25148  0.17188  0.34224  1.0000
  H   H1959     1.0  0.35207  0.21269  0.38742  1.0000
  H   H1960     1.0  0.40918  0.19053  0.32064  1.0000
  H   H1961     1.0  0.27364  0.19759  0.07480  1.0000
  C   C2443     1.0  0.41393  0.20394  0.16863  1.0000
  H   H1962     1.0  0.36956  0.18330  0.39600  1.0000
  C   C2444     1.0  0.43036  0.22086  0.18041  1.0000
  C   C2445     1.0  0.42499  0.22805  0.16566  1.0000
  C   C2446     1.0  0.37332  0.17216  0.42047  1.0000
  S   S349      1.0  0.24834  0.21024  0.02040  1.0000
  H   H1963     1.0  0.37000  0.18477  0.05329  1.0000
  C   C2447     1.0  0.30277  0.01711  0.21538  1.0000
  C   C2448     1.0  0.42085  0.13455  0.36323  1.0000
  C   C2449     1.0  0.27716  0.20743  0.06461  1.0000
  H   H1964     1.0  0.37730  0.15774  0.44435  1.0000
  H   H1965     1.0  0.31872  0.18120  0.47291  1.0000
  C   C2450     1.0  0.24878  0.07396  0.18051  1.0000
  C   C2451     1.0  0.42133  0.20135  0.12989  1.0000
  C   C2452     1.0  0.42410  0.20602  0.11266  1.0000
  H   H1966     1.0  0.37399  0.12711  0.33214  1.0000
  H   H1967     1.0  0.34621  0.12729  0.26159  1.0000
  C   C2453     1.0  0.34224  0.11775  0.27202  1.0000
  H   H1968     1.0  0.23966  0.21991  0.44223  1.0000
  H   H1969     1.0  0.43177  0.12833  0.36823  1.0000
  C   C2454     1.0  0.34903  0.20088  0.46352  1.0000
  C   C2455     1.0  0.37688  0.15739  0.43203  1.0000
  C   C2456     1.0  0.36178  0.14624  0.07017  1.0000
  C   C2457     1.0  0.43364  0.19295  0.32060  1.0000
  H   H1970     1.0  0.39113  0.14594  0.08995  1.0000
  H   H1971     1.0  0.39067  0.10018  0.03198  1.0000
  H   H1972     1.0  0.30580  0.01276  0.19117  1.0000
  C   C2458     1.0  0.28387  0.02005  0.28644  1.0000
  H   H1973     1.0  0.47807  0.21381  0.34159  1.0000
  C   C2459     1.0  0.31085  0.05677  0.05935  1.0000
  C   C2460     1.0  0.37223  0.11463  0.04816  1.0000
  H   H1974     1.0  0.37448  0.12767  0.08796  1.0000
  C   C2461     1.0  0.37964  0.11002  0.03301  1.0000
  H   H1975     1.0  0.35314  0.16682  0.05119  1.0000
  C   C2462     1.0  0.35325  0.21577  0.46273  1.0000
  C   C2463     1.0  0.40675  0.17176  0.16826  1.0000
  C   C2464     1.0  0.36579  0.22147  0.39936  1.0000
  C   C2465     1.0  0.40260  0.16420  0.18506  1.0000
  C   C2466     1.0  0.23973  0.02974  0.11791  1.0000
  C   C2467     1.0  0.40547  0.19964  0.13937  1.0000
  C   C2468     1.0  0.30566  0.20197  0.45749  1.0000
  H   H1976     1.0  0.26331  0.13678  0.38666  1.0000
  C   C2469     1.0  0.37081  0.17235  0.06098  1.0000
  C   C2470     1.0  0.37309  0.14019  0.08058  1.0000
  C   C2471     1.0  0.36119  0.16217  0.05991  1.0000
  C   C2472     1.0  0.27706  0.01730  0.27477  1.0000
  H   H1977     1.0  0.23881  0.06974  0.17886  1.0000
  H   H1978     1.0  0.41708  0.16705  0.14359  1.0000
  C   C2473     1.0  0.38275  0.15041  0.08157  1.0000
  H   H1979     1.0  0.34504  0.10096  0.25652  1.0000
  S   S350      1.0  0.34151  0.22834  0.10224  1.0000
  C   C2474     1.0  0.26483  0.08859  0.03412  1.0000
  H   H1980     1.0  0.37769  0.10835  0.05876  1.0000
  H   H1981     1.0  0.41512  0.12364  0.18265  1.0000
  H   H1982     1.0  0.27677  0.22171  0.02393  1.0000
  H   H1983     1.0  0.42241  0.13671  0.15284  1.0000
  C   C2475     1.0  0.42754  0.20528  0.18932  1.0000
  S   S351      1.0  0.24146  0.05124  0.15548  1.0000
  H   H1984     1.0  0.26100  0.05732  0.09089  1.0000
  H   H1985     1.0  0.29027  0.21727  0.24953  1.0000
  C   C2476     1.0  0.26542  0.07174  0.03577  1.0000
  C   C2477     1.0  0.28340  0.03622  0.28707  1.0000
  S   S352      1.0  0.25559  0.06677  0.33800  1.0000
  H   H1986     1.0  0.27672  0.21270  0.31621  1.0000
  C   C2478     1.0  0.24716  0.17871  0.27310  1.0000
  H   H1987     1.0  0.36933  0.21480  0.21456  1.0000
  C   C2479     1.0  0.24511  0.11907  0.11195  1.0000
  H   H1988     1.0  0.41317  0.21254  0.09142  1.0000
  C   C2480     1.0  0.35201  0.22608  0.42692  1.0000
  C   C2481     1.0  0.48093  0.19138  0.26464  1.0000
  P   P84       1.0  0.26390  0.05796  0.05595  1.0000
  H   H1989     1.0  0.41020  0.00330  0.24372  1.0000
  H   H1990     1.0  0.31357  0.21947  0.01479  1.0000
  C   C2482     1.0  0.26776  0.06573  0.02156  1.0000
  C   C2483     1.0  0.24481  0.15107  0.33849  1.0000
  H   H1991     1.0  0.43624  0.20769  0.10540  1.0000
  C   C2484     1.0  0.25022  0.06577  0.08700  1.0000
  C   C2485     1.0  0.28429  0.21915  0.06687  1.0000
  H   H1992     1.0  0.38271  0.22769  0.16350  1.0000
  C   C2486     1.0  0.35210  0.21634  0.39843  1.0000
  H   H1993     1.0  0.28655  0.21834  0.07882  1.0000
  H   H1994     1.0  0.41709  0.18501  0.19091  1.0000
  C   C2487     1.0  0.26354  0.21025  0.15778  1.0000
  C   C2488     1.0  0.37430  0.21937  0.16875  1.0000
  C   C2489     1.0  0.25354  0.12223  0.37642  1.0000
  C   C2490     1.0  0.41446  0.18680  0.35934  1.0000
  C   C2491     1.0  0.35198  0.19847  0.18206  1.0000
  C   C2492     1.0  0.37959  0.14217  0.42778  1.0000
  C   C2493     1.0  0.41933  0.19686  0.18351  1.0000
  C   C2494     1.0  0.33843  0.21595  0.41170  1.0000
  H   H1995     1.0  0.38640  0.22023  0.44645  1.0000
  C   C2495     1.0  0.31009  0.22643  0.00331  1.0000
  C   C2496     1.0  0.24553  0.00909  0.19108  1.0000
  H   H1996     1.0  0.26482  0.05750  0.25528  1.0000
  C   C2497     1.0  0.25351  0.10612  0.13796  1.0000
  C   C2498     1.0  0.24159  0.16862  0.26648  1.0000
  H   H1997     1.0  0.26852  0.05275  0.02243  1.0000
  H   H1998     1.0  0.26577  0.11233  0.01748  1.0000
  C   C2499     1.0  0.39335  0.98887  0.24380  1.0000
  H   H1999     1.0  0.25445  0.20427  0.98621  1.0000
  H   H2000     1.0  0.28920  0.00967  0.29525  1.0000
  H   H2001     1.0  0.26216  0.04912  0.18854  1.0000
  C   C2500     1.0  0.31424  0.04235  0.07138  1.0000
  H   H2002     1.0  0.30236  0.11327  0.09704  1.0000
  H   H2003     1.0  0.32784  0.21185  0.41106  1.0000
  C   C2501     1.0  0.26944  0.02526  0.05272  1.0000
  C   C2502     1.0  0.24860  0.09092  0.17688  1.0000
  C   C2503     1.0  0.39919  0.00341  0.23990  1.0000
  H   H2004     1.0  0.26334  0.09344  0.04486  1.0000
  C   C2504     1.0  0.28714  0.03748  0.07409  1.0000
  Fe  Fe181     1.0  0.24508  0.09299  0.34132  1.0000
  H   H2005     1.0  0.37630  0.22190  0.38897  1.0000
  H   H2006     1.0  0.26323  0.09892  0.14440  1.0000
  H   H2007     1.0  0.43652  0.22746  0.18504  1.0000
  C   C2505     1.0  0.24839  0.06865  0.07073  1.0000
  C   C2506     1.0  0.24063  0.03948  0.05906  1.0000
  H   H2008     1.0  0.32748  0.22100  0.43585  1.0000
  C   C2507     1.0  0.44215  0.22035  0.32890  1.0000
  H   H2009     1.0  0.41244  0.22567  0.14855  1.0000
  H   H2010     1.0  0.39120  0.22552  0.34535  1.0000
  C   C2508     1.0  0.24380  0.22166  0.37635  1.0000
  S   S353      1.0  0.24092  0.10430  0.36322  1.0000
  H   H2011     1.0  0.24247  0.20310  0.27797  1.0000
  H   H2012     1.0  0.37649  0.23030  0.41394  1.0000
  H   H2013     1.0  0.47606  0.22568  0.24288  1.0000
  C   C2509     1.0  0.41148  0.22882  0.30496  1.0000
  H   H2014     1.0  0.26092  0.13518  0.98042  1.0000
  C   C2510     1.0  0.24772  0.01046  0.05786  1.0000
  C   C2511     1.0  0.23951  0.01135  0.27746  1.0000
  H   H2015     1.0  0.24104  0.12543  0.38350  1.0000
  H   H2016     1.0  0.24098  0.14584  0.35147  1.0000
  H   H2017     1.0  0.24459  0.04043  0.11664  1.0000
  H   H2018     1.0  0.24529  0.08278  0.21471  1.0000
  C   C2512     1.0  0.28987  0.98555  0.11912  1.0000
  H   H2019     1.0  0.24118  0.22920  0.15787  1.0000
  Fe  Fe182     1.0  0.32318  0.22982  0.08761  1.0000
  C   C2513     1.0  0.23979  0.22132  0.30487  1.0000
  C   C2514     1.0  0.31203  0.22837  0.97437  1.0000
  C   C2515     1.0  0.23880  0.19534  0.27234  1.0000
  C   C2516     1.0  0.23977  0.02450  0.10399  1.0000
  H   H2020     1.0  0.47204  0.23077  0.15436  1.0000
  H   H2021     1.0  0.23864  0.02161  0.28286  1.0000
  Fe  Fe183     1.0  0.32364  0.19769  0.52427  1.0000
  H   H2022     1.0  0.30703  0.19848  0.58029  1.0000
  S   S354      1.0  0.34732  0.18869  0.53365  1.0000
  H   H2023     1.0  0.36207  0.22860  0.47581  1.0000
  C   C2517     1.0  0.43070  0.18026  0.57632  1.0000
  H   H2024     1.0  0.26189  0.08222  0.85891  1.0000
  S   S355      1.0  0.31335  0.18402  0.51182  1.0000
  H   H2025     1.0  0.33998  0.22619  0.64036  1.0000
  H   H2026     1.0  0.31083  0.13072  0.55177  1.0000
  Fe  Fe184     1.0  0.39199  0.20560  0.60722  1.0000
  H   H2027     1.0  0.28877  0.09351  0.52856  1.0000
  S   S356      1.0  0.39440  0.17818  0.61720  1.0000
  H   H2028     1.0  0.29314  0.05284  0.58378  1.0000
  H   H2029     1.0  0.30272  0.20934  0.86684  1.0000
  S   S357      1.0  0.31301  0.21431  0.75232  1.0000
  C   C2518     1.0  0.25490  0.00282  0.73977  1.0000
  S   S358      1.0  0.40110  0.21642  0.58040  1.0000
  S   S359      1.0  0.40264  0.22138  0.61642  1.0000
  C   C2519     1.0  0.48168  0.15583  0.60819  1.0000
  H   H2030     1.0  0.34028  0.17684  0.89491  1.0000
  P   P85       1.0  0.30300  0.10363  0.81036  1.0000
  C   C2520     1.0  0.34221  0.18013  0.88159  1.0000
  Fe  Fe185     1.0  0.25082  0.05502  0.77939  1.0000
  S   S360      1.0  0.27860  0.05233  0.77241  1.0000
  H   H2031     1.0  0.41835  0.18681  0.75872  1.0000
  C   C2521     1.0  0.29016  0.12043  0.55341  1.0000
  Fe  Fe186     1.0  0.27082  0.12365  0.87376  1.0000
  S   S361      1.0  0.26040  0.10490  0.89497  1.0000
  S   S362      1.0  0.29709  0.11564  0.86049  1.0000
  C   C2522     1.0  0.38956  0.22277  0.68473  1.0000
  H   H2032     1.0  0.30219  0.01690  0.69034  1.0000
  H   H2033     1.0  0.24769  0.20666  0.47805  1.0000
  H   H2034     1.0  0.39470  0.23122  0.71906  1.0000
  H   H2035     1.0  0.25182  0.15584  0.77072  1.0000
  C   C2523     1.0  0.26668  0.09663  0.58798  1.0000
  C   C2524     1.0  0.28773  0.09120  0.82122  1.0000
  C   C2525     1.0  0.29084  0.99167  0.72773  1.0000
  C   C2526     1.0  0.32176  0.09499  0.81821  1.0000
  C   C2527     1.0  0.35618  0.18929  0.49025  1.0000
  H   H2036     1.0  0.35031  0.19152  0.83373  1.0000
  H   H2037     1.0  0.32279  0.07866  0.79142  1.0000
  C   C2528     1.0  0.26112  0.12961  0.77528  1.0000
  H   H2038     1.0  0.33788  0.10444  0.79531  1.0000
  C   C2529     1.0  0.35714  0.18445  0.87228  1.0000
  S   S363      1.0  0.27664  0.16362  0.96571  1.0000
  H   H2039     1.0  0.42942  0.14196  0.65125  1.0000
  Fe  Fe187     1.0  0.32525  0.19497  0.80951  1.0000
  S   S364      1.0  0.30168  0.19938  0.80120  1.0000
  S   S365      1.0  0.33868  0.16970  0.82037  1.0000
  C   C2530     1.0  0.34802  0.18845  0.84711  1.0000
  H   H2040     1.0  0.24501  0.22602  0.56689  1.0000
  C   C2531     1.0  0.48167  0.13293  0.69871  1.0000
  C   C2532     1.0  0.27290  0.07052  0.82215  1.0000
  S   S366      1.0  0.33909  0.20708  0.78503  1.0000
  H   H2041     1.0  0.25277  0.00023  0.77584  1.0000
  Fe  Fe188     1.0  0.33186  0.15217  0.69446  1.0000
  S   S367      1.0  0.30752  0.17001  0.69284  1.0000
  S   S368      1.0  0.35369  0.16345  0.69079  1.0000
  Fe  Fe189     1.0  0.31577  0.12213  0.70503  1.0000
  S   S369      1.0  0.29024  0.13766  0.70443  1.0000
  S   S370      1.0  0.32084  0.09423  0.71115  1.0000
  Fe  Fe190     1.0  0.30293  0.15239  0.68084  1.0000
  S   S371      1.0  0.29386  0.16141  0.65736  1.0000
  Fe  Fe191     1.0  0.29750  0.15358  0.71666  1.0000
  S   S372      1.0  0.28195  0.16214  0.73967  1.0000
  S   S373      1.0  0.32813  0.13568  0.68038  1.0000
  S   S374      1.0  0.32220  0.13690  0.71909  1.0000
  H   H2042     1.0  0.29485  0.20607  0.89705  1.0000
  C   C2533     1.0  0.30605  0.19819  0.74966  1.0000
  C   C2534     1.0  0.29798  0.18758  0.76296  1.0000
  C   C2535     1.0  0.29074  0.17619  0.76004  1.0000
  C   C2536     1.0  0.29220  0.17503  0.74383  1.0000
  C   C2537     1.0  0.30140  0.18478  0.73075  1.0000
  C   C2538     1.0  0.30795  0.19658  0.73359  1.0000
  H   H2043     1.0  0.29681  0.18849  0.77544  1.0000
  H   H2044     1.0  0.28412  0.16828  0.77029  1.0000
  H   H2045     1.0  0.30288  0.18388  0.71829  1.0000
  H   H2046     1.0  0.31430  0.20464  0.72326  1.0000
  C   C2539     1.0  0.30179  0.11780  0.77731  1.0000
  C   C2540     1.0  0.35732  0.22680  0.55579  1.0000
  C   C2541     1.0  0.26273  0.09582  0.54045  1.0000
  C   C2542     1.0  0.36002  0.18866  0.85505  1.0000
  H   H2047     1.0  0.42450  0.17015  0.73768  1.0000
  H   H2048     1.0  0.24989  0.18014  0.61630  1.0000
  P   P86       1.0  0.26359  0.10669  0.55521  1.0000
  C   C2543     1.0  0.25222  0.15451  0.65039  1.0000
  C   C2544     1.0  0.26848  0.15611  0.64806  1.0000
  C   C2545     1.0  0.27331  0.16008  0.66039  1.0000
  C   C2546     1.0  0.26169  0.16307  0.67483  1.0000
  C   C2547     1.0  0.27649  0.08255  0.51726  1.0000
  C   C2548     1.0  0.31365  0.22694  0.64770  1.0000
  H   H2049     1.0  0.27745  0.15382  0.63688  1.0000
  H   H2050     1.0  0.26538  0.16638  0.68426  1.0000
  C   C2549     1.0  0.24624  0.21633  0.57786  1.0000
  C   C2550     1.0  0.25420  0.13464  0.94332  1.0000
  C   C2551     1.0  0.26076  0.14825  0.93356  1.0000
  C   C2552     1.0  0.26757  0.15698  0.94065  1.0000
  C   C2553     1.0  0.26777  0.15226  0.95755  1.0000
  H   H2051     1.0  0.26058  0.15202  0.92057  1.0000
  H   H2052     1.0  0.27269  0.16746  0.93301  1.0000
  C   C2554     1.0  0.30787  0.13128  0.84932  1.0000
  C   C2555     1.0  0.32454  0.12653  0.84174  1.0000
  C   C2556     1.0  0.33382  0.13847  0.83309  1.0000
  C   C2557     1.0  0.32643  0.15532  0.83163  1.0000
  C   C2558     1.0  0.30968  0.16024  0.83912  1.0000
  C   C2559     1.0  0.30040  0.14816  0.84809  1.0000
  H   H2053     1.0  0.33037  0.11354  0.84277  1.0000
  H   H2054     1.0  0.34675  0.13464  0.82736  1.0000
  H   H2055     1.0  0.30392  0.17327  0.83804  1.0000
  H   H2056     1.0  0.28748  0.15184  0.85386  1.0000
  H   H2057     1.0  0.45558  0.15481  0.73426  1.0000
  C   C2560     1.0  0.28956  0.06509  0.75577  1.0000
  C   C2561     1.0  0.28259  0.08157  0.74904  1.0000
  C   C2562     1.0  0.29222  0.09101  0.73565  1.0000
  C   C2563     1.0  0.30850  0.08371  0.72866  1.0000
  C   C2564     1.0  0.31537  0.06737  0.73562  1.0000
  C   C2565     1.0  0.30609  0.05828  0.74931  1.0000
  H   H2058     1.0  0.26993  0.08704  0.75424  1.0000
  H   H2059     1.0  0.28694  0.10376  0.73052  1.0000
  H   H2060     1.0  0.32799  0.06174  0.73045  1.0000
  C   C2566     1.0  0.24903  0.17609  0.51273  1.0000
  C   C2567     1.0  0.26497  0.07104  0.83852  1.0000
  H   H2061     1.0  0.28362  0.20943  0.63260  1.0000
  H   H2062     1.0  0.34779  0.19648  0.63936  1.0000
  C   C2568     1.0  0.32124  0.08613  0.83462  1.0000
  H   H2063     1.0  0.29107  0.21354  0.92362  1.0000
  S   S375      1.0  0.30021  0.20294  0.54328  1.0000
  H   H2064     1.0  0.26304  0.17812  0.48758  1.0000
  H   H2065     1.0  0.26814  0.10301  0.78300  1.0000
  H   H2066     1.0  0.41581  0.11636  0.62483  1.0000
  H   H2067     1.0  0.30966  0.08440  0.84307  1.0000
  H   H2068     1.0  0.25832  0.02552  0.74313  1.0000
  H   H2069     1.0  0.31068  0.03076  0.73281  1.0000
  C   C2569     1.0  0.47554  0.22893  0.68680  1.0000
  C   C2570     1.0  0.46784  0.15856  0.62116  1.0000
  H   H2070     1.0  0.44064  0.09332  0.62214  1.0000
  H   H2071     1.0  0.41879  0.14432  0.62361  1.0000
  C   C2571     1.0  0.38263  0.17428  0.63745  1.0000
  C   C2572     1.0  0.37794  0.15904  0.64426  1.0000
  C   C2573     1.0  0.36852  0.15586  0.66049  1.0000
  C   C2574     1.0  0.36428  0.16771  0.67009  1.0000
  C   C2575     1.0  0.36910  0.18289  0.66332  1.0000
  C   C2576     1.0  0.37795  0.18631  0.64690  1.0000
  H   H2072     1.0  0.38143  0.14977  0.63693  1.0000
  H   H2073     1.0  0.36487  0.14410  0.66570  1.0000
  H   H2074     1.0  0.36587  0.19208  0.67068  1.0000
  H   H2075     1.0  0.38142  0.19814  0.64167  1.0000
  C   C2577     1.0  0.26951  0.16397  0.55933  1.0000
  C   C2578     1.0  0.28401  0.15846  0.56541  1.0000
  C   C2579     1.0  0.28444  0.14644  0.58022  1.0000
  C   C2580     1.0  0.27025  0.14033  0.58907  1.0000
  C   C2581     1.0  0.25570  0.14614  0.58311  1.0000
  C   C2582     1.0  0.25538  0.15788  0.56822  1.0000
  H   H2076     1.0  0.29494  0.16322  0.55858  1.0000
  H   H2077     1.0  0.29568  0.14199  0.58488  1.0000
  S   S376      1.0  0.23946  0.04664  0.80623  1.0000
  P   P87       1.0  0.36583  0.22292  0.71451  1.0000
  C   C2583     1.0  0.35100  0.20328  0.54240  1.0000
  H   H2078     1.0  0.27024  0.06235  0.81613  1.0000
  H   H2079     1.0  0.26113  0.07250  0.50844  1.0000
  C   C2584     1.0  0.33000  0.18010  0.87368  1.0000
  C   C2585     1.0  0.26135  0.20064  0.63794  1.0000
  C   C2586     1.0  0.36303  0.19859  0.55196  1.0000
  C   C2587     1.0  0.31807  0.08969  0.78286  1.0000
  C   C2588     1.0  0.26507  0.00189  0.77471  1.0000
  C   C2589     1.0  0.30313  0.00640  0.70067  1.0000
  C   C2590     1.0  0.28426  0.08051  0.81353  1.0000
  H   H2080     1.0  0.32953  0.07882  0.76157  1.0000
  C   C2591     1.0  0.24783  0.09206  0.54057  1.0000
  C   C2592     1.0  0.28567  0.06504  0.58497  1.0000
  H   H2081     1.0  0.24894  0.11967  0.96793  1.0000
  H   H2082     1.0  0.26664  0.20077  0.77717  1.0000
  C   C2593     1.0  0.45778  0.10855  0.61931  1.0000
  C   C2594     1.0  0.29354  0.00113  0.75982  1.0000
  H   H2083     1.0  0.29016  0.07978  0.80088  1.0000
  H   H2084     1.0  0.26474  0.20764  0.80372  1.0000
  C   C2595     1.0  0.25791  0.19896  0.80328  1.0000
  H   H2085     1.0  0.43987  0.20920  0.64808  1.0000
  C   C2596     1.0  0.24487  0.99590  0.73448  1.0000
  H   H2086     1.0  0.28180  0.09996  0.84387  1.0000
  H   H2087     1.0  0.31907  0.10393  0.74180  1.0000
  C   C2597     1.0  0.30576  0.11781  0.76051  1.0000
  C   C2598     1.0  0.25766  0.20136  0.57635  1.0000
  C   C2599     1.0  0.43307  0.16977  0.59147  1.0000
  Fe  Fe192     1.0  0.28942  0.19161  0.52951  1.0000
  H   H2088     1.0  0.28021  0.03989  0.73976  1.0000
  C   C2600     1.0  0.25918  0.18849  0.59027  1.0000
  H   H2089     1.0  0.39308  0.21997  0.75571  1.0000
  C   C2601     1.0  0.44561  0.13756  0.61990  1.0000
  C   C2602     1.0  0.27151  0.20926  0.64072  1.0000
  H   H2090     1.0  0.29040  0.15273  0.90908  1.0000
  C   C2603     1.0  0.30167  0.13963  0.52940  1.0000
  H   H2091     1.0  0.36649  0.18451  0.87844  1.0000
  H   H2092     1.0  0.33307  0.14888  0.86860  1.0000
  C   C2604     1.0  0.32451  0.12651  0.88096  1.0000
  C   C2605     1.0  0.32412  0.14336  0.87864  1.0000
  C   C2606     1.0  0.31196  0.15293  0.88891  1.0000
  Fe  Fe193     1.0  0.23879  0.11173  0.88284  1.0000
  S   S377      1.0  0.24176  0.11634  0.64962  1.0000
  H   H2093     1.0  0.26940  0.12895  0.52264  1.0000
  H   H2094     1.0  0.43800  0.21596  0.60665  1.0000
  C   C2607     1.0  0.33311  0.18411  0.85637  1.0000
  H   H2095     1.0  0.32407  0.18380  0.84996  1.0000
  H   H2096     1.0  0.24668  0.14141  0.54367  1.0000
  H   H2097     1.0  0.24694  0.19486  0.82932  1.0000
  H   H2098     1.0  0.42577  0.16046  0.59694  1.0000
  C   C2608     1.0  0.48502  0.16552  0.63520  1.0000
  C   C2609     1.0  0.46844  0.18695  0.67901  1.0000
  C   C2610     1.0  0.24188  0.12881  0.80730  1.0000
  C   C2611     1.0  0.27944  0.09181  0.83762  1.0000
  S   S378      1.0  0.26004  0.14457  0.88700  1.0000
  C   C2612     1.0  0.30614  0.20061  0.65267  1.0000
  C   C2613     1.0  0.35101  0.08216  0.83024  1.0000
  H   H2099     1.0  0.47660  0.18101  0.68751  1.0000
  H   H2100     1.0  0.29080  0.12318  0.91266  1.0000
  H   H2101     1.0  0.33370  0.11922  0.87283  1.0000
  C   C2614     1.0  0.33039  0.21924  0.64331  1.0000
  C   C2615     1.0  0.47771  0.21850  0.60320  1.0000
  C   C2616     1.0  0.31251  0.11925  0.89317  1.0000
  C   C2617     1.0  0.28116  0.21172  0.85779  1.0000
  Fe  Fe194     1.0  0.32989  0.23003  0.79515  1.0000
  H   H2102     1.0  0.36438  0.20533  0.49995  1.0000
  C   C2618     1.0  0.25308  0.18422  0.49620  1.0000
  Fe  Fe195     1.0  0.29517  0.22317  0.80969  1.0000
  H   H2103     1.0  0.31238  0.10640  0.89441  1.0000
  H   H2104     1.0  0.33517  0.07313  0.85333  1.0000
  C   C2619     1.0  0.24903  0.19038  0.60564  1.0000
  C   C2620     1.0  0.43223  0.16610  0.63574  1.0000
  C   C2621     1.0  0.31188  0.16848  0.91874  1.0000
  C   C2622     1.0  0.40942  0.14765  0.70672  1.0000
  C   C2623     1.0  0.39477  0.15987  0.70716  1.0000
  C   C2624     1.0  0.39512  0.17619  0.70641  1.0000
  C   C2625     1.0  0.41006  0.18033  0.70525  1.0000
  C   C2626     1.0  0.42486  0.16817  0.70467  1.0000
  C   C2627     1.0  0.42446  0.15177  0.70534  1.0000
  P   P88       1.0  0.44394  0.17373  0.70367  1.0000
  C   C2628     1.0  0.43946  0.18594  0.71898  1.0000
  C   C2629     1.0  0.42952  0.18113  0.73467  1.0000
  C   C2630     1.0  0.42599  0.19048  0.74661  1.0000
  C   C2631     1.0  0.43210  0.20481  0.74290  1.0000
  C   C2632     1.0  0.44172  0.20986  0.72724  1.0000
  C   C2633     1.0  0.44542  0.20047  0.71531  1.0000
  H   H2105     1.0  0.40908  0.13499  0.70731  1.0000
  H   H2106     1.0  0.38312  0.15675  0.70796  1.0000
  H   H2107     1.0  0.38379  0.18562  0.70663  1.0000
  H   H2108     1.0  0.41008  0.19303  0.70483  1.0000
  H   H2109     1.0  0.43563  0.14210  0.70496  1.0000
  C   C2634     1.0  0.43940  0.19290  0.56908  1.0000
  H   H2110     1.0  0.38073  0.21966  0.67992  1.0000
  H   H2111     1.0  0.28080  0.22455  0.85139  1.0000
  H   H2112     1.0  0.45265  0.20479  0.70323  1.0000
  C   C2635     1.0  0.26950  0.20370  0.85682  1.0000
  C   C2636     1.0  0.28690  0.04299  0.72704  1.0000
  H   H2113     1.0  0.25607  0.16381  0.51704  1.0000
  C   C2637     1.0  0.31297  0.04294  0.70710  1.0000
  C   C2638     1.0  0.30454  0.05271  0.69480  1.0000
  C   C2639     1.0  0.28714  0.05738  0.69839  1.0000
  C   C2640     1.0  0.27839  0.05260  0.71473  1.0000
  P   P89       1.0  0.27648  0.07020  0.68223  1.0000
  C   C2641     1.0  0.28549  0.08807  0.67203  1.0000
  C   C2642     1.0  0.27766  0.05887  0.66699  1.0000
  C   C2643     1.0  0.29123  0.04590  0.66335  1.0000
  C   C2644     1.0  0.29154  0.03692  0.65197  1.0000
  C   C2645     1.0  0.27835  0.04088  0.64409  1.0000
  C   C2646     1.0  0.26500  0.05402  0.64732  1.0000
  C   C2647     1.0  0.26472  0.06304  0.65860  1.0000
  C   C2648     1.0  0.28296  0.09702  0.65630  1.0000
  C   C2649     1.0  0.28906  0.11140  0.64874  1.0000
  C   C2650     1.0  0.29789  0.11689  0.65673  1.0000
  C   C2651     1.0  0.30057  0.10802  0.67231  1.0000
  C   C2652     1.0  0.29437  0.09372  0.67999  1.0000
  C   C2653     1.0  0.25461  0.07697  0.69053  1.0000
  C   C2654     1.0  0.24700  0.09390  0.68833  1.0000
  C   C2655     1.0  0.31774  0.99415  0.70054  1.0000
  H   H2114     1.0  0.33043  0.20613  0.58567  1.0000
  C   C2656     1.0  0.26159  0.07895  0.51738  1.0000
  C   C2657     1.0  0.24319  0.11890  0.56205  1.0000
  H   H2115     1.0  0.32640  0.03970  0.70432  1.0000
  H   H2116     1.0  0.31164  0.05702  0.68258  1.0000
  H   H2117     1.0  0.26511  0.05663  0.71827  1.0000
  H   H2118     1.0  0.30159  0.04268  0.66918  1.0000
  H   H2119     1.0  0.30198  0.02685  0.64931  1.0000
  H   H2120     1.0  0.27848  0.03382  0.63543  1.0000
  C   C2658     1.0  0.33580  0.07970  0.84057  1.0000
  H   H2121     1.0  0.25428  0.07324  0.66081  1.0000
  H   H2122     1.0  0.27598  0.09314  0.64995  1.0000
  H   H2123     1.0  0.28678  0.11844  0.63673  1.0000
  H   H2124     1.0  0.30257  0.12808  0.65088  1.0000
  H   H2125     1.0  0.30740  0.11229  0.67853  1.0000
  H   H2126     1.0  0.29647  0.08727  0.69216  1.0000
  H   H2127     1.0  0.25409  0.10332  0.68214  1.0000
  H   H2128     1.0  0.46218  0.20215  0.61951  1.0000
  C   C2659     1.0  0.45970  0.15523  0.70820  1.0000
  C   C2660     1.0  0.31956  0.21560  0.58315  1.0000
  H   H2129     1.0  0.25020  0.05206  0.69922  1.0000
  H   H2130     1.0  0.25155  0.18079  0.77610  1.0000
  C   C2661     1.0  0.25058  0.01987  0.73944  1.0000
  C   C2662     1.0  0.27998  0.07608  0.57138  1.0000
  C   C2663     1.0  0.30190  0.13012  0.54537  1.0000
  C   C2664     1.0  0.42806  0.11857  0.62304  1.0000
  H   H2131     1.0  0.26590  0.19388  0.62812  1.0000
  S   S379      1.0  0.26860  0.17832  0.54060  1.0000
  C   C2665     1.0  0.33712  0.09744  0.80793  1.0000
  H   H2132     1.0  0.37521  0.20651  0.56629  1.0000
  C   C2666     1.0  0.27832  0.11985  0.54534  1.0000
  C   C2667     1.0  0.24349  0.12395  0.71259  1.0000
  H   H2133     1.0  0.43718  0.20136  0.55761  1.0000
  C   C2668     1.0  0.26632  0.21687  0.65427  1.0000
  C   C2669     1.0  0.45182  0.18546  0.68344  1.0000
  H   H2134     1.0  0.29704  0.19299  0.65696  1.0000
  C   C2670     1.0  0.29894  0.19664  0.90719  1.0000
  C   C2671     1.0  0.27030  0.18702  0.86446  1.0000
  C   C2672     1.0  0.46272  0.14890  0.72419  1.0000
  C   C2673     1.0  0.44203  0.10562  0.62154  1.0000
  C   C2674     1.0  0.30797  0.10375  0.78861  1.0000
  H   H2135     1.0  0.28321  0.22048  0.57228  1.0000
  H   H2136     1.0  0.28309  0.16542  0.87886  1.0000
  C   C2675     1.0  0.27401  0.20395  0.70736  1.0000
  H   H2137     1.0  0.41208  0.20264  0.64715  1.0000
  H   H2138     1.0  0.48366  0.19918  0.70754  1.0000
  C   C2676     1.0  0.28990  0.13920  0.52129  1.0000
  Fe  Fe196     1.0  0.30585  0.20910  0.49567  1.0000
  H   H2139     1.0  0.31164  0.04570  0.75469  1.0000
  H   H2140     1.0  0.25093  0.10235  0.81147  1.0000
  C   C2677     1.0  0.25899  0.20738  0.95982  1.0000
  H   H2141     1.0  0.28759  0.07888  0.50822  1.0000
  H   H2142     1.0  0.31045  0.14754  0.52344  1.0000
  H   H2143     1.0  0.47187  0.12635  0.61692  1.0000
  H   H2144     1.0  0.31989  0.13098  0.80153  1.0000
  C   C2678     1.0  0.27709  0.09091  0.52877  1.0000
  C   C2679     1.0  0.45959  0.12444  0.61852  1.0000
  H   H2145     1.0  0.36341  0.09314  0.80598  1.0000
  H   H2146     1.0  0.45684  0.20524  0.57163  1.0000
  H   H2147     1.0  0.44586  0.22136  0.72432  1.0000
  H   H2148     1.0  0.26957  0.08944  0.61313  1.0000
  C   C2680     1.0  0.27236  0.08558  0.60154  1.0000
  C   C2681     1.0  0.44780  0.20286  0.65676  1.0000
  H   H2149     1.0  0.46693  0.15153  0.68313  1.0000
  C   C2682     1.0  0.36039  0.20403  0.48959  1.0000
  C   C2683     1.0  0.45295  0.18455  0.59208  1.0000
  H   H2150     1.0  0.25634  0.06314  0.84525  1.0000
  C   C2684     1.0  0.24783  0.19183  0.81767  1.0000
  C   C2685     1.0  0.33735  0.20974  0.69126  1.0000
  C   C2686     1.0  0.34904  0.20897  0.70003  1.0000
  C   C2687     1.0  0.32193  0.08973  0.76602  1.0000
  H   H2151     1.0  0.27862  0.01496  0.71408  1.0000
  S   S380      1.0  0.27069  0.12543  0.60756  1.0000
  C   C2688     1.0  0.25166  0.14435  0.77989  1.0000
  H   H2152     1.0  0.37156  0.19202  0.84780  1.0000
  C   C2689     1.0  0.36727  0.20447  0.73098  1.0000
  C   C2690     1.0  0.38112  0.19870  0.73827  1.0000
  C   C2691     1.0  0.38143  0.18537  0.75197  1.0000
  C   C2692     1.0  0.36794  0.17773  0.75857  1.0000
  C   C2693     1.0  0.35416  0.18336  0.75141  1.0000
  C   C2694     1.0  0.35381  0.19667  0.73777  1.0000
  C   C2695     1.0  0.24475  0.06517  0.69804  1.0000
  H   H2153     1.0  0.35697  0.17924  0.50107  1.0000
  H   H2154     1.0  0.32635  0.17981  0.64834  1.0000
  H   H2155     1.0  0.39149  0.20469  0.73378  1.0000
  H   H2156     1.0  0.29386  0.12878  0.78136  1.0000
  H   H2157     1.0  0.48044  0.15265  0.59738  1.0000
  C   C2696     1.0  0.42982  0.13445  0.62226  1.0000
  H   H2158     1.0  0.47217  0.22673  0.70014  1.0000
  H   H2159     1.0  0.33500  0.19837  0.69016  1.0000
  H   H2160     1.0  0.35566  0.19688  0.70540  1.0000
  H   H2161     1.0  0.31331  0.16349  0.94424  1.0000
  S   S381      1.0  0.24591  0.12301  0.93487  1.0000
  C   C2697     1.0  0.24451  0.20038  0.49087  1.0000
  H   H2162     1.0  0.40833  0.15316  0.67349  1.0000
  H   H2163     1.0  0.30094  0.12869  0.75187  1.0000
  H   H2164     1.0  0.24211  0.18318  0.96415  1.0000
  H   H2165     1.0  0.39189  0.18125  0.75782  1.0000
  H   H2166     1.0  0.36795  0.16774  0.76948  1.0000
  H   H2167     1.0  0.34345  0.17779  0.75675  1.0000
  H   H2168     1.0  0.34270  0.20119  0.73295  1.0000
  C   C2698     1.0  0.30150  0.15225  0.80739  1.0000
  C   C2699     1.0  0.28497  0.15840  0.81436  1.0000
  C   C2700     1.0  0.27377  0.14795  0.82013  1.0000
  C   C2701     1.0  0.27907  0.13135  0.81893  1.0000
  C   C2702     1.0  0.29584  0.12488  0.81262  1.0000
  C   C2703     1.0  0.30696  0.13553  0.80668  1.0000
  C   C2704     1.0  0.36605  0.21027  0.55881  1.0000
  C   C2705     1.0  0.41609  0.18941  0.64804  1.0000
  C   C2706     1.0  0.24171  0.14409  0.79591  1.0000
  H   H2169     1.0  0.40000  0.18346  0.67182  1.0000
  C   C2707     1.0  0.39748  0.22917  0.70666  1.0000
  H   H2170     1.0  0.31796  0.15588  0.91766  1.0000
  C   C2708     1.0  0.26815  0.08175  0.84622  1.0000
  H   H2171     1.0  0.24780  0.98278  0.73470  1.0000
  C   C2709     1.0  0.35166  0.09105  0.81393  1.0000
  C   C2710     1.0  0.46917  0.14702  0.69552  1.0000
  C   C2711     1.0  0.40450  0.22572  0.67407  1.0000
  H   H2172     1.0  0.28650  0.06142  0.61049  1.0000
  P   P90       1.0  0.31052  0.17492  0.88557  1.0000
  C   C2712     1.0  0.41409  0.16151  0.66298  1.0000
  H   H2173     1.0  0.28966  0.14675  0.50897  1.0000
  C   C2713     1.0  0.38583  0.22473  0.70109  1.0000
  C   C2714     1.0  0.47463  0.19633  0.66361  1.0000
  H   H2174     1.0  0.26001  0.21030  0.84989  1.0000
  C   C2715     1.0  0.45048  0.19508  0.57699  1.0000
  H   H2175     1.0  0.31025  0.16030  0.80308  1.0000
  H   H2176     1.0  0.28100  0.17113  0.81564  1.0000
  H   H2177     1.0  0.26105  0.15261  0.82583  1.0000
  H   H2178     1.0  0.27006  0.12367  0.82311  1.0000
  H   H2179     1.0  0.24473  0.14142  0.58984  1.0000
  C   C2716     1.0  0.32860  0.22507  0.68406  1.0000
  C   C2717     1.0  0.27836  0.12924  0.52915  1.0000
  H   H2180     1.0  0.43226  0.19175  0.62400  1.0000
  C   C2718     1.0  0.40938  0.17857  0.66204  1.0000
  C   C2719     1.0  0.28355  0.01073  0.78541  1.0000
  C   C2720     1.0  0.44156  0.19343  0.67216  1.0000
  C   C2721     1.0  0.26093  0.13884  0.96739  1.0000
  C   C2722     1.0  0.28190  0.06982  0.60003  1.0000
  H   H2181     1.0  0.27606  0.19745  0.68455  1.0000
  C   C2723     1.0  0.33490  0.20239  0.64308  1.0000
  H   H2182     1.0  0.25470  0.05723  0.64127  1.0000
  H   H2183     1.0  0.31686  0.22298  0.96359  1.0000
  S   S382      1.0  0.25016  0.12908  0.86074  1.0000
  H   H2184     1.0  0.25957  0.10892  0.58929  1.0000
  C   C2724     1.0  0.29630  0.00746  0.77184  1.0000
  C   C2725     1.0  0.25889  0.11317  0.70911  1.0000
  C   C2726     1.0  0.26138  0.09668  0.71786  1.0000
  C   C2727     1.0  0.24842  0.09089  0.72993  1.0000
  C   C2728     1.0  0.30213  0.18902  0.93552  1.0000
  C   C2729     1.0  0.25414  0.13010  0.96029  1.0000
  C   C2730     1.0  0.24728  0.08367  0.52905  1.0000
  C   C2731     1.0  0.28258  0.17838  0.87333  1.0000
  C   C2732     1.0  0.31590  0.10384  0.75485  1.0000
  C   C2733     1.0  0.30031  0.12872  0.90337  1.0000
  H   H2185     1.0  0.25802  0.01062  0.79729  1.0000
  C   C2734     1.0  0.26090  0.11446  0.78662  1.0000
  C   C2735     1.0  0.28973  0.00521  0.71420  1.0000
  C   C2736     1.0  0.30648  0.18034  0.90532  1.0000
  Fe  Fe197     1.0  0.24477  0.12512  0.62229  1.0000
  C   C2737     1.0  0.27786  0.99823  0.76120  1.0000
  C   C2738     1.0  0.32280  0.19303  0.64797  1.0000
  C   C2739     1.0  0.35173  0.22360  0.70208  1.0000
  C   C2740     1.0  0.34209  0.21971  0.53971  1.0000
  C   C2741     1.0  0.29428  0.18631  0.87455  1.0000
  C   C2742     1.0  0.44427  0.17176  0.59951  1.0000
  H   H2186     1.0  0.26881  0.11754  0.69942  1.0000
  H   H2187     1.0  0.27327  0.08831  0.71520  1.0000
  H   H2188     1.0  0.25024  0.07806  0.73659  1.0000
  C   C2743     1.0  0.42741  0.18322  0.63489  1.0000
  C   C2744     1.0  0.46429  0.20434  0.65255  1.0000
  H   H2189     1.0  0.26153  0.18069  0.86332  1.0000
  H   H2190     1.0  0.26800  0.17690  0.58916  1.0000
  H   H2191     1.0  0.30824  0.01007  0.77060  1.0000
  H   H2192     1.0  0.36223  0.07736  0.83496  1.0000
  H   H2193     1.0  0.30362  0.99874  0.74947  1.0000
  H   H2194     1.0  0.25938  0.21175  0.93397  1.0000
  C   C2745     1.0  0.29355  0.20305  0.86656  1.0000
  S   S383      1.0  0.36666  0.22223  0.60926  1.0000
  S   S384      1.0  0.31838  0.22205  0.50639  1.0000
  C   C2746     1.0  0.27377  0.21638  0.71500  1.0000
  C   C2747     1.0  0.30414  0.03795  0.72316  1.0000
  H   H2195     1.0  0.24412  0.16233  0.56364  1.0000
  Fe  Fe198     1.0  0.31475  0.21359  0.77777  1.0000
  H   H2196     1.0  0.27322  0.19160  0.71466  1.0000
  P   P91       1.0  0.44759  0.15818  0.61910  1.0000
  S   S385      1.0  0.28125  0.21561  0.51263  1.0000
  H   H2197     1.0  0.28320  0.07220  0.55980  1.0000
  C   C2748     1.0  0.25027  0.18377  0.78781  1.0000
  C   C2749     1.0  0.27556  0.20735  0.69030  1.0000
  H   H2198     1.0  0.45927  0.16570  0.64488  1.0000
  H   H2199     1.0  0.26860  0.12996  0.76284  1.0000
  H   H2200     1.0  0.42873  0.19259  0.67522  1.0000
  H   H2201     1.0  0.27272  0.21368  0.72824  1.0000
  H   H2202     1.0  0.46150  0.18663  0.59797  1.0000
  C   C2750     1.0  0.25241  0.21463  0.94574  1.0000
  H   H2203     1.0  0.46860  0.09848  0.61820  1.0000
  H   H2204     1.0  0.48626  0.16977  0.64538  1.0000
  C   C2751     1.0  0.27042  0.09198  0.57280  1.0000
  H   H2205     1.0  0.36992  0.18588  0.55418  1.0000
  C   C2752     1.0  0.25130  0.11409  0.80264  1.0000
  C   C2753     1.0  0.42575  0.15525  0.65006  1.0000
  C   C2754     1.0  0.25898  0.19506  0.78834  1.0000
  H   H2206     1.0  0.29032  0.11364  0.56598  1.0000
  C   C2755     1.0  0.29682  0.20095  0.92224  1.0000
  H   H2207     1.0  0.33265  0.22349  0.53258  1.0000
  H   H2208     1.0  0.26520  0.19961  0.56435  1.0000
  C   C2756     1.0  0.30134  0.21772  0.65200  1.0000
  S   S386      1.0  0.31764  0.21754  0.82046  1.0000
  H   H2209     1.0  0.34283  0.22793  0.74598  1.0000
  H   H2210     1.0  0.24878  0.15100  0.64097  1.0000
  C   C2757     1.0  0.30008  0.14547  0.90129  1.0000
  H   H2211     1.0  0.42166  0.17892  0.57048  1.0000
  H   H2212     1.0  0.30038  0.19221  0.94727  1.0000
  C   C2758     1.0  0.30643  0.21132  0.57999  1.0000
  C   C2759     1.0  0.24006  0.20840  0.66121  1.0000
  H   H2213     1.0  0.36704  0.22176  0.77719  1.0000
  C   C2760     1.0  0.30957  0.17280  0.93378  1.0000
  H   H2214     1.0  0.28557  0.01594  0.79457  1.0000
  H   H2215     1.0  0.42899  0.21233  0.75201  1.0000
  C   C2761     1.0  0.41590  0.23038  0.67968  1.0000
  C   C2762     1.0  0.46294  0.21279  0.60932  1.0000
  C   C2763     1.0  0.27683  0.22326  0.68075  1.0000
  Fe  Fe199     1.0  0.24778  0.12630  0.90736  1.0000
  H   H2216     1.0  0.46902  0.21192  0.64077  1.0000
  H   H2217     1.0  0.27104  0.19902  0.95900  1.0000
  C   C2764     1.0  0.46969  0.16322  0.63480  1.0000
  H   H2218     1.0  0.47749  0.12992  0.73970  1.0000
  C   C2765     1.0  0.47520  0.13476  0.72734  1.0000
  C   C2766     1.0  0.44923  0.22052  0.60207  1.0000
  C   C2767     1.0  0.24520  0.16208  0.67686  1.0000
  H   H2219     1.0  0.25974  0.23113  0.76555  1.0000
  H   H2220     1.0  0.40687  0.22522  0.66120  1.0000
  C   C2768     1.0  0.26798  0.00787  0.78687  1.0000
  P   P92       1.0  0.27391  0.99035  0.74562  1.0000
  H   H2221     1.0  0.24367  0.21689  0.53276  1.0000
  H   H2222     1.0  0.48740  0.19763  0.66022  1.0000
  H   H2223     1.0  0.32813  0.99511  0.69005  1.0000
  H   H2224     1.0  0.26970  0.22774  0.47912  1.0000
  Fe  Fe200     1.0  0.29435  0.22636  0.52468  1.0000
  C   C2769     1.0  0.48471  0.12681  0.71461  1.0000
  H   H2225     1.0  0.34696  0.17638  0.47793  1.0000
  C   C2770     1.0  0.35053  0.18771  0.47722  1.0000
  C   C2771     1.0  0.25031  0.21682  0.66421  1.0000
  P   P93       1.0  0.27973  0.22713  0.65868  1.0000
  H   H2226     1.0  0.24168  0.13649  0.70532  1.0000
  C   C2772     1.0  0.24568  0.20011  0.64824  1.0000
  C   C2773     1.0  0.35896  0.21721  0.47591  1.0000
  H   H2227     1.0  0.24153  0.19650  0.74616  1.0000
  H   H2228     1.0  0.24583  0.22305  0.67442  1.0000
  C   C2774     1.0  0.24058  0.15743  0.66479  1.0000
  C   C2775     1.0  0.23974  0.17683  0.80214  1.0000
  H   H2229     1.0  0.48554  0.16958  0.71996  1.0000
  H   H2230     1.0  0.31930  0.22555  0.67765  1.0000
  C   C2776     1.0  0.29298  0.22369  0.57557  1.0000
  H   H2231     1.0  0.23900  0.18367  0.88874  1.0000
  C   C2777     1.0  0.42306  0.34562  0.11568  1.0000
  H   H2232     1.0  0.38436  0.28203  0.08601  1.0000
  P   P94       1.0  0.29037  0.25019  0.02102  1.0000
  H   H2233     1.0  0.30150  0.27537  0.43248  1.0000
  H   H2234     1.0  0.38159  0.43193  0.08439  1.0000
  H   H2235     1.0  0.47629  0.23782  0.21354  1.0000
  C   C2778     1.0  0.30505  0.28714  0.20415  1.0000
  C   C2779     1.0  0.25389  0.23950  0.46180  1.0000
  H   H2236     1.0  0.39335  0.28129  0.11127  1.0000
  Fe  Fe201     1.0  0.27793  0.43090  0.15855  1.0000
  S   S387      1.0  0.28446  0.44556  0.13266  1.0000
  S   S388      1.0  0.25276  0.43892  0.17410  1.0000
  Fe  Fe202     1.0  0.31257  0.40967  0.15723  1.0000
  S   S389      1.0  0.32203  0.42295  0.13144  1.0000
  S   S390      1.0  0.32901  0.38856  0.17117  1.0000
  Fe  Fe203     1.0  0.30730  0.44619  0.14015  1.0000
  S   S391      1.0  0.31584  0.47036  0.13372  1.0000
  Fe  Fe204     1.0  0.29829  0.42083  0.12668  1.0000
  S   S392      1.0  0.29989  0.41013  0.10491  1.0000
  S   S393      1.0  0.29980  0.43298  0.16638  1.0000
  S   S394      1.0  0.28985  0.40610  0.15207  1.0000
  Fe  Fe205     1.0  0.42411  0.29959  0.14329  1.0000
  S   S395      1.0  0.40520  0.31957  0.15419  1.0000
  S   S396      1.0  0.45157  0.29929  0.13661  1.0000
  Fe  Fe206     1.0  0.39821  0.28015  0.14647  1.0000
  S   S397      1.0  0.37746  0.29829  0.15855  1.0000
  S   S398      1.0  0.39141  0.25786  0.14326  1.0000
  Fe  Fe207     1.0  0.38906  0.31734  0.13900  1.0000
  S   S399      1.0  0.37160  0.33829  0.12622  1.0000
  Fe  Fe208     1.0  0.39534  0.29871  0.17283  1.0000
  S   S400      1.0  0.38759  0.30314  0.19854  1.0000
  S   S401      1.0  0.40893  0.29929  0.12588  1.0000
  S   S402      1.0  0.41517  0.27859  0.16289  1.0000
  H   H2237     1.0  0.34105  0.29014  0.23497  1.0000
  H   H2238     1.0  0.37577  0.30263  0.23260  1.0000
  Fe  Fe209     1.0  0.25898  0.33086  0.08012  1.0000
  S   S403      1.0  0.28500  0.31723  0.07152  1.0000
  H   H2239     1.0  0.45604  0.25557  0.30796  1.0000
  H   H2240     1.0  0.35008  0.29056  0.05472  1.0000
  H   H2241     1.0  0.33320  0.39956  0.10434  1.0000
  C   C2780     1.0  0.39863  0.23921  0.29762  1.0000
  H   H2242     1.0  0.37262  0.27994  0.25733  1.0000
  S   S404      1.0  0.33629  0.24443  0.06438  1.0000
  C   C2781     1.0  0.28786  0.29557  0.07737  1.0000
  C   C2782     1.0  0.27552  0.28763  0.07789  1.0000
  C   C2783     1.0  0.27790  0.27032  0.08319  1.0000
  C   C2784     1.0  0.29253  0.26096  0.08811  1.0000
  C   C2785     1.0  0.30491  0.26892  0.08744  1.0000
  C   C2786     1.0  0.30265  0.28615  0.08189  1.0000
  H   H2243     1.0  0.26427  0.29478  0.07395  1.0000
  H   H2244     1.0  0.26860  0.26419  0.08311  1.0000
  H   H2245     1.0  0.31625  0.26181  0.09124  1.0000
  H   H2246     1.0  0.31225  0.29223  0.08141  1.0000
  C   C2787     1.0  0.38567  0.25863  0.12486  1.0000
  C   C2788     1.0  0.38772  0.27163  0.11102  1.0000
  C   C2789     1.0  0.48536  0.23147  0.17184  1.0000
  C   C2790     1.0  0.37507  0.25971  0.09630  1.0000
  H   H2247     1.0  0.35332  0.23922  0.17350  1.0000
  C   C2791     1.0  0.37855  0.24606  0.12424  1.0000
  C   C2792     1.0  0.40408  0.43928  0.06988  1.0000
  C   C2793     1.0  0.34010  0.25669  0.24606  1.0000
  H   H2248     1.0  0.39053  0.25406  0.18012  1.0000
  H   H2249     1.0  0.36987  0.36531  0.07303  1.0000
  C   C2794     1.0  0.28287  0.40332  0.10348  1.0000
  C   C2795     1.0  0.26660  0.41067  0.11015  1.0000
  H   H2250     1.0  0.41930  0.38476  0.11943  1.0000
  C   C2796     1.0  0.25602  0.39269  0.10003  1.0000
  C   C2797     1.0  0.27230  0.38518  0.09351  1.0000
  C   C2798     1.0  0.28566  0.39075  0.09491  1.0000
  H   H2251     1.0  0.26431  0.42056  0.11649  1.0000
  C   C2799     1.0  0.30546  0.46801  0.23610  1.0000
  H   H2252     1.0  0.27457  0.37533  0.08711  1.0000
  H   H2253     1.0  0.29822  0.38513  0.08957  1.0000
  C   C2800     1.0  0.35961  0.35193  0.13895  1.0000
  C   C2801     1.0  0.34794  0.36556  0.13290  1.0000
  C   C2802     1.0  0.33829  0.37668  0.14287  1.0000
  C   C2803     1.0  0.34053  0.37435  0.15884  1.0000
  C   C2804     1.0  0.35215  0.36064  0.16496  1.0000
  C   C2805     1.0  0.36157  0.34934  0.15507  1.0000
  H   H2254     1.0  0.34638  0.36757  0.12045  1.0000
  H   H2255     1.0  0.32914  0.38704  0.13816  1.0000
  H   H2256     1.0  0.35393  0.35883  0.17729  1.0000
  H   H2257     1.0  0.37039  0.33868  0.15991  1.0000
  H   H2258     1.0  0.34401  0.32508  0.17831  1.0000
  H   H2259     1.0  0.36753  0.44052  0.13829  1.0000
  C   C2806     1.0  0.37454  0.39853  0.09459  1.0000
  C   C2807     1.0  0.32702  0.27388  0.03191  1.0000
  C   C2808     1.0  0.38033  0.25002  0.18965  1.0000
  H   H2260     1.0  0.42837  0.44322  0.05661  1.0000
  C   C2809     1.0  0.31872  0.26108  0.19589  1.0000
  C   C2810     1.0  0.39181  0.26985  0.21400  1.0000
  C   C2811     1.0  0.38643  0.28637  0.21562  1.0000
  C   C2812     1.0  0.38329  0.26054  0.24380  1.0000
  H   H2261     1.0  0.31495  0.24715  0.28386  1.0000
  H   H2262     1.0  0.39724  0.26710  0.20192  1.0000
  S   S405      1.0  0.48034  0.35203  0.15301  1.0000
  C   C2813     1.0  0.24418  0.26170  0.11849  1.0000
  C   C2814     1.0  0.31543  0.34161  0.16027  1.0000
  H   H2263     1.0  0.26685  0.40361  0.18319  1.0000
  C   C2815     1.0  0.47248  0.33686  0.14916  1.0000
  C   C2816     1.0  0.28868  0.33460  0.16539  1.0000
  C   C2817     1.0  0.47635  0.31091  0.14103  1.0000
  C   C2818     1.0  0.45924  0.31353  0.14226  1.0000
  C   C2819     1.0  0.44874  0.32773  0.14727  1.0000
  C   C2820     1.0  0.45537  0.33952  0.15034  1.0000
  H   H2264     1.0  0.40658  0.37835  0.14988  1.0000
  C   C2821     1.0  0.28839  0.29252  0.12994  1.0000
  H   H2265     1.0  0.43556  0.32986  0.14842  1.0000
  H   H2266     1.0  0.44716  0.35062  0.15380  1.0000
  H   H2267     1.0  0.39020  0.39806  0.07019  1.0000
  H   H2268     1.0  0.29230  0.45397  0.19157  1.0000
  C   C2822     1.0  0.28850  0.23209  0.05368  1.0000
  H   H2269     1.0  0.32884  0.25029  0.19557  1.0000
  H   H2270     1.0  0.48057  0.24178  0.26040  1.0000
  H   H2271     1.0  0.24453  0.23823  0.09224  1.0000
  C   C2823     1.0  0.31936  0.46859  0.16516  1.0000
  H   H2272     1.0  0.38920  0.36594  0.09964  1.0000
  C   C2824     1.0  0.32811  0.26394  0.23644  1.0000
  H   H2273     1.0  0.34752  0.33575  0.20061  1.0000
  C   C2825     1.0  0.24176  0.24894  0.09758  1.0000
  H   H2274     1.0  0.31876  0.45571  0.16788  1.0000
  C   C2826     1.0  0.33993  0.30161  0.19408  1.0000
  H   H2275     1.0  0.39767  0.45139  0.06422  1.0000
  H   H2276     1.0  0.46785  0.37343  0.20934  1.0000
  C   C2827     1.0  0.48797  0.24116  0.18108  1.0000
  C   C2828     1.0  0.47870  0.24495  0.22076  1.0000
  C   C2829     1.0  0.34123  0.29768  0.22263  1.0000
  C   C2830     1.0  0.24970  0.39425  0.20498  1.0000
  H   H2277     1.0  0.28314  0.36663  0.12794  1.0000
  H   H2278     1.0  0.26607  0.32857  0.14388  1.0000
  H   H2279     1.0  0.39299  0.35536  0.15454  1.0000
  C   C2831     1.0  0.37777  0.39849  0.07773  1.0000
  C   C2832     1.0  0.40961  0.34833  0.10848  1.0000
  C   C2833     1.0  0.42053  0.40788  0.08426  1.0000
  Fe  Fe210     1.0  0.35585  0.24087  0.07848  1.0000
  C   C2834     1.0  0.25755  0.32351  0.17051  1.0000
  C   C2835     1.0  0.42136  0.43467  0.06559  1.0000
  C   C2836     1.0  0.34291  0.31751  0.19072  1.0000
  H   H2280     1.0  0.43690  0.35677  0.12515  1.0000
  C   C2837     1.0  0.29889  0.27171  0.03461  1.0000
  C   C2838     1.0  0.32192  0.25427  0.01950  1.0000
  H   H2281     1.0  0.40661  0.33797  0.10599  1.0000
  C   C2839     1.0  0.25445  0.34094  0.22818  1.0000
  C   C2840     1.0  0.44242  0.23614  0.31856  1.0000
  C   C2841     1.0  0.36612  0.26166  0.19478  1.0000
  H   H2282     1.0  0.44842  0.40095  0.20805  1.0000
  H   H2283     1.0  0.43068  0.33323  0.11847  1.0000
  H   H2284     1.0  0.37857  0.38104  0.13722  1.0000
  H   H2285     1.0  0.26503  0.44856  0.26139  1.0000
  H   H2286     1.0  0.35540  0.39910  0.11705  1.0000
  H   H2287     1.0  0.29013  0.31062  0.16073  1.0000
  H   H2288     1.0  0.36731  0.39939  0.05742  1.0000
  C   C2842     1.0  0.42651  0.35885  0.11954  1.0000
  C   C2843     1.0  0.36487  0.39919  0.07046  1.0000
  S   S406      1.0  0.25283  0.33809  0.10452  1.0000
  C   C2844     1.0  0.26046  0.45813  0.26844  1.0000
  C   C2845     1.0  0.41657  0.37474  0.11616  1.0000
  C   C2846     1.0  0.32344  0.32679  0.15517  1.0000
  H   H2289     1.0  0.28622  0.24396  0.12795  1.0000
  C   C2847     1.0  0.39978  0.36429  0.10485  1.0000
  H   H2290     1.0  0.27830  0.34612  0.11561  1.0000
  H   H2291     1.0  0.48457  0.30006  0.13700  1.0000
  H   H2292     1.0  0.34600  0.31822  0.22885  1.0000
  C   C2848     1.0  0.31415  0.31575  0.15537  1.0000
  C   C2849     1.0  0.29269  0.27658  0.18835  1.0000
  C   C2850     1.0  0.38423  0.23363  0.44267  1.0000
  C   C2851     1.0  0.37974  0.28989  0.23129  1.0000
  C   C2852     1.0  0.25793  0.45866  0.23110  1.0000
  H   H2293     1.0  0.42669  0.40869  0.19215  1.0000
  H   H2294     1.0  0.36853  0.24374  0.33217  1.0000
  P   P95       1.0  0.26643  0.33908  0.17321  1.0000
  H   H2295     1.0  0.36765  0.23694  0.10987  1.0000
  C   C2853     1.0  0.27195  0.28209  0.01103  1.0000
  C   C2854     1.0  0.45156  0.39375  0.12754  1.0000
  C   C2855     1.0  0.27072  0.33470  0.22047  1.0000
  H   H2296     1.0  0.28270  0.27784  0.18242  1.0000
  H   H2297     1.0  0.26478  0.23425  0.38893  1.0000
  C   C2856     1.0  0.37318  0.24665  0.11009  1.0000
  H   H2298     1.0  0.39331  0.45028  0.17206  1.0000
  C   C2857     1.0  0.25203  0.25094  0.42305  1.0000
  C   C2858     1.0  0.26244  0.47444  0.26119  1.0000
  C   C2859     1.0  0.27975  0.23475  0.13654  1.0000
  C   C2860     1.0  0.30653  0.25913  0.26121  1.0000
  H   H2299     1.0  0.24836  0.25159  0.17296  1.0000
  P   P96       1.0  0.25111  0.25993  0.13712  1.0000
  C   C2861     1.0  0.37892  0.42218  0.12344  1.0000
  C   C2862     1.0  0.29502  0.25090  0.98740  1.0000
  C   C2863     1.0  0.35835  0.39899  0.10407  1.0000
  C   C2864     1.0  0.24136  0.30220  0.18173  1.0000
  C   C2865     1.0  0.25228  0.45404  0.28499  1.0000
  C   C2866     1.0  0.32180  0.46931  0.23399  1.0000
  C   C2867     1.0  0.28034  0.24343  0.39840  1.0000
  C   C2868     1.0  0.36543  0.41599  0.15239  1.0000
  C   C2869     1.0  0.33214  0.24771  0.45016  1.0000
  H   H2300     1.0  0.28720  0.32907  0.19813  1.0000
  H   H2301     1.0  0.33684  0.32397  0.15099  1.0000
  P   P97       1.0  0.33461  0.27125  0.21437  1.0000
  H   H2302     1.0  0.28360  0.28605  0.00712  1.0000
  C   C2870     1.0  0.48074  0.24712  0.24745  1.0000
  H   H2303     1.0  0.25130  0.30984  0.13983  1.0000
  H   H2304     1.0  0.33564  0.27913  0.03483  1.0000
  C   C2871     1.0  0.32191  0.47522  0.17719  1.0000
  C   C2872     1.0  0.45665  0.36551  0.19435  1.0000
  H   H2305     1.0  0.27023  0.43798  0.19988  1.0000
  C   C2873     1.0  0.48293  0.32237  0.14475  1.0000
  C   C2874     1.0  0.26516  0.27331  0.13437  1.0000
  H   H2306     1.0  0.32577  0.29119  0.10399  1.0000
  C   C2875     1.0  0.33298  0.26143  0.02289  1.0000
  H   H2307     1.0  0.37315  0.25229  0.30156  1.0000
  S   S407      1.0  0.24787  0.35603  0.06633  1.0000
  C   C2876     1.0  0.47833  0.23805  0.23752  1.0000
  H   H2308     1.0  0.32030  0.30419  0.15155  1.0000
  H   H2309     1.0  0.23982  0.24121  0.41019  1.0000
  H   H2310     1.0  0.26754  0.26111  0.43175  1.0000
  H   H2311     1.0  0.46137  0.27725  0.16825  1.0000
  C   C2877     1.0  0.36592  0.26045  0.43600  1.0000
  C   C2878     1.0  0.26196  0.33945  0.19480  1.0000
  C   C2879     1.0  0.29689  0.31957  0.16049  1.0000
  C   C2880     1.0  0.37800  0.27706  0.24528  1.0000
  C   C2881     1.0  0.32657  0.25103  0.46606  1.0000
  C   C2882     1.0  0.26542  0.23999  0.39837  1.0000
  C   C2883     1.0  0.33907  0.29155  0.21008  1.0000
  S   S408      1.0  0.36808  0.26103  0.07843  1.0000
  H   H2312     1.0  0.24068  0.41182  0.11267  1.0000
  C   C2884     1.0  0.34878  0.39957  0.08006  1.0000
  H   H2313     1.0  0.30539  0.28819  0.04534  1.0000
  H   H2314     1.0  0.33868  0.40009  0.07457  1.0000
  C   C2885     1.0  0.42607  0.41311  0.12265  1.0000
  C   C2886     1.0  0.46828  0.23570  0.32487  1.0000
  C   C2887     1.0  0.30856  0.26859  0.44181  1.0000
  P   P98       1.0  0.39102  0.39850  0.10373  1.0000
  C   C2888     1.0  0.39845  0.34974  0.19338  1.0000
  C   C2889     1.0  0.39357  0.34715  0.18035  1.0000
  C   C2890     1.0  0.39669  0.35744  0.16467  1.0000
  C   C2891     1.0  0.40453  0.37041  0.16203  1.0000
  C   C2892     1.0  0.40940  0.37318  0.17504  1.0000
  C   C2893     1.0  0.40627  0.36278  0.19079  1.0000
  P   P99       1.0  0.41794  0.39098  0.17201  1.0000
  C   C2894     1.0  0.40145  0.40812  0.17771  1.0000
  C   C2895     1.0  0.43342  0.38540  0.18426  1.0000
  C   C2896     1.0  0.44432  0.36975  0.18533  1.0000
  C   C2897     1.0  0.25571  0.40679  0.19225  1.0000
  C   C2898     1.0  0.25105  0.31051  0.15222  1.0000
  C   C2899     1.0  0.40413  0.42435  0.17255  1.0000
  C   C2900     1.0  0.39123  0.43777  0.17620  1.0000
  H   H2315     1.0  0.25154  0.34213  0.24091  1.0000
  C   C2901     1.0  0.37284  0.41901  0.19041  1.0000
  C   C2902     1.0  0.38568  0.40556  0.18672  1.0000
  C   C2903     1.0  0.42766  0.39679  0.15038  1.0000
  C   C2904     1.0  0.41856  0.40851  0.13935  1.0000
  C   C2905     1.0  0.30476  0.25964  0.02500  1.0000
  H   H2316     1.0  0.39609  0.34161  0.20548  1.0000
  C   C2906     1.0  0.38255  0.27208  0.09676  1.0000
  H   H2317     1.0  0.42723  0.39570  0.08923  1.0000
  H   H2318     1.0  0.40969  0.36483  0.20109  1.0000
  H   H2319     1.0  0.44358  0.36092  0.17890  1.0000
  H   H2320     1.0  0.35840  0.42015  0.16357  1.0000
  H   H2321     1.0  0.41616  0.42663  0.16554  1.0000
  H   H2322     1.0  0.35318  0.25570  0.24044  1.0000
  H   H2323     1.0  0.29256  0.25388  0.41039  1.0000
  H   H2324     1.0  0.34622  0.25692  0.01893  1.0000
  H   H2325     1.0  0.38313  0.39326  0.19076  1.0000
  H   H2326     1.0  0.40564  0.41405  0.14359  1.0000
  H   H2327     1.0  0.31178  0.36736  0.12764  1.0000
  C   C2907     1.0  0.43806  0.30331  0.19637  1.0000
  C   C2908     1.0  0.44262  0.31857  0.19215  1.0000
  C   C2909     1.0  0.45938  0.31913  0.18816  1.0000
  C   C2910     1.0  0.47162  0.30454  0.18789  1.0000
  C   C2911     1.0  0.46716  0.28922  0.19174  1.0000
  C   C2912     1.0  0.45028  0.28865  0.19646  1.0000
  H   H2328     1.0  0.24378  0.24204  0.35500  1.0000
  H   H2329     1.0  0.48538  0.28275  0.21904  1.0000
  C   C2913     1.0  0.47879  0.25752  0.18062  1.0000
  H   H2330     1.0  0.28203  0.29947  0.19659  1.0000
  H   H2331     1.0  0.34401  0.23504  0.22347  1.0000
  C   C2914     1.0  0.38209  0.40537  0.12294  1.0000
  C   C2915     1.0  0.37915  0.26817  0.43277  1.0000
  H   H2332     1.0  0.39421  0.24413  0.22690  1.0000
  S   S409      1.0  0.29570  0.23928  0.09456  1.0000
  C   C2916     1.0  0.28574  0.23323  0.03808  1.0000
  C   C2917     1.0  0.28104  0.25108  0.41043  1.0000
  C   C2918     1.0  0.29925  0.24207  0.00252  1.0000
  C   C2919     1.0  0.29816  0.34558  0.16523  1.0000
  H   H2333     1.0  0.26075  0.28874  0.11074  1.0000
  H   H2334     1.0  0.36067  0.41696  0.19722  1.0000
  C   C2920     1.0  0.45813  0.37674  0.20252  1.0000
  C   C2921     1.0  0.27146  0.26538  0.01822  1.0000
  H   H2335     1.0  0.30456  0.29671  0.21031  1.0000
  H   H2336     1.0  0.29236  0.35713  0.16914  1.0000
  H   H2337     1.0  0.42506  0.30281  0.19948  1.0000
  H   H2338     1.0  0.43320  0.32993  0.19185  1.0000
  H   H2339     1.0  0.46300  0.33091  0.18485  1.0000
  H   H2340     1.0  0.44295  0.41527  0.06917  1.0000
  H   H2341     1.0  0.44657  0.27688  0.19994  1.0000
  C   C2922     1.0  0.24696  0.42330  0.19105  1.0000
  H   H2342     1.0  0.35384  0.26805  0.43453  1.0000
  H   H2343     1.0  0.28046  0.33088  0.22731  1.0000
  C   C2923     1.0  0.35405  0.23943  0.21402  1.0000
  H   H2344     1.0  0.24768  0.31463  0.19662  1.0000
  C   C2924     1.0  0.27449  0.33382  0.20386  1.0000
  C   C2925     1.0  0.47393  0.23819  0.16167  1.0000
  H   H2345     1.0  0.36554  0.44555  0.18776  1.0000
  C   C2926     1.0  0.32310  0.25675  0.43800  1.0000
  C   C2927     1.0  0.25127  0.24385  0.41055  1.0000
  H   H2346     1.0  0.29387  0.24110  0.05579  1.0000
  C   C2928     1.0  0.45549  0.24372  0.31650  1.0000
  C   C2929     1.0  0.31820  0.47848  0.14946  1.0000
  H   H2347     1.0  0.29130  0.24025  0.38902  1.0000
  H   H2348     1.0  0.24801  0.44127  0.22491  1.0000
  H   H2349     1.0  0.25772  0.30680  0.00360  1.0000
  H   H2350     1.0  0.48450  0.30528  0.18462  1.0000
  C   C2930     1.0  0.46527  0.25468  0.16059  1.0000
  C   C2931     1.0  0.26687  0.25506  0.42258  1.0000
  H   H2351     1.0  0.27338  0.47336  0.17215  1.0000
  H   H2352     1.0  0.33556  0.34716  0.11575  1.0000
  H   H2353     1.0  0.42688  0.24027  0.15882  1.0000
  C   C2932     1.0  0.44257  0.40572  0.11675  1.0000
  C   C2933     1.0  0.46777  0.26434  0.16989  1.0000
  H   H2354     1.0  0.26604  0.37227  0.17647  1.0000
  C   C2934     1.0  0.25735  0.29387  0.00885  1.0000
  H   H2355     1.0  0.32725  0.25477  0.42554  1.0000
  C   C2935     1.0  0.48180  0.26092  0.21374  1.0000
  H   H2356     1.0  0.29352  0.26019  0.26716  1.0000
  C   C2936     1.0  0.30308  0.27171  0.45770  1.0000
  H   H2357     1.0  0.27342  0.26030  0.15701  1.0000
  C   C2937     1.0  0.33534  0.25060  0.26306  1.0000
  H   H2358     1.0  0.38739  0.33714  0.18241  1.0000
  C   C2938     1.0  0.36884  0.39923  0.15210  1.0000
  C   C2939     1.0  0.30999  0.27892  0.03789  1.0000
  C   C2940     1.0  0.31857  0.25181  0.27065  1.0000
  C   C2941     1.0  0.27080  0.46718  0.22689  1.0000
  C   C2942     1.0  0.39501  0.42823  0.08138  1.0000
  C   C2943     1.0  0.37054  0.42745  0.13810  1.0000
  C   C2944     1.0  0.37693  0.39395  0.13741  1.0000
  S   S410      1.0  0.38028  0.24506  0.26185  1.0000
  H   H2359     1.0  0.40961  0.23403  0.44089  1.0000
  H   H2360     1.0  0.30195  0.32623  0.10297  1.0000
  H   H2361     1.0  0.38238  0.43139  0.11254  1.0000
  H   H2362     1.0  0.25532  0.24783  0.02804  1.0000
  C   C2945     1.0  0.35294  0.25646  0.20718  1.0000
  H   H2363     1.0  0.43287  0.24253  0.31170  1.0000
  H   H2364     1.0  0.28577  0.27547  0.03974  1.0000
  C   C2946     1.0  0.27893  0.29574  0.11821  1.0000
  C   C2947     1.0  0.40339  0.37770  0.10840  1.0000
  C   C2948     1.0  0.31833  0.27323  0.20406  1.0000
  C   C2949     1.0  0.29226  0.28875  0.19638  1.0000
  H   H2365     1.0  0.30311  0.45634  0.23594  1.0000
  H   H2366     1.0  0.36574  0.27465  0.18935  1.0000
  C   C2950     1.0  0.26749  0.28612  0.12029  1.0000
  C   C2951     1.0  0.25619  0.26060  0.02276  1.0000
  H   H2367     1.0  0.32261  0.35014  0.16024  1.0000
  H   H2368     1.0  0.24791  0.46016  0.24180  1.0000
  C   C2952     1.0  0.25325  0.40566  0.10803  1.0000
  C   C2953     1.0  0.39023  0.25688  0.22814  1.0000
  H   H2369     1.0  0.36459  0.39041  0.16313  1.0000
  H   H2370     1.0  0.28058  0.30563  0.10734  1.0000
  C   C2954     1.0  0.28275  0.45520  0.20267  1.0000
  C   C2955     1.0  0.48316  0.26323  0.24074  1.0000
  H   H2371     1.0  0.41902  0.42228  0.11426  1.0000
  H   H2372     1.0  0.45151  0.38010  0.15230  1.0000
  C   C2956     1.0  0.43491  0.39659  0.19263  1.0000
  H   H2373     1.0  0.25421  0.23582  0.11715  1.0000
  H   H2374     1.0  0.33194  0.45881  0.23194  1.0000
  C   C2957     1.0  0.40316  0.41251  0.08888  1.0000
  H   H2375     1.0  0.46529  0.35358  0.19478  1.0000
  C   C2958     1.0  0.42956  0.41896  0.07272  1.0000
  C   C2959     1.0  0.28633  0.27973  0.14390  1.0000
  C   C2960     1.0  0.34490  0.32356  0.20329  1.0000
  H   H2376     1.0  0.25257  0.33336  0.34883  1.0000
  C   C2961     1.0  0.27465  0.27030  0.14622  1.0000
  C   C2962     1.0  0.27030  0.44623  0.20732  1.0000
  C   C2963     1.0  0.28290  0.46580  0.21226  1.0000
  H   H2377     1.0  0.24001  0.46298  0.30729  1.0000
  C   C2964     1.0  0.38314  0.24451  0.30741  1.0000
  H   H2378     1.0  0.44839  0.40917  0.10381  1.0000
  C   C2965     1.0  0.44722  0.39225  0.20172  1.0000
  C   C2966     1.0  0.34402  0.31367  0.21923  1.0000
  P   P100      1.0  0.27134  0.48063  0.23942  1.0000
  C   C2967     1.0  0.34560  0.39936  0.09685  1.0000
  C   C2968     1.0  0.25922  0.37368  0.16720  1.0000
  H   H2379     1.0  0.47876  0.24127  0.32269  1.0000
  H   H2380     1.0  0.29399  0.27700  0.15274  1.0000
  C   C2969     1.0  0.37558  0.43511  0.18508  1.0000
  H   H2381     1.0  0.33856  0.29708  0.18414  1.0000
  H   H2382     1.0  0.29249  0.47288  0.20821  1.0000
  P   P101      1.0  0.48276  0.27019  0.19206  1.0000
  C   C2970     1.0  0.44419  0.38935  0.14428  1.0000
  H   H2383     1.0  0.28669  0.26297  0.98639  1.0000
  H   H2384     1.0  0.29738  0.29988  0.12810  1.0000
  C   C2971     1.0  0.24665  0.46601  0.29457  1.0000
  C   C2972     1.0  0.24190  0.34614  0.21934  1.0000
  H   H2385     1.0  0.46433  0.38780  0.12305  1.0000
  C   C2973     1.0  0.32230  0.32740  0.05605  1.0000
  C   C2974     1.0  0.33148  0.31311  0.05038  1.0000
  C   C2975     1.0  0.34285  0.30165  0.05906  1.0000
  C   C2976     1.0  0.34478  0.30432  0.07358  1.0000
  C   C2977     1.0  0.33505  0.31824  0.07977  1.0000
  C   C2978     1.0  0.32418  0.33006  0.07061  1.0000
  P   P102      1.0  0.33800  0.32144  0.09843  1.0000
  C   C2979     1.0  0.33991  0.30215  0.11364  1.0000
  C   C2980     1.0  0.35663  0.32945  0.09196  1.0000
  C   C2981     1.0  0.37208  0.31875  0.09317  1.0000
  C   C2982     1.0  0.38658  0.32484  0.08748  1.0000
  C   C2983     1.0  0.38579  0.34166  0.08030  1.0000
  C   C2984     1.0  0.37049  0.35234  0.07870  1.0000
  C   C2985     1.0  0.35597  0.34626  0.08437  1.0000
  C   C2986     1.0  0.34851  0.29965  0.12606  1.0000
  C   C2987     1.0  0.35026  0.28455  0.13761  1.0000
  C   C2988     1.0  0.34331  0.27195  0.13695  1.0000
  C   C2989     1.0  0.33442  0.27448  0.12486  1.0000
  C   C2990     1.0  0.33259  0.28956  0.11333  1.0000
  C   C2991     1.0  0.32056  0.33557  0.10799  1.0000
  C   C2992     1.0  0.30426  0.33498  0.10852  1.0000
  C   C2993     1.0  0.29082  0.34609  0.11581  1.0000
  C   C2994     1.0  0.29354  0.35768  0.12275  1.0000
  C   C2995     1.0  0.30969  0.35817  0.12248  1.0000
  C   C2996     1.0  0.32315  0.34694  0.11543  1.0000
  H   H2386     1.0  0.31335  0.33619  0.04941  1.0000
  H   H2387     1.0  0.32969  0.31090  0.03931  1.0000
  H   H2388     1.0  0.35375  0.29538  0.08008  1.0000
  H   H2389     1.0  0.31700  0.34126  0.07470  1.0000
  H   H2390     1.0  0.37297  0.30570  0.09848  1.0000
  H   H2391     1.0  0.39841  0.31649  0.08873  1.0000
  H   H2392     1.0  0.39702  0.34637  0.07596  1.0000
  H   H2393     1.0  0.34424  0.35464  0.08281  1.0000
  H   H2394     1.0  0.35417  0.30922  0.12660  1.0000
  H   H2395     1.0  0.35759  0.28234  0.14667  1.0000
  H   H2396     1.0  0.34538  0.26001  0.14541  1.0000
  H   H2397     1.0  0.32946  0.26455  0.12398  1.0000
  H   H2398     1.0  0.32690  0.24436  0.01286  1.0000
  H   H2399     1.0  0.29181  0.28088  0.46067  1.0000
  C   C2997     1.0  0.25732  0.35977  0.16297  1.0000
  H   H2400     1.0  0.37719  0.28156  0.42896  1.0000
  H   H2401     1.0  0.25359  0.40040  0.16285  1.0000
  C   C2998     1.0  0.24563  0.34555  0.20269  1.0000
  C   C2999     1.0  0.31126  0.26517  0.24416  1.0000
  H   H2402     1.0  0.30174  0.27077  0.23713  1.0000
  C   C3000     1.0  0.30595  0.26279  0.18802  1.0000
  H   H2403     1.0  0.48479  0.27032  0.24850  1.0000
  H   H2404     1.0  0.45684  0.26018  0.15227  1.0000
  C   C3001     1.0  0.25783  0.44805  0.22147  1.0000
  C   C3002     1.0  0.31211  0.26296  0.46979  1.0000
  C   C3003     1.0  0.38058  0.23963  0.32462  1.0000
  C   C3004     1.0  0.25913  0.32137  0.15458  1.0000
  H   H2405     1.0  0.32307  0.46741  0.18921  1.0000
  C   C3005     1.0  0.24724  0.24769  0.11178  1.0000
  C   C3006     1.0  0.24891  0.31354  0.18414  1.0000
  C   C3007     1.0  0.24759  0.36231  0.15144  1.0000
  C   C3008     1.0  0.26261  0.23890  0.14291  1.0000
  H   H2406     1.0  0.40061  0.24293  0.28426  1.0000
  H   H2407     1.0  0.37695  0.23593  0.13480  1.0000
  H   H2408     1.0  0.30635  0.25337  0.18171  1.0000
  C   C3009     1.0  0.25199  0.38969  0.15971  1.0000
  H   H2409     1.0  0.34474  0.24500  0.27032  1.0000
  H   H2410     1.0  0.25609  0.38142  0.20554  1.0000
  C   C3010     1.0  0.48351  0.27018  0.22401  1.0000
  C   C3011     1.0  0.38157  0.23320  0.19700  1.0000
  C   C3012     1.0  0.39488  0.25866  0.43455  1.0000
  H   H2411     1.0  0.25014  0.44704  0.42369  1.0000
  P   P103      1.0  0.35141  0.23299  0.44510  1.0000
  H   H2412     1.0  0.40509  0.26467  0.43217  1.0000
  H   H2413     1.0  0.24522  0.35219  0.14808  1.0000
  C   C3013     1.0  0.24257  0.39201  0.14817  1.0000
  C   C3014     1.0  0.36832  0.24313  0.44120  1.0000
  H   H2414     1.0  0.24493  0.30655  0.35253  1.0000
  H   H2415     1.0  0.26716  0.46831  0.41160  1.0000
  C   C3015     1.0  0.25629  0.46940  0.40705  1.0000
  H   H2416     1.0  0.25014  0.44164  0.29034  1.0000
  C   C3016     1.0  0.24210  0.30101  0.16574  1.0000
  H   H2417     1.0  0.24205  0.47359  0.19614  1.0000
  C   C3017     1.0  0.39742  0.24139  0.43946  1.0000
  C   C3018     1.0  0.24221  0.28902  0.01358  1.0000
  C   C3019     1.0  0.24165  0.27240  0.02048  1.0000
  H   H2418     1.0  0.26362  0.47913  0.36141  1.0000
  C   C3020     1.0  0.24040  0.37834  0.14402  1.0000
  C   C3021     1.0  0.24030  0.33161  0.35557  1.0000
  C   C3022     1.0  0.24670  0.45743  0.41387  1.0000
  Fe  Fe211     1.0  0.24013  0.36260  0.09128  1.0000
  H   H2419     1.0  0.26210  0.23307  0.45246  1.0000
  C   C3023     1.0  0.23924  0.25096  0.45882  1.0000
  S   S411      1.0  0.23870  0.38653  0.09838  1.0000
  C   C3024     1.0  0.30141  0.24406  0.97339  1.0000
  C   C3025     1.0  0.32469  0.31669  0.63472  1.0000
  C   C3026     1.0  0.47757  0.35359  0.58852  1.0000
  C   C3027     1.0  0.23971  0.43369  0.74189  1.0000
  C   C3028     1.0  0.38105  0.25748  0.64375  1.0000
  Fe  Fe212     1.0  0.33875  0.40843  0.67402  1.0000
  S   S412      1.0  0.32812  0.41737  0.69772  1.0000
  S   S413      1.0  0.36568  0.39648  0.66529  1.0000
  Fe  Fe213     1.0  0.30533  0.41809  0.66417  1.0000
  S   S414      1.0  0.29195  0.42763  0.68705  1.0000
  S   S415      1.0  0.29316  0.42100  0.64319  1.0000
  Fe  Fe214     1.0  0.31358  0.43941  0.68270  1.0000
  H   H2420     1.0  0.30784  0.26533  0.48213  1.0000
  Fe  Fe215     1.0  0.30746  0.40496  0.70008  1.0000
  S   S416      1.0  0.29928  0.38748  0.72398  1.0000
  S   S417      1.0  0.32581  0.43144  0.65873  1.0000
  S   S418      1.0  0.31922  0.39444  0.67749  1.0000
  Fe  Fe216     1.0  0.41769  0.28209  0.68057  1.0000
  S   S419      1.0  0.43595  0.26585  0.69537  1.0000
  S   S420      1.0  0.42051  0.27511  0.65649  1.0000
  Fe  Fe217     1.0  0.40441  0.30487  0.70476  1.0000
  S   S421      1.0  0.42188  0.28993  0.72149  1.0000
  S   S422      1.0  0.38483  0.32650  0.71262  1.0000
  Fe  Fe218     1.0  0.44102  0.28911  0.69777  1.0000
  S   S423      1.0  0.46865  0.28796  0.69084  1.0000
  Fe  Fe219     1.0  0.41517  0.26825  0.71738  1.0000
  S   S424      1.0  0.41125  0.24443  0.73529  1.0000
  S   S425      1.0  0.42395  0.30548  0.68132  1.0000
  S   S426      1.0  0.39639  0.28299  0.70242  1.0000
  C   C3029     1.0  0.23963  0.24099  0.61682  1.0000
  C   C3030     1.0  0.39646  0.25810  0.63296  1.0000
  Fe  Fe220     1.0  0.37646  0.23420  0.58300  1.0000
  C   C3031     1.0  0.25872  0.28951  0.80701  1.0000
  C   C3032     1.0  0.27465  0.28008  0.80811  1.0000
  C   C3033     1.0  0.33052  0.33767  0.60989  1.0000
  H   H2421     1.0  0.28474  0.28619  0.80585  1.0000
  C   C3034     1.0  0.39247  0.24612  0.75013  1.0000
  S   S427      1.0  0.25499  0.36821  0.64236  1.0000
  H   H2422     1.0  0.37132  0.25713  0.70440  1.0000
  Fe  Fe221     1.0  0.37804  0.23910  0.61626  1.0000
  H   H2423     1.0  0.24038  0.41905  0.66731  1.0000
  H   H2424     1.0  0.33276  0.25169  0.75933  1.0000
  C   C3035     1.0  0.24929  0.39510  0.72983  1.0000
  C   C3036     1.0  0.27511  0.44297  0.59198  1.0000
  H   H2425     1.0  0.25445  0.36414  0.76366  1.0000
  H   H2426     1.0  0.29322  0.24794  0.62722  1.0000
  C   C3037     1.0  0.33863  0.46645  0.62771  1.0000
  C   C3038     1.0  0.25094  0.47381  0.70168  1.0000
  H   H2427     1.0  0.33351  0.46053  0.70062  1.0000
  C   C3039     1.0  0.27833  0.38620  0.73134  1.0000
  C   C3040     1.0  0.27406  0.37471  0.74599  1.0000
  H   H2428     1.0  0.28357  0.36710  0.75253  1.0000
  C   C3041     1.0  0.37139  0.37712  0.67844  1.0000
  C   C3042     1.0  0.38669  0.36640  0.67393  1.0000
  C   C3043     1.0  0.39108  0.35077  0.68431  1.0000
  C   C3044     1.0  0.38021  0.34594  0.69925  1.0000
  C   C3045     1.0  0.36520  0.35687  0.70390  1.0000
  C   C3046     1.0  0.36071  0.37232  0.69348  1.0000
  H   H2429     1.0  0.39506  0.37014  0.66237  1.0000
  H   H2430     1.0  0.40290  0.34256  0.68093  1.0000
  H   H2431     1.0  0.35689  0.35332  0.71560  1.0000
  H   H2432     1.0  0.34897  0.38054  0.69718  1.0000
  C   C3047     1.0  0.28151  0.40666  0.64441  1.0000
  C   C3048     1.0  0.28368  0.39095  0.65493  1.0000
  C   C3049     1.0  0.27534  0.37925  0.65437  1.0000
  H   H2433     1.0  0.29202  0.38774  0.66320  1.0000
  H   H2434     1.0  0.27722  0.36703  0.66227  1.0000
  C   C3050     1.0  0.30331  0.37950  0.61695  1.0000
  C   C3051     1.0  0.35718  0.26906  0.72421  1.0000
  C   C3052     1.0  0.40528  0.26770  0.65241  1.0000
  C   C3053     1.0  0.29085  0.42326  0.57483  1.0000
  C   C3054     1.0  0.30344  0.47113  0.62585  1.0000
  C   C3055     1.0  0.25818  0.23625  0.47700  1.0000
  H   H2435     1.0  0.38743  0.27035  0.67511  1.0000
  H   H2436     1.0  0.32857  0.40923  0.63452  1.0000
  C   C3056     1.0  0.27836  0.42734  0.58843  1.0000
  H   H2437     1.0  0.45253  0.29288  0.62439  1.0000
  H   H2438     1.0  0.35439  0.41328  0.61370  1.0000
  H   H2439     1.0  0.23969  0.40298  0.72358  1.0000
  H   H2440     1.0  0.35188  0.44335  0.62025  1.0000
  C   C3057     1.0  0.38636  0.23183  0.75854  1.0000
  S   S428      1.0  0.36594  0.25129  0.63804  1.0000
  C   C3058     1.0  0.37156  0.23284  0.77068  1.0000
  C   C3059     1.0  0.47501  0.30758  0.70816  1.0000
  H   H2441     1.0  0.46114  0.37674  0.59269  1.0000
  C   C3060     1.0  0.29729  0.36514  0.62045  1.0000
  C   C3061     1.0  0.27157  0.27128  0.59195  1.0000
  H   H2442     1.0  0.46175  0.31180  0.71204  1.0000
  C   C3062     1.0  0.27411  0.24896  0.64951  1.0000
  H   H2443     1.0  0.29084  0.27433  0.54697  1.0000
  H   H2444     1.0  0.25245  0.24155  0.53349  1.0000
  H   H2445     1.0  0.26182  0.29599  0.62982  1.0000
  C   C3063     1.0  0.32978  0.27541  0.54810  1.0000
  C   C3064     1.0  0.29613  0.38781  0.59007  1.0000
  C   C3065     1.0  0.31585  0.40426  0.53937  1.0000
  H   H2446     1.0  0.48219  0.26462  0.71943  1.0000
  C   C3066     1.0  0.32610  0.28277  0.51996  1.0000
  C   C3067     1.0  0.34204  0.45113  0.57373  1.0000
  C   C3068     1.0  0.33665  0.43621  0.57946  1.0000
  C   C3069     1.0  0.32807  0.43202  0.59580  1.0000
  C   C3070     1.0  0.32491  0.44269  0.60643  1.0000
  C   C3071     1.0  0.31494  0.39897  0.55646  1.0000
  H   H2447     1.0  0.25835  0.30181  0.70105  1.0000
  H   H2448     1.0  0.29322  0.37762  0.55481  1.0000
  H   H2449     1.0  0.46595  0.24975  0.57164  1.0000
  H   H2450     1.0  0.30955  0.43235  0.55421  1.0000
  C   C3072     1.0  0.31912  0.23221  0.58217  1.0000
  C   C3073     1.0  0.30974  0.28082  0.52578  1.0000
  H   H2451     1.0  0.29801  0.25086  0.96179  1.0000
  H   H2452     1.0  0.33524  0.25233  0.62120  1.0000
  H   H2453     1.0  0.25383  0.24527  0.63147  1.0000
  H   H2454     1.0  0.33904  0.42793  0.57123  1.0000
  H   H2455     1.0  0.32371  0.42058  0.60034  1.0000
  H   H2456     1.0  0.31817  0.43928  0.61908  1.0000
  H   H2457     1.0  0.24451  0.33410  0.55313  1.0000
  C   C3074     1.0  0.25661  0.29058  0.50719  1.0000
  C   C3075     1.0  0.46432  0.28064  0.64478  1.0000
  H   H2458     1.0  0.26904  0.40546  0.71197  1.0000
  H   H2459     1.0  0.45049  0.39493  0.67167  1.0000
  H   H2460     1.0  0.47904  0.27008  0.66321  1.0000
  C   C3076     1.0  0.26784  0.27042  0.49004  1.0000
  H   H2461     1.0  0.31972  0.31734  0.61143  1.0000
  C   C3077     1.0  0.32993  0.45788  0.60067  1.0000
  H   H2462     1.0  0.33037  0.34281  0.59695  1.0000
  C   C3078     1.0  0.26703  0.43719  0.72606  1.0000
  H   H2463     1.0  0.32742  0.26828  0.71601  1.0000
  S   S429      1.0  0.43369  0.24248  0.57818  1.0000
  C   C3079     1.0  0.47747  0.27923  0.65192  1.0000
  C   C3080     1.0  0.24857  0.26423  0.81424  1.0000
  S   S430      1.0  0.28356  0.25057  0.53252  1.0000
  C   C3081     1.0  0.27415  0.42491  0.73808  1.0000
  H   H2464     1.0  0.35148  0.34930  0.67803  1.0000
  C   C3082     1.0  0.40850  0.26317  0.63727  1.0000
  H   H2465     1.0  0.30473  0.41038  0.53466  1.0000
  H   H2466     1.0  0.27509  0.44261  0.71502  1.0000
  C   C3083     1.0  0.32201  0.28554  0.58376  1.0000
  C   C3084     1.0  0.29087  0.36196  0.60878  1.0000
  C   C3085     1.0  0.28558  0.27978  0.71989  1.0000
  H   H2467     1.0  0.36597  0.26119  0.66747  1.0000
  C   C3086     1.0  0.26557  0.28030  0.51892  1.0000
  C   C3087     1.0  0.34620  0.26767  0.73960  1.0000
  H   H2468     1.0  0.46259  0.37093  0.62211  1.0000
  C   C3088     1.0  0.27574  0.46833  0.62705  1.0000
  H   H2469     1.0  0.37155  0.36059  0.61950  1.0000
  H   H2470     1.0  0.30205  0.28246  0.51717  1.0000
  H   H2471     1.0  0.38845  0.27248  0.74752  1.0000
  C   C3089     1.0  0.32447  0.32335  0.61805  1.0000
  C   C3090     1.0  0.25950  0.24412  0.76387  1.0000
  C   C3091     1.0  0.27359  0.24858  0.76466  1.0000
  C   C3092     1.0  0.27340  0.26518  0.76332  1.0000
  C   C3093     1.0  0.25758  0.37306  0.75232  1.0000
  C   C3094     1.0  0.32746  0.30249  0.70349  1.0000
  C   C3095     1.0  0.35793  0.24061  0.72413  1.0000
  H   H2472     1.0  0.26875  0.26659  0.47885  1.0000
  H   H2473     1.0  0.28421  0.26853  0.76439  1.0000
  C   C3096     1.0  0.35072  0.45156  0.62815  1.0000
  C   C3097     1.0  0.36297  0.24809  0.77469  1.0000
  H   H2474     1.0  0.26414  0.34054  0.66826  1.0000
  H   H2475     1.0  0.34598  0.25039  0.69465  1.0000
  H   H2476     1.0  0.30947  0.35168  0.65870  1.0000
  H   H2477     1.0  0.47960  0.34493  0.63446  1.0000
  H   H2478     1.0  0.24928  0.30257  0.50904  1.0000
  H   H2479     1.0  0.36370  0.31488  0.63954  1.0000
  P   P104      1.0  0.30522  0.26636  0.57583  1.0000
  C   C3098     1.0  0.31335  0.27345  0.55405  1.0000
  C   C3099     1.0  0.28438  0.27852  0.58090  1.0000
  C   C3100     1.0  0.28086  0.29555  0.57374  1.0000
  C   C3101     1.0  0.31705  0.27035  0.58817  1.0000
  S   S431      1.0  0.24190  0.31262  0.73068  1.0000
  H   H2480     1.0  0.34495  0.27842  0.61244  1.0000
  H   H2481     1.0  0.32091  0.24057  0.72417  1.0000
  H   H2482     1.0  0.25342  0.24655  0.57718  1.0000
  C   C3102     1.0  0.32136  0.25864  0.60216  1.0000
  H   H2483     1.0  0.26027  0.27183  0.55778  1.0000
  S   S432      1.0  0.24412  0.29669  0.47972  1.0000
  H   H2484     1.0  0.33255  0.35420  0.70424  1.0000
  H   H2485     1.0  0.33172  0.40561  0.51506  1.0000
  H   H2486     1.0  0.25931  0.29037  0.75897  1.0000
  H   H2487     1.0  0.29053  0.30148  0.56532  1.0000
  H   H2488     1.0  0.33799  0.27265  0.55643  1.0000
  C   C3103     1.0  0.48133  0.29583  0.69830  1.0000
  C   C3104     1.0  0.24156  0.24669  0.62966  1.0000
  H   H2489     1.0  0.29540  0.46777  0.60560  1.0000
  C   C3105     1.0  0.27880  0.27271  0.62707  1.0000
  C   C3106     1.0  0.25173  0.44578  0.68239  1.0000
  C   C3107     1.0  0.45191  0.32502  0.65799  1.0000
  C   C3108     1.0  0.44281  0.33284  0.64579  1.0000
  C   C3109     1.0  0.43387  0.34920  0.64514  1.0000
  C   C3110     1.0  0.43400  0.35772  0.65673  1.0000
  C   C3111     1.0  0.44299  0.34982  0.66916  1.0000
  C   C3112     1.0  0.45200  0.33343  0.66964  1.0000
  P   P105      1.0  0.44434  0.36078  0.68359  1.0000
  C   C3113     1.0  0.43655  0.35100  0.70471  1.0000
  C   C3114     1.0  0.46593  0.36169  0.67918  1.0000
  C   C3115     1.0  0.47390  0.36773  0.66287  1.0000
  H   H2490     1.0  0.36263  0.27416  0.76944  1.0000
  C   C3116     1.0  0.43755  0.35735  0.71764  1.0000
  C   C3117     1.0  0.43050  0.35076  0.73401  1.0000
  C   C3118     1.0  0.42190  0.33818  0.73755  1.0000
  C   C3119     1.0  0.42036  0.33220  0.72473  1.0000
  C   C3120     1.0  0.42770  0.33848  0.70836  1.0000
  C   C3121     1.0  0.43093  0.38118  0.68079  1.0000
  C   C3122     1.0  0.41368  0.38263  0.68510  1.0000
  C   C3123     1.0  0.40295  0.39820  0.68279  1.0000
  C   C3124     1.0  0.40935  0.41249  0.67645  1.0000
  C   C3125     1.0  0.42650  0.41121  0.67247  1.0000
  C   C3126     1.0  0.43730  0.39561  0.67464  1.0000
  H   H2491     1.0  0.45854  0.31219  0.65878  1.0000
  H   H2492     1.0  0.44255  0.32612  0.63699  1.0000
  H   H2493     1.0  0.45904  0.32708  0.67911  1.0000
  H   H2494     1.0  0.46712  0.37203  0.65309  1.0000
  H   H2495     1.0  0.27540  0.29051  0.72003  1.0000
  H   H2496     1.0  0.44362  0.36754  0.71506  1.0000
  H   H2497     1.0  0.43145  0.35559  0.74395  1.0000
  H   H2498     1.0  0.41614  0.33324  0.75019  1.0000
  H   H2499     1.0  0.41309  0.32293  0.72749  1.0000
  H   H2500     1.0  0.42595  0.33386  0.69868  1.0000
  H   H2501     1.0  0.40850  0.37168  0.69027  1.0000
  H   H2502     1.0  0.38964  0.39913  0.68593  1.0000
  H   H2503     1.0  0.40096  0.42454  0.67476  1.0000
  C   C3127     1.0  0.30199  0.28154  0.71639  1.0000
  C   C3128     1.0  0.26515  0.28287  0.63524  1.0000
  S   S433      1.0  0.25536  0.31116  0.80184  1.0000
  C   C3129     1.0  0.30260  0.39086  0.60192  1.0000
  C   C3130     1.0  0.27073  0.47021  0.64336  1.0000
  C   C3131     1.0  0.29483  0.24994  0.72569  1.0000
  P   P106      1.0  0.29520  0.40281  0.57072  1.0000
  H   H2504     1.0  0.34596  0.47928  0.65846  1.0000
  C   C3132     1.0  0.47519  0.35563  0.69150  1.0000
  S   S434      1.0  0.38551  0.25285  0.59015  1.0000
  H   H2505     1.0  0.29709  0.35672  0.63242  1.0000
  H   H2506     1.0  0.27099  0.41851  0.59621  1.0000
  C   C3133     1.0  0.27939  0.40080  0.56173  1.0000
  H   H2507     1.0  0.27844  0.47356  0.66373  1.0000
  H   H2508     1.0  0.37564  0.38889  0.60593  1.0000
  C   C3134     1.0  0.24564  0.28159  0.81018  1.0000
  P   P107      1.0  0.32432  0.47224  0.61411  1.0000
  C   C3135     1.0  0.27053  0.41080  0.63386  1.0000
  C   C3136     1.0  0.38992  0.26697  0.66336  1.0000
  C   C3137     1.0  0.33742  0.47663  0.63839  1.0000
  C   C3138     1.0  0.26591  0.39643  0.72320  1.0000
  S   S435      1.0  0.30670  0.23773  0.78555  1.0000
  H   H2509     1.0  0.25262  0.25415  0.66915  1.0000
  H   H2510     1.0  0.28604  0.27799  0.61531  1.0000
  H   H2511     1.0  0.30802  0.28165  0.74578  1.0000
  C   C3139     1.0  0.47869  0.23204  0.58976  1.0000
  H   H2512     1.0  0.28563  0.35113  0.61178  1.0000
  C   C3140     1.0  0.29857  0.31605  0.68140  1.0000
  C   C3141     1.0  0.26476  0.30508  0.57719  1.0000
  C   C3142     1.0  0.37779  0.26187  0.65901  1.0000
  C   C3143     1.0  0.26015  0.25918  0.65745  1.0000
  S   S436      1.0  0.34442  0.24973  0.78995  1.0000
  C   C3144     1.0  0.29046  0.37312  0.59358  1.0000
  C   C3145     1.0  0.27493  0.26468  0.51661  1.0000
  S   S437      1.0  0.24509  0.33449  0.76010  1.0000
  H   H2513     1.0  0.35745  0.39182  0.52540  1.0000
  H   H2514     1.0  0.30676  0.40219  0.59973  1.0000
  H   H2515     1.0  0.26212  0.31824  0.57164  1.0000
  C   C3146     1.0  0.24687  0.42130  0.75385  1.0000
  H   H2516     1.0  0.31745  0.24700  0.60621  1.0000
  H   H2517     1.0  0.26190  0.37501  0.70587  1.0000
  H   H2518     1.0  0.34211  0.27788  0.74587  1.0000
  C   C3147     1.0  0.27660  0.26003  0.50186  1.0000
  H   H2519     1.0  0.24174  0.32960  0.65698  1.0000
  H   H2520     1.0  0.32550  0.25157  0.67909  1.0000
  C   C3148     1.0  0.33676  0.27646  0.60595  1.0000
  C   C3149     1.0  0.24557  0.38067  0.68924  1.0000
  H   H2521     1.0  0.25804  0.47014  0.64994  1.0000
  C   C3150     1.0  0.29312  0.31537  0.69845  1.0000
  C   C3151     1.0  0.33129  0.26166  0.61088  1.0000
  H   H2522     1.0  0.24406  0.28247  0.91752  1.0000
  H   H2523     1.0  0.28753  0.42090  0.73622  1.0000
  C   C3152     1.0  0.48731  0.33872  0.59547  1.0000
  H   H2524     1.0  0.28511  0.37042  0.58499  1.0000
  H   H2525     1.0  0.25988  0.26771  0.84558  1.0000
  C   C3153     1.0  0.25933  0.27743  0.76039  1.0000
  C   C3154     1.0  0.46686  0.23805  0.66073  1.0000
  C   C3155     1.0  0.24721  0.26912  0.85268  1.0000
  C   C3156     1.0  0.48341  0.23653  0.65230  1.0000
  C   C3157     1.0  0.26456  0.38332  0.64358  1.0000
  C   C3158     1.0  0.25541  0.28083  0.59519  1.0000
  C   C3159     1.0  0.33610  0.28007  0.53113  1.0000
  H   H2526     1.0  0.39906  0.25499  0.62107  1.0000
  C   C3160     1.0  0.29261  0.24031  0.57448  1.0000
  S   S438      1.0  0.36068  0.24202  0.56397  1.0000
  H   H2527     1.0  0.36664  0.45254  0.65971  1.0000
  C   C3161     1.0  0.30535  0.24469  0.57843  1.0000
  H   H2528     1.0  0.26924  0.26293  0.72735  1.0000
  C   C3162     1.0  0.29993  0.43511  0.56480  1.0000
  C   C3163     1.0  0.28894  0.32704  0.75015  1.0000
  H   H2529     1.0  0.26040  0.43713  0.65967  1.0000
  H   H2530     1.0  0.32929  0.38747  0.57533  1.0000
  C   C3164     1.0  0.36921  0.26234  0.76638  1.0000
  C   C3165     1.0  0.34358  0.23896  0.69394  1.0000
  C   C3166     1.0  0.33868  0.46196  0.58428  1.0000
  C   C3167     1.0  0.26452  0.41282  0.56155  1.0000
  H   H2531     1.0  0.28121  0.46693  0.58457  1.0000
  C   C3168     1.0  0.23891  0.25627  0.85635  1.0000
  H   H2532     1.0  0.24515  0.24496  0.85200  1.0000
  H   H2533     1.0  0.27807  0.24791  0.68141  1.0000
  C   C3169     1.0  0.47936  0.34716  0.62160  1.0000
  H   H2534     1.0  0.32870  0.31852  0.71836  1.0000
  H   H2535     1.0  0.26497  0.28438  0.52983  1.0000
  C   C3170     1.0  0.25199  0.29767  0.58768  1.0000
  H   H2536     1.0  0.48653  0.23980  0.63890  1.0000
  H   H2537     1.0  0.42706  0.37040  0.65592  1.0000
  C   C3171     1.0  0.35999  0.30587  0.68755  1.0000
  C   C3172     1.0  0.24037  0.44509  0.69766  1.0000
  C   C3173     1.0  0.29385  0.32345  0.73445  1.0000
  H   H2538     1.0  0.29926  0.28824  0.77331  1.0000
  S   S439      1.0  0.26829  0.23314  0.81992  1.0000
  C   C3174     1.0  0.24741  0.27101  0.56253  1.0000
  C   C3175     1.0  0.47374  0.30259  0.62262  1.0000
  P   P108      1.0  0.30591  0.30192  0.71256  1.0000
  S   S440      1.0  0.30682  0.46683  0.68301  1.0000
  H   H2539     1.0  0.33110  0.28603  0.50681  1.0000
  H   H2540     1.0  0.31866  0.29489  0.57319  1.0000
  C   C3176     1.0  0.31116  0.25158  0.72248  1.0000
  H   H2541     1.0  0.32990  0.23524  0.58368  1.0000
  H   H2542     1.0  0.25373  0.40250  0.62513  1.0000
  C   C3177     1.0  0.46504  0.23952  0.58226  1.0000
  H   H2543     1.0  0.24544  0.27522  0.60339  1.0000
  H   H2544     1.0  0.34869  0.45440  0.56105  1.0000
  H   H2545     1.0  0.42031  0.26380  0.62869  1.0000
  H   H2546     1.0  0.33846  0.24403  0.54382  1.0000
  C   C3178     1.0  0.28179  0.38697  0.55500  1.0000
  H   H2547     1.0  0.39228  0.29969  0.63939  1.0000
  H   H2548     1.0  0.32418  0.38123  0.64809  1.0000
  C   C3179     1.0  0.27698  0.32380  0.70440  1.0000
  C   C3180     1.0  0.35247  0.29624  0.68253  1.0000
  C   C3181     1.0  0.28829  0.32534  0.67050  1.0000
  C   C3182     1.0  0.30260  0.29438  0.74676  1.0000
  H   H2549     1.0  0.25236  0.38916  0.67996  1.0000
  H   H2550     1.0  0.29234  0.33347  0.72382  1.0000
  H   H2551     1.0  0.34896  0.28102  0.52667  1.0000
  H   H2552     1.0  0.23867  0.24526  0.79445  1.0000
  H   H2553     1.0  0.26090  0.45322  0.67899  1.0000
  H   H2554     1.0  0.29252  0.32585  0.65738  1.0000
  H   H2555     1.0  0.36150  0.28043  0.71856  1.0000
  C   C3183     1.0  0.34095  0.25287  0.74721  1.0000
  C   C3184     1.0  0.27472  0.23228  0.70557  1.0000
  H   H2556     1.0  0.31055  0.30910  0.67650  1.0000
  H   H2557     1.0  0.48114  0.32326  0.72025  1.0000
  H   H2558     1.0  0.35727  0.32098  0.70464  1.0000
  C   C3185     1.0  0.46257  0.29215  0.63003  1.0000
  C   C3186     1.0  0.29774  0.29805  0.76243  1.0000
  C   C3187     1.0  0.25576  0.27608  0.65036  1.0000
  C   C3188     1.0  0.30031  0.30701  0.73266  1.0000
  C   C3189     1.0  0.29072  0.31435  0.76415  1.0000
  C   C3190     1.0  0.31478  0.26731  0.71780  1.0000
  H   H2559     1.0  0.30240  0.35812  0.70784  1.0000
  H   H2560     1.0  0.47225  0.31133  0.61113  1.0000
  H   H2561     1.0  0.35916  0.29026  0.67237  1.0000
  C   C3191     1.0  0.36090  0.44666  0.63955  1.0000
  H   H2562     1.0  0.24420  0.39446  0.54548  1.0000
  H   H2563     1.0  0.33642  0.29987  0.58851  1.0000
  C   C3192     1.0  0.35141  0.31359  0.70065  1.0000
  H   H2564     1.0  0.35610  0.38286  0.55556  1.0000
  H   H2565     1.0  0.45012  0.23549  0.68446  1.0000
  Fe  Fe222     1.0  0.23861  0.37776  0.62382  1.0000
  H   H2566     1.0  0.28662  0.31714  0.77634  1.0000
  C   C3193     1.0  0.33634  0.29439  0.69056  1.0000
  H   H2567     1.0  0.28995  0.25553  0.81280  1.0000
  C   C3194     1.0  0.28203  0.26406  0.72426  1.0000
  H   H2568     1.0  0.46976  0.35011  0.70398  1.0000
  H   H2569     1.0  0.28349  0.33965  0.75154  1.0000
  H   H2570     1.0  0.28448  0.24837  0.49958  1.0000
  C   C3195     1.0  0.36287  0.25570  0.71636  1.0000
  H   H2571     1.0  0.43143  0.42233  0.66778  1.0000
  C   C3196     1.0  0.32959  0.39144  0.56223  1.0000
  H   H2572     1.0  0.31045  0.23990  0.64819  1.0000
  H   H2573     1.0  0.24578  0.29373  0.85472  1.0000
  C   C3197     1.0  0.25087  0.37282  0.70391  1.0000
  C   C3198     1.0  0.34486  0.38886  0.55105  1.0000
  C   C3199     1.0  0.34562  0.39391  0.53406  1.0000
  H   H2574     1.0  0.28462  0.23908  0.76640  1.0000
  C   C3200     1.0  0.33198  0.28848  0.59249  1.0000
  C   C3201     1.0  0.26204  0.39920  0.63346  1.0000
  C   C3202     1.0  0.38378  0.26141  0.75393  1.0000
  H   H2575     1.0  0.27202  0.32287  0.71751  1.0000
  H   H2576     1.0  0.26860  0.42302  0.62595  1.0000
  H   H2577     1.0  0.29092  0.35618  0.68532  1.0000
  C   C3203     1.0  0.35922  0.45665  0.65046  1.0000
  H   H2578     1.0  0.37251  0.30729  0.68139  1.0000
  C   C3204     1.0  0.25724  0.28532  0.49307  1.0000
  H   H2579     1.0  0.32038  0.30535  0.64095  1.0000
  C   C3205     1.0  0.28408  0.45473  0.58191  1.0000
  C   C3206     1.0  0.26914  0.38474  0.54914  1.0000
  C   C3207     1.0  0.28304  0.25575  0.63399  1.0000
  H   H2580     1.0  0.26545  0.44604  0.60248  1.0000
  H   H2581     1.0  0.27402  0.25830  0.59804  1.0000
  C   C3208     1.0  0.26408  0.41700  0.75200  1.0000
  C   C3209     1.0  0.24188  0.36221  0.71613  1.0000
  C   C3210     1.0  0.26459  0.25481  0.81493  1.0000
  H   H2582     1.0  0.25391  0.33839  0.69827  1.0000
  H   H2583     1.0  0.33076  0.28679  0.68656  1.0000
  H   H2584     1.0  0.42674  0.35525  0.63573  1.0000
  H   H2585     1.0  0.45554  0.27275  0.65065  1.0000
  C   C3211     1.0  0.27762  0.26274  0.81192  1.0000
  H   H2586     1.0  0.26227  0.42369  0.56647  1.0000
  C   C3212     1.0  0.32968  0.47376  0.69610  1.0000
  C   C3213     1.0  0.30340  0.27617  0.54274  1.0000
  H   H2587     1.0  0.25122  0.28658  0.68480  1.0000
  S   S441      1.0  0.24917  0.38701  0.59707  1.0000
  C   C3214     1.0  0.33517  0.31206  0.70849  1.0000
  C   C3215     1.0  0.26662  0.33275  0.69351  1.0000
  H   H2588     1.0  0.24591  0.35626  0.72757  1.0000
  C   C3216     1.0  0.27229  0.33365  0.67659  1.0000
  H   H2589     1.0  0.30782  0.38222  0.62620  1.0000
  C   C3217     1.0  0.33113  0.40166  0.52823  1.0000
  C   C3218     1.0  0.33073  0.32449  0.64329  1.0000
  C   C3219     1.0  0.33654  0.33903  0.63528  1.0000
  C   C3220     1.0  0.33660  0.34548  0.61845  1.0000
  P   P109      1.0  0.34550  0.34804  0.64630  1.0000
  C   C3221     1.0  0.33205  0.34962  0.66637  1.0000
  C   C3222     1.0  0.36605  0.33566  0.64782  1.0000
  C   C3223     1.0  0.37717  0.34211  0.65211  1.0000
  C   C3224     1.0  0.39348  0.33321  0.65206  1.0000
  C   C3225     1.0  0.39887  0.31787  0.64763  1.0000
  C   C3226     1.0  0.38798  0.31145  0.64315  1.0000
  C   C3227     1.0  0.37165  0.32021  0.64328  1.0000
  C   C3228     1.0  0.33838  0.35043  0.67938  1.0000
  C   C3229     1.0  0.32769  0.35318  0.69435  1.0000
  C   C3230     1.0  0.31063  0.35527  0.69645  1.0000
  C   C3231     1.0  0.30420  0.35434  0.68367  1.0000
  C   C3232     1.0  0.31482  0.35164  0.66865  1.0000
  C   C3233     1.0  0.34769  0.36873  0.63508  1.0000
  C   C3234     1.0  0.36201  0.37111  0.62280  1.0000
  C   C3235     1.0  0.36435  0.38713  0.61501  1.0000
  C   C3236     1.0  0.35237  0.40087  0.61932  1.0000
  C   C3237     1.0  0.33785  0.39861  0.63109  1.0000
  C   C3238     1.0  0.33546  0.38262  0.63888  1.0000
  H   H2590     1.0  0.33138  0.31899  0.65605  1.0000
  H   H2591     1.0  0.34125  0.35652  0.61190  1.0000
  H   H2592     1.0  0.37331  0.35420  0.65516  1.0000
  H   H2593     1.0  0.40202  0.33823  0.65533  1.0000
  H   H2594     1.0  0.41152  0.31098  0.64758  1.0000
  H   H2595     1.0  0.36959  0.43474  0.64045  1.0000
  C   C3239     1.0  0.29653  0.45079  0.56835  1.0000
  H   H2596     1.0  0.42103  0.23590  0.70041  1.0000
  C   C3240     1.0  0.24653  0.29830  0.70508  1.0000
  C   C3241     1.0  0.29192  0.46900  0.61828  1.0000
  C   C3242     1.0  0.24035  0.42624  0.67582  1.0000
  C   C3243     1.0  0.25160  0.43651  0.67147  1.0000
  C   C3244     1.0  0.24521  0.27300  0.75944  1.0000
  H   H2597     1.0  0.27066  0.37366  0.54474  1.0000
  C   C3245     1.0  0.24972  0.44206  0.72810  1.0000
  C   C3246     1.0  0.26247  0.47716  0.70837  1.0000
  H   H2598     1.0  0.25056  0.23524  0.60884  1.0000
  C   C3247     1.0  0.25196  0.41061  0.55554  1.0000
  H   H2599     1.0  0.28265  0.24974  0.56997  1.0000
  H   H2600     1.0  0.26702  0.46649  0.62118  1.0000
  C   C3248     1.0  0.31734  0.47982  0.68692  1.0000
  C   C3249     1.0  0.28208  0.47224  0.65104  1.0000
  Fe  Fe223     1.0  0.40958  0.23387  0.58978  1.0000
  C   C3250     1.0  0.24776  0.24412  0.48943  1.0000
  C   C3251     1.0  0.24245  0.28973  0.69577  1.0000
  C   C3252     1.0  0.48659  0.30174  0.63012  1.0000
  C   C3253     1.0  0.25418  0.39648  0.54954  1.0000
  C   C3254     1.0  0.29832  0.47270  0.64236  1.0000
  C   C3255     1.0  0.34758  0.47170  0.64977  1.0000
  H   H2601     1.0  0.30346  0.45995  0.56056  1.0000
  C   C3256     1.0  0.24347  0.25657  0.57342  1.0000
  H   H2602     1.0  0.25148  0.24198  0.50092  1.0000
  H   H2603     1.0  0.24508  0.28389  0.65670  1.0000
  H   H2604     1.0  0.48540  0.31996  0.65481  1.0000
  P   P110      1.0  0.24055  0.45688  0.71192  1.0000
  H   H2605     1.0  0.47682  0.35602  0.57571  1.0000
  C   C3257     1.0  0.24514  0.38323  0.74426  1.0000
  C   C3258     1.0  0.46958  0.36199  0.61463  1.0000
  H   H2606     1.0  0.42712  0.23338  0.67118  1.0000
  H   H2607     1.0  0.30660  0.47447  0.64868  1.0000
  C   C3259     1.0  0.24502  0.25624  0.76182  1.0000
  H   H2608     1.0  0.33330  0.24447  0.47565  1.0000
  H   H2609     1.0  0.26550  0.46972  0.71990  1.0000
  S   S442      1.0  0.24216  0.35613  0.57380  1.0000
  H   H2610     1.0  0.24025  0.41962  0.55609  1.0000
  C   C3260     1.0  0.45030  0.23371  0.58836  1.0000
  C   C3261     1.0  0.46872  0.36524  0.59808  1.0000
  H   H2611     1.0  0.27393  0.24204  0.71149  1.0000
  C   C3262     1.0  0.34686  0.23935  0.73961  1.0000
  H   H2612     1.0  0.26967  0.40694  0.76090  1.0000
  C   C3263     1.0  0.23966  0.24246  0.53338  1.0000
  H   H2613     1.0  0.23944  0.30501  0.58990  1.0000
  H   H2614     1.0  0.29213  0.23768  0.72989  1.0000
  C   C3264     1.0  0.33196  0.23968  0.68507  1.0000
  C   C3265     1.0  0.48600  0.31409  0.71273  1.0000
  H   H2615     1.0  0.45707  0.24241  0.65390  1.0000
  C   C3266     1.0  0.46295  0.23418  0.67797  1.0000
  C   C3267     1.0  0.27666  0.23566  0.68847  1.0000
  H   H2616     1.0  0.34273  0.47357  0.57962  1.0000
  H   H2617     1.0  0.34589  0.48018  0.70732  1.0000
  H   H2618     1.0  0.48857  0.25157  0.69577  1.0000
  C   C3268     1.0  0.48842  0.33541  0.61205  1.0000
  C   C3269     1.0  0.48858  0.28970  0.64462  1.0000
  H   H2619     1.0  0.23976  0.28642  0.88952  1.0000
  C   C3270     1.0  0.23907  0.28396  0.85776  1.0000
  C   C3271     1.0  0.41246  0.23192  0.69603  1.0000
  H   H2620     1.0  0.23914  0.41449  0.76416  1.0000
  C   C3272     1.0  0.34541  0.23142  0.54614  1.0000
  C   C3273     1.0  0.24226  0.58564  0.44156  1.0000
  H   H2621     1.0  0.46822  0.60846  0.28238  1.0000
  C   C3274     1.0  0.29236  0.48186  0.23786  1.0000
  Fe  Fe224     1.0  0.30616  0.55770  0.19609  1.0000
  S   S443      1.0  0.28215  0.56824  0.21226  1.0000
  Fe  Fe225     1.0  0.32463  0.56061  0.16037  1.0000
  S   S444      1.0  0.34630  0.54042  0.16701  1.0000
  S   S445      1.0  0.32784  0.57281  0.13325  1.0000
  C   C3275     1.0  0.26147  0.65132  0.39452  1.0000
  Fe  Fe226     1.0  0.34357  0.55298  0.18756  1.0000
  S   S446      1.0  0.36608  0.55722  0.19331  1.0000
  S   S447      1.0  0.30561  0.54612  0.17599  1.0000
  S   S448      1.0  0.32331  0.57404  0.17973  1.0000
  Fe  Fe227     1.0  0.38558  0.63598  0.20806  1.0000
  S   S449      1.0  0.41032  0.62992  0.19094  1.0000
  S   S450      1.0  0.36507  0.62147  0.21659  1.0000
  Fe  Fe228     1.0  0.39154  0.66899  0.20945  1.0000
  S   S451      1.0  0.41616  0.66589  0.19181  1.0000
  S   S452      1.0  0.38254  0.69197  0.21986  1.0000
  Fe  Fe229     1.0  0.40383  0.65655  0.17765  1.0000
  S   S453      1.0  0.41020  0.66313  0.14988  1.0000
  Fe  Fe230     1.0  0.42042  0.63991  0.20678  1.0000
  S   S454      1.0  0.37859  0.66222  0.19382  1.0000
  S   S455      1.0  0.39622  0.64341  0.22536  1.0000
  S   S456      1.0  0.43776  0.71868  0.29084  1.0000
  H   H2622     1.0  0.28202  0.50684  0.31319  1.0000
  H   H2623     1.0  0.24584  0.61755  0.46251  1.0000
  C   C3276     1.0  0.32570  0.53002  0.26317  1.0000
  S   S457      1.0  0.24527  0.62758  0.13168  1.0000
  S   S458      1.0  0.42537  0.69536  0.26677  1.0000
  S   S459      1.0  0.31303  0.69939  0.38729  1.0000
  S   S460      1.0  0.33032  0.67307  0.41619  1.0000
  Fe  Fe231     1.0  0.33839  0.69072  0.39269  1.0000
  S   S461      1.0  0.35807  0.68252  0.37125  1.0000
  Fe  Fe232     1.0  0.30467  0.68317  0.41181  1.0000
  S   S462      1.0  0.29052  0.66300  0.41726  1.0000
  Fe  Fe233     1.0  0.24933  0.62816  0.10490  1.0000
  Fe  Fe234     1.0  0.30989  0.71847  0.40171  1.0000
  S   S463      1.0  0.27464  0.61701  0.09158  1.0000
  H   H2624     1.0  0.34249  0.64471  0.46100  1.0000
  C   C3277     1.0  0.25970  0.52717  0.21098  1.0000
  C   C3278     1.0  0.25670  0.71074  0.97622  1.0000
  H   H2625     1.0  0.26162  0.71392  0.43454  1.0000
  C   C3279     1.0  0.48678  0.70720  0.32541  1.0000
  H   H2626     1.0  0.28005  0.48385  0.14197  1.0000
  C   C3280     1.0  0.23925  0.57189  0.33905  1.0000
  C   C3281     1.0  0.24353  0.53326  0.21903  1.0000
  C   C3282     1.0  0.27728  0.71065  0.22002  1.0000
  S   S464      1.0  0.32212  0.70365  0.13253  1.0000
  S   S465      1.0  0.36397  0.71921  0.10746  1.0000
  Fe  Fe235     1.0  0.30633  0.71198  0.11366  1.0000
  S   S466      1.0  0.29953  0.69485  0.10260  1.0000
  H   H2627     1.0  0.25924  0.49215  0.38934  1.0000
  C   C3283     1.0  0.25008  0.67995  0.12665  1.0000
  C   C3284     1.0  0.25410  0.69200  0.13189  1.0000
  C   C3285     1.0  0.26916  0.69698  0.12438  1.0000
  C   C3286     1.0  0.28011  0.68992  0.11156  1.0000
  C   C3287     1.0  0.27591  0.67806  0.10616  1.0000
  C   C3288     1.0  0.26096  0.67304  0.11375  1.0000
  H   H2628     1.0  0.28058  0.50653  0.21050  1.0000
  H   H2629     1.0  0.27242  0.70597  0.12874  1.0000
  H   H2630     1.0  0.28452  0.67224  0.09655  1.0000
  H   H2631     1.0  0.25834  0.66322  0.11010  1.0000
  C   C3289     1.0  0.25092  0.56628  0.42354  1.0000
  S   S467      1.0  0.32193  0.72892  0.09566  1.0000
  H   H2632     1.0  0.25241  0.70758  0.08486  1.0000
  C   C3290     1.0  0.25222  0.57478  0.45221  1.0000
  C   C3291     1.0  0.39007  0.70656  0.33496  1.0000
  C   C3292     1.0  0.37904  0.69612  0.34373  1.0000
  C   C3293     1.0  0.37136  0.69614  0.36034  1.0000
  H   H2633     1.0  0.39604  0.70638  0.32220  1.0000
  H   H2634     1.0  0.37640  0.68806  0.33761  1.0000
  C   C3294     1.0  0.39616  0.69378  0.23078  1.0000
  C   C3295     1.0  0.39377  0.70850  0.23594  1.0000
  C   C3296     1.0  0.40336  0.70945  0.24629  1.0000
  C   C3297     1.0  0.41518  0.69557  0.25166  1.0000
  C   C3298     1.0  0.41828  0.68121  0.24565  1.0000
  C   C3299     1.0  0.40883  0.68033  0.23518  1.0000
  H   H2635     1.0  0.38426  0.71904  0.23216  1.0000
  H   H2636     1.0  0.40127  0.72070  0.25055  1.0000
  H   H2637     1.0  0.42762  0.67054  0.24954  1.0000
  H   H2638     1.0  0.41095  0.66902  0.23104  1.0000
  C   C3300     1.0  0.39664  0.67884  0.13897  1.0000
  C   C3301     1.0  0.37972  0.68389  0.14586  1.0000
  C   C3302     1.0  0.36937  0.69621  0.13629  1.0000
  C   C3303     1.0  0.37608  0.70366  0.12003  1.0000
  C   C3304     1.0  0.39296  0.69862  0.11332  1.0000
  C   C3305     1.0  0.40312  0.68614  0.12266  1.0000
  H   H2639     1.0  0.37460  0.67817  0.15839  1.0000
  H   H2640     1.0  0.35631  0.70003  0.14152  1.0000
  H   H2641     1.0  0.39818  0.70429  0.10078  1.0000
  H   H2642     1.0  0.41613  0.68224  0.11726  1.0000
  C   C3306     1.0  0.31234  0.58562  0.12280  1.0000
  C   C3307     1.0  0.31741  0.59329  0.10624  1.0000
  C   C3308     1.0  0.30571  0.60296  0.09697  1.0000
  C   C3309     1.0  0.28877  0.60531  0.10417  1.0000
  C   C3310     1.0  0.28359  0.59773  0.12084  1.0000
  C   C3311     1.0  0.29540  0.58783  0.13014  1.0000
  H   H2643     1.0  0.33048  0.59154  0.10045  1.0000
  H   H2644     1.0  0.30981  0.60856  0.08410  1.0000
  H   H2645     1.0  0.27054  0.59885  0.12635  1.0000
  H   H2646     1.0  0.29141  0.58143  0.14271  1.0000
  C   C3312     1.0  0.36576  0.57584  0.19854  1.0000
  C   C3313     1.0  0.38067  0.57900  0.19927  1.0000
  C   C3314     1.0  0.38077  0.59342  0.20391  1.0000
  C   C3315     1.0  0.36588  0.60461  0.20823  1.0000
  C   C3316     1.0  0.35101  0.60160  0.20722  1.0000
  C   C3317     1.0  0.35097  0.58744  0.20211  1.0000
  H   H2647     1.0  0.39220  0.57018  0.19635  1.0000
  H   H2648     1.0  0.39230  0.59557  0.20471  1.0000
  H   H2649     1.0  0.33948  0.61021  0.21052  1.0000
  H   H2650     1.0  0.33947  0.58524  0.20138  1.0000
  C   C3318     1.0  0.27059  0.65115  0.40574  1.0000
  C   C3319     1.0  0.27861  0.66404  0.40327  1.0000
  C   C3320     1.0  0.27714  0.67733  0.38967  1.0000
  C   C3321     1.0  0.26788  0.67756  0.37851  1.0000
  H   H2651     1.0  0.27160  0.64087  0.41623  1.0000
  H   H2652     1.0  0.28309  0.68744  0.38775  1.0000
  H   H2653     1.0  0.26652  0.68800  0.36821  1.0000
  H   H2654     1.0  0.26019  0.69673  0.16139  1.0000
  C   C3322     1.0  0.25690  0.54557  0.25578  1.0000
  C   C3323     1.0  0.26087  0.55587  0.24014  1.0000
  C   C3324     1.0  0.27743  0.55511  0.23176  1.0000
  C   C3325     1.0  0.26629  0.59623  0.46141  1.0000
  H   H2655     1.0  0.25108  0.56424  0.23444  1.0000
  H   H2656     1.0  0.26610  0.53515  0.20055  1.0000
  C   C3326     1.0  0.34180  0.54275  0.23739  1.0000
  H   H2657     1.0  0.24216  0.57900  0.08129  1.0000
  C   C3327     1.0  0.28342  0.59102  0.45554  1.0000
  H   H2658     1.0  0.24056  0.65256  0.43253  1.0000
  C   C3328     1.0  0.24227  0.68970  0.42512  1.0000
  S   S468      1.0  0.32635  0.53740  0.20541  1.0000
  C   C3329     1.0  0.26023  0.66443  0.38078  1.0000
  C   C3330     1.0  0.27291  0.50602  0.32480  1.0000
  C   C3331     1.0  0.47084  0.70058  0.14888  1.0000
  C   C3332     1.0  0.35103  0.59537  0.26254  1.0000
  H   H2659     1.0  0.26115  0.49316  0.19083  1.0000
  H   H2660     1.0  0.28917  0.57794  0.45702  1.0000
  H   H2661     1.0  0.33201  0.59959  0.47237  1.0000
  H   H2662     1.0  0.32303  0.51452  0.15518  1.0000
  C   C3333     1.0  0.27452  0.49172  0.33736  1.0000
  C   C3334     1.0  0.33367  0.55844  0.24047  1.0000
  C   C3335     1.0  0.31242  0.70541  0.29526  1.0000
  C   C3336     1.0  0.43966  0.72677  0.21523  1.0000
  C   C3337     1.0  0.45002  0.71474  0.22465  1.0000
  C   C3338     1.0  0.28605  0.53373  0.25474  1.0000
  H   H2663     1.0  0.32657  0.63922  0.41917  1.0000
  H   H2664     1.0  0.44484  0.70818  0.23679  1.0000
  C   C3339     1.0  0.43713  0.67856  0.36616  1.0000
  H   H2665     1.0  0.27337  0.70371  0.17980  1.0000
  H   H2666     1.0  0.29323  0.62875  0.43811  1.0000
  S   S469      1.0  0.29871  0.70320  0.42602  1.0000
  C   C3340     1.0  0.46528  0.65543  0.26343  1.0000
  Fe  Fe236     1.0  0.32703  0.52683  0.18409  1.0000
  C   C3341     1.0  0.31205  0.49786  0.23671  1.0000
  C   C3342     1.0  0.25992  0.51482  0.17090  1.0000
  C   C3343     1.0  0.26307  0.68760  0.17225  1.0000
  C   C3344     1.0  0.33748  0.58391  0.29036  1.0000
  C   C3345     1.0  0.26791  0.51094  0.21673  1.0000
  H   H2667     1.0  0.32025  0.53637  0.12663  1.0000
  C   C3346     1.0  0.25279  0.72690  0.26999  1.0000
  C   C3347     1.0  0.30635  0.61280  0.24058  1.0000
  C   C3348     1.0  0.32548  0.58081  0.28420  1.0000
  H   H2668     1.0  0.26347  0.66567  0.45841  1.0000
  C   C3349     1.0  0.24239  0.54896  0.13451  1.0000
  H   H2669     1.0  0.24261  0.63928  0.25465  1.0000
  C   C3350     1.0  0.26006  0.50082  0.23082  1.0000
  C   C3351     1.0  0.32592  0.58543  0.26719  1.0000
  C   C3352     1.0  0.48570  0.71275  0.35795  1.0000
  C   C3353     1.0  0.25352  0.72075  0.38303  1.0000
  C   C3354     1.0  0.27423  0.49251  0.15003  1.0000
  H   H2670     1.0  0.28654  0.72922  0.32050  1.0000
  H   H2671     1.0  0.33956  0.71965  0.35271  1.0000
  H   H2672     1.0  0.45768  0.68260  0.20846  1.0000
  H   H2673     1.0  0.24345  0.65241  0.22528  1.0000
  C   C3355     1.0  0.29317  0.60270  0.44733  1.0000
  C   C3356     1.0  0.25148  0.70901  0.43436  1.0000
  C   C3357     1.0  0.26549  0.57131  0.28343  1.0000
  H   H2674     1.0  0.30741  0.57921  0.22629  1.0000
  H   H2675     1.0  0.35392  0.57894  0.14602  1.0000
  C   C3358     1.0  0.33061  0.60835  0.46089  1.0000
  C   C3359     1.0  0.32690  0.69663  0.46979  1.0000
  P   P111      1.0  0.47491  0.66138  0.28925  1.0000
  H   H2676     1.0  0.45778  0.65959  0.35809  1.0000
  C   C3360     1.0  0.30837  0.54264  0.12348  1.0000
  C   C3361     1.0  0.30769  0.55491  0.10902  1.0000
  C   C3362     1.0  0.29238  0.56344  0.10522  1.0000
  C   C3363     1.0  0.27770  0.55977  0.11591  1.0000
  C   C3364     1.0  0.27828  0.54729  0.13038  1.0000
  C   C3365     1.0  0.29375  0.53880  0.13410  1.0000
  P   P112      1.0  0.25948  0.54286  0.14483  1.0000
  C   C3366     1.0  0.26346  0.52084  0.15370  1.0000
  C   C3367     1.0  0.25423  0.55431  0.16088  1.0000
  H   H2677     1.0  0.36892  0.70671  0.38097  1.0000
  H   H2678     1.0  0.47500  0.70141  0.22560  1.0000
  C   C3368     1.0  0.38612  0.71674  0.35952  1.0000
  C   C3369     1.0  0.26253  0.56724  0.17803  1.0000
  C   C3370     1.0  0.26661  0.55878  0.16529  1.0000
  C   C3371     1.0  0.27088  0.50956  0.14333  1.0000
  H   H2679     1.0  0.35737  0.71785  0.16241  1.0000
  C   C3372     1.0  0.32778  0.63056  0.43078  1.0000
  H   H2680     1.0  0.34021  0.59522  0.24311  1.0000
  C   C3373     1.0  0.25181  0.48285  0.39443  1.0000
  H   H2681     1.0  0.47505  0.62583  0.29694  1.0000
  C   C3374     1.0  0.33632  0.72964  0.19841  1.0000
  H   H2682     1.0  0.30282  0.54383  0.23313  1.0000
  H   H2683     1.0  0.30634  0.59869  0.44267  1.0000
  H   H2684     1.0  0.42850  0.67039  0.37108  1.0000
  H   H2685     1.0  0.31902  0.55817  0.10104  1.0000
  H   H2686     1.0  0.29186  0.57334  0.09427  1.0000
  H   H2687     1.0  0.26605  0.56692  0.11289  1.0000
  H   H2688     1.0  0.29455  0.52942  0.14538  1.0000
  H   H2689     1.0  0.25316  0.66929  0.16788  1.0000
  S   S470      1.0  0.32709  0.49949  0.18891  1.0000
  H   H2690     1.0  0.25954  0.49861  0.26602  1.0000
  H   H2691     1.0  0.27215  0.57033  0.18168  1.0000
  H   H2692     1.0  0.27939  0.55577  0.15889  1.0000
  H   H2693     1.0  0.27425  0.51391  0.13006  1.0000
  H   H2694     1.0  0.33732  0.56924  0.23179  1.0000
  C   C3375     1.0  0.26355  0.49775  0.17757  1.0000
  H   H2695     1.0  0.27011  0.59299  0.24159  1.0000
  H   H2696     1.0  0.29245  0.60074  0.28330  1.0000
  H   H2697     1.0  0.26210  0.71868  0.26291  1.0000
  H   H2698     1.0  0.30416  0.63009  0.20068  1.0000
  H   H2699     1.0  0.30389  0.63786  0.22611  1.0000
  C   C3376     1.0  0.32185  0.62480  0.46078  1.0000
  H   H2700     1.0  0.26318  0.63801  0.44845  1.0000
  Fe  Fe237     1.0  0.42122  0.71941  0.27456  1.0000
  C   C3377     1.0  0.26459  0.60606  0.23800  1.0000
  C   C3378     1.0  0.24147  0.58133  0.42740  1.0000
  H   H2701     1.0  0.48098  0.54788  0.21794  1.0000
  C   C3379     1.0  0.39386  0.71666  0.34295  1.0000
  H   H2702     1.0  0.26550  0.69167  0.46396  1.0000
  C   C3380     1.0  0.32704  0.70744  0.28333  1.0000
  H   H2703     1.0  0.24407  0.54623  0.26210  1.0000
  C   C3381     1.0  0.29903  0.70280  0.29090  1.0000
  C   C3382     1.0  0.29997  0.70235  0.27462  1.0000
  C   C3383     1.0  0.31431  0.70464  0.26261  1.0000
  C   C3384     1.0  0.32770  0.70737  0.26688  1.0000
  C   C3385     1.0  0.33551  0.70395  0.32233  1.0000
  C   C3386     1.0  0.48118  0.70540  0.37477  1.0000
  S   S471      1.0  0.29551  0.72754  0.16897  1.0000
  C   C3387     1.0  0.26124  0.55557  0.43384  1.0000
  C   C3388     1.0  0.26201  0.55984  0.44807  1.0000
  C   C3389     1.0  0.36285  0.69736  0.28605  1.0000
  C   C3390     1.0  0.37420  0.69543  0.29582  1.0000
  C   C3391     1.0  0.38905  0.68354  0.29430  1.0000
  C   C3392     1.0  0.39282  0.67350  0.28298  1.0000
  C   C3393     1.0  0.38185  0.67555  0.27297  1.0000
  C   C3394     1.0  0.36701  0.68753  0.27436  1.0000
  C   C3395     1.0  0.27445  0.67982  0.19659  1.0000
  C   C3396     1.0  0.25557  0.72945  0.28420  1.0000
  C   C3397     1.0  0.32511  0.48430  0.23406  1.0000
  C   C3398     1.0  0.46631  0.57959  0.23804  1.0000
  C   C3399     1.0  0.24706  0.51790  0.34158  1.0000
  C   C3400     1.0  0.26883  0.62486  0.45054  1.0000
  H   H2704     1.0  0.25875  0.71711  0.39386  1.0000
  H   H2705     1.0  0.28941  0.70068  0.27125  1.0000
  H   H2706     1.0  0.31488  0.70480  0.24988  1.0000
  H   H2707     1.0  0.33831  0.71010  0.25716  1.0000
  H   H2708     1.0  0.33341  0.69275  0.32068  1.0000
  H   H2709     1.0  0.33195  0.69564  0.34884  1.0000
  C   C3401     1.0  0.47384  0.71929  0.20261  1.0000
  P   P113      1.0  0.34374  0.71303  0.28803  1.0000
  H   H2710     1.0  0.25665  0.70383  0.23918  1.0000
  C   C3402     1.0  0.26974  0.70025  0.23388  1.0000
  H   H2711     1.0  0.39797  0.68257  0.30144  1.0000
  H   H2712     1.0  0.40466  0.66478  0.28135  1.0000
  H   H2713     1.0  0.38522  0.66830  0.26362  1.0000
  H   H2714     1.0  0.35909  0.68922  0.26605  1.0000
  C   C3403     1.0  0.34301  0.64402  0.24411  1.0000
  C   C3404     1.0  0.35403  0.64985  0.24903  1.0000
  C   C3405     1.0  0.35578  0.66622  0.24263  1.0000
  C   C3406     1.0  0.34683  0.67666  0.23097  1.0000
  C   C3407     1.0  0.33627  0.67067  0.22540  1.0000
  C   C3408     1.0  0.33425  0.65432  0.23229  1.0000
  P   P114      1.0  0.32506  0.68388  0.20989  1.0000
  C   C3409     1.0  0.33385  0.70188  0.19932  1.0000
  C   C3410     1.0  0.32557  0.67289  0.19462  1.0000
  C   C3411     1.0  0.33688  0.65776  0.19311  1.0000
  C   C3412     1.0  0.33677  0.64926  0.18153  1.0000
  C   C3413     1.0  0.32570  0.65601  0.17101  1.0000
  C   C3414     1.0  0.31488  0.67137  0.17194  1.0000
  C   C3415     1.0  0.31489  0.67983  0.18362  1.0000
  C   C3416     1.0  0.34392  0.70278  0.18332  1.0000
  H   H2715     1.0  0.25427  0.60397  0.07085  1.0000
  H   H2716     1.0  0.34475  0.59043  0.44621  1.0000
  Fe  Fe238     1.0  0.33639  0.72231  0.11537  1.0000
  C   C3417     1.0  0.47905  0.66251  0.21086  1.0000
  C   C3418     1.0  0.30357  0.69057  0.21977  1.0000
  C   C3419     1.0  0.29588  0.68033  0.23390  1.0000
  C   C3420     1.0  0.48100  0.58489  0.23525  1.0000
  C   C3421     1.0  0.48106  0.55807  0.22297  1.0000
  H   H2717     1.0  0.24572  0.69710  0.14203  1.0000
  C   C3422     1.0  0.29409  0.70579  0.21291  1.0000
  H   H2718     1.0  0.34197  0.63121  0.24869  1.0000
  H   H2719     1.0  0.36156  0.64155  0.25744  1.0000
  H   H2720     1.0  0.36459  0.67070  0.24613  1.0000
  H   H2721     1.0  0.34873  0.68915  0.22591  1.0000
  H   H2722     1.0  0.32639  0.64928  0.22807  1.0000
  H   H2723     1.0  0.34602  0.65255  0.20062  1.0000
  H   H2724     1.0  0.34553  0.63756  0.18061  1.0000
  H   H2725     1.0  0.32578  0.64952  0.16191  1.0000
  H   H2726     1.0  0.30666  0.67694  0.16344  1.0000
  H   H2727     1.0  0.30674  0.69192  0.18386  1.0000
  H   H2728     1.0  0.34711  0.69254  0.17723  1.0000
  C   C3423     1.0  0.48102  0.67938  0.27465  1.0000
  C   C3424     1.0  0.28585  0.61961  0.44475  1.0000
  C   C3425     1.0  0.32066  0.63592  0.44557  1.0000
  C   C3426     1.0  0.34591  0.73060  0.18233  1.0000
  H   H2729     1.0  0.30267  0.66855  0.23954  1.0000
  H   H2730     1.0  0.25555  0.64122  0.39646  1.0000
  C   C3427     1.0  0.26225  0.72853  0.36802  1.0000
  C   C3428     1.0  0.48122  0.71136  0.31068  1.0000
  C   C3429     1.0  0.31753  0.54571  0.26629  1.0000
  C   C3430     1.0  0.28363  0.71757  0.05243  1.0000
  H   H2731     1.0  0.48758  0.69861  0.39856  1.0000
  H   H2732     1.0  0.48417  0.66648  0.31764  1.0000
  H   H2733     1.0  0.42936  0.71719  0.19033  1.0000
  H   H2734     1.0  0.28494  0.56292  0.26396  1.0000
  H   H2735     1.0  0.46919  0.71923  0.30967  1.0000
  C   C3431     1.0  0.33298  0.63100  0.07297  1.0000
  C   C3432     1.0  0.34668  0.61853  0.06865  1.0000
  C   C3433     1.0  0.35842  0.61189  0.07848  1.0000
  C   C3434     1.0  0.35632  0.61753  0.09279  1.0000
  C   C3435     1.0  0.34223  0.62956  0.09757  1.0000
  C   C3436     1.0  0.33085  0.63663  0.08728  1.0000
  P   P115      1.0  0.33955  0.63703  0.11590  1.0000
  C   C3437     1.0  0.34989  0.65409  0.10930  1.0000
  C   C3438     1.0  0.31773  0.64315  0.12460  1.0000
  C   C3439     1.0  0.31170  0.65648  0.13257  1.0000
  C   C3440     1.0  0.29489  0.66054  0.14004  1.0000
  C   C3441     1.0  0.28400  0.65141  0.13948  1.0000
  C   C3442     1.0  0.28988  0.63823  0.13143  1.0000
  C   C3443     1.0  0.30673  0.63391  0.12428  1.0000
  C   C3444     1.0  0.36628  0.65175  0.11082  1.0000
  C   C3445     1.0  0.37421  0.66506  0.10535  1.0000
  C   C3446     1.0  0.36607  0.68061  0.09781  1.0000
  C   C3447     1.0  0.34997  0.68290  0.09583  1.0000
  C   C3448     1.0  0.34196  0.66966  0.10143  1.0000
  C   C3449     1.0  0.34752  0.62089  0.13199  1.0000
  C   C3450     1.0  0.34731  0.60436  0.13318  1.0000
  C   C3451     1.0  0.35977  0.61209  0.15608  1.0000
  C   C3452     1.0  0.35327  0.62476  0.14388  1.0000
  H   H2736     1.0  0.32390  0.63621  0.06534  1.0000
  H   H2737     1.0  0.34823  0.61405  0.05765  1.0000
  H   H2738     1.0  0.36912  0.60233  0.07506  1.0000
  H   H2739     1.0  0.36562  0.61241  0.10017  1.0000
  H   H2740     1.0  0.32022  0.64642  0.09034  1.0000
  H   H2741     1.0  0.31990  0.66386  0.13290  1.0000
  H   H2742     1.0  0.29018  0.67109  0.14582  1.0000
  H   H2743     1.0  0.27095  0.65470  0.14503  1.0000
  H   H2744     1.0  0.28143  0.63122  0.13088  1.0000
  H   H2745     1.0  0.31113  0.62332  0.11855  1.0000
  H   H2746     1.0  0.37302  0.63969  0.11612  1.0000
  H   H2747     1.0  0.38667  0.66340  0.10697  1.0000
  H   H2748     1.0  0.37228  0.69087  0.09345  1.0000
  H   H2749     1.0  0.34366  0.69497  0.09000  1.0000
  H   H2750     1.0  0.32962  0.67153  0.09952  1.0000
  H   H2751     1.0  0.34224  0.60114  0.12465  1.0000
  H   H2752     1.0  0.35300  0.63749  0.14361  1.0000
  C   C3453     1.0  0.46713  0.68699  0.16143  1.0000
  H   H2753     1.0  0.25984  0.61015  0.18360  1.0000
  S   S472      1.0  0.24513  0.59089  0.35670  1.0000
  H   H2754     1.0  0.28576  0.50725  0.24085  1.0000
  C   C3454     1.0  0.46234  0.62865  0.26216  1.0000
  H   H2755     1.0  0.32237  0.72060  0.45349  1.0000
  H   H2756     1.0  0.45455  0.68506  0.16554  1.0000
  H   H2757     1.0  0.33714  0.58029  0.30349  1.0000
  C   C3455     1.0  0.29113  0.58115  0.27278  1.0000
  C   C3456     1.0  0.27051  0.69157  0.18264  1.0000
  C   C3457     1.0  0.46460  0.68320  0.35212  1.0000
  H   H2758     1.0  0.26350  0.68480  0.01275  1.0000
  C   C3458     1.0  0.25971  0.58222  0.29413  1.0000
  H   H2759     1.0  0.48703  0.71603  0.19768  1.0000
  C   C3459     1.0  0.46236  0.66933  0.21014  1.0000
  P   P116      1.0  0.25357  0.58109  0.46995  1.0000
  C   C3460     1.0  0.43171  0.69522  0.36708  1.0000
  H   H2760     1.0  0.35964  0.59345  0.28426  1.0000
  H   H2761     1.0  0.48042  0.59564  0.23966  1.0000
  C   C3461     1.0  0.33499  0.70535  0.33822  1.0000
  H   H2762     1.0  0.31866  0.50279  0.13384  1.0000
  H   H2763     1.0  0.29702  0.71430  0.04869  1.0000
  H   H2764     1.0  0.45909  0.62116  0.25582  1.0000
  H   H2765     1.0  0.28771  0.70157  0.30006  1.0000
  C   C3462     1.0  0.27417  0.68022  0.46749  1.0000
  C   C3463     1.0  0.27464  0.62744  0.18206  1.0000
  H   H2766     1.0  0.47679  0.66523  0.17837  1.0000
  C   C3464     1.0  0.41741  0.72555  0.18982  1.0000
  Fe  Fe239     1.0  0.30552  0.72560  0.14250  1.0000
  C   C3465     1.0  0.27443  0.73006  0.04220  1.0000
  C   C3466     1.0  0.47415  0.63510  0.21454  1.0000
  H   H2767     1.0  0.24507  0.67994  0.41849  1.0000
  C   C3467     1.0  0.32325  0.49181  0.17367  1.0000
  S   S473      1.0  0.44484  0.62835  0.21482  1.0000
  Fe  Fe240     1.0  0.32501  0.69388  0.42921  1.0000
  C   C3468     1.0  0.32112  0.56008  0.25471  1.0000
  C   C3469     1.0  0.33028  0.71536  0.20687  1.0000
  C   C3470     1.0  0.29031  0.63136  0.17560  1.0000
  H   H2768     1.0  0.31501  0.62448  0.16108  1.0000
  C   C3471     1.0  0.32321  0.71397  0.46597  1.0000
  H   H2769     1.0  0.34395  0.51642  0.24610  1.0000
  H   H2770     1.0  0.29578  0.52516  0.26038  1.0000
  H   H2771     1.0  0.28499  0.48145  0.33552  1.0000
  C   C3472     1.0  0.46707  0.71100  0.21836  1.0000
  C   C3473     1.0  0.35020  0.59126  0.27954  1.0000
  S   S474      1.0  0.24054  0.61948  0.38823  1.0000
  C   C3474     1.0  0.45642  0.66775  0.30435  1.0000
  C   C3475     1.0  0.33968  0.71653  0.30857  1.0000
  C   C3476     1.0  0.27904  0.68517  0.24090  1.0000
  C   C3477     1.0  0.44380  0.65877  0.31005  1.0000
  C   C3478     1.0  0.42980  0.66348  0.32208  1.0000
  C   C3479     1.0  0.42829  0.67715  0.32852  1.0000
  C   C3480     1.0  0.44065  0.68626  0.32281  1.0000
  C   C3481     1.0  0.45463  0.68162  0.31074  1.0000
  H   H2772     1.0  0.25035  0.56307  0.41246  1.0000
  C   C3482     1.0  0.33643  0.61419  0.43099  1.0000
  C   C3483     1.0  0.27559  0.70955  0.06774  1.0000
  C   C3484     1.0  0.37473  0.70667  0.36815  1.0000
  H   H2773     1.0  0.46397  0.66854  0.25796  1.0000
  C   C3485     1.0  0.36023  0.59558  0.15664  1.0000
  H   H2774     1.0  0.43821  0.71872  0.36163  1.0000
  H   H2775     1.0  0.42003  0.65662  0.32634  1.0000
  H   H2776     1.0  0.41746  0.68081  0.33784  1.0000
  H   H2777     1.0  0.43918  0.69714  0.32754  1.0000
  H   H2778     1.0  0.46394  0.68901  0.30626  1.0000
  H   H2779     1.0  0.26877  0.54404  0.43067  1.0000
  C   C3486     1.0  0.24122  0.60507  0.07160  1.0000
  C   C3487     1.0  0.24604  0.57169  0.18617  1.0000
  H   H2780     1.0  0.30515  0.60079  0.20094  1.0000
  C   C3488     1.0  0.27095  0.66413  0.20019  1.0000
  H   H2781     1.0  0.44461  0.64821  0.30520  1.0000
  H   H2782     1.0  0.45591  0.69247  0.27359  1.0000
  H   H2783     1.0  0.40573  0.70582  0.19160  1.0000
  H   H2784     1.0  0.25188  0.57172  0.33219  1.0000
  C   C3489     1.0  0.34984  0.71712  0.17486  1.0000
  C   C3490     1.0  0.27173  0.61361  0.17860  1.0000
  H   H2785     1.0  0.36112  0.60067  0.25401  1.0000
  C   C3491     1.0  0.46634  0.56614  0.23197  1.0000
  C   C3492     1.0  0.47148  0.63142  0.28521  1.0000
  H   H2786     1.0  0.45478  0.58627  0.24447  1.0000
  H   H2787     1.0  0.24822  0.64165  0.16430  1.0000
  H   H2788     1.0  0.47868  0.62187  0.21623  1.0000
  C   C3493     1.0  0.47059  0.64842  0.27835  1.0000
  H   H2789     1.0  0.37190  0.70332  0.30438  1.0000
  H   H2790     1.0  0.28173  0.59386  0.16550  1.0000
  H   H2791     1.0  0.26305  0.71369  0.99772  1.0000
  H   H2792     1.0  0.31459  0.50948  0.23674  1.0000
  C   C3494     1.0  0.30476  0.62503  0.22623  1.0000
  C   C3495     1.0  0.29002  0.54410  0.23916  1.0000
  C   C3496     1.0  0.26952  0.53449  0.26311  1.0000
  P   P117      1.0  0.25842  0.63988  0.19478  1.0000
  C   C3497     1.0  0.25906  0.61323  0.45868  1.0000
  H   H2793     1.0  0.23946  0.57515  0.13286  1.0000
  P   P118      1.0  0.31130  0.58041  0.25893  1.0000
  C   C3498     1.0  0.32188  0.50177  0.15805  1.0000
  C   C3499     1.0  0.30794  0.59609  0.24063  1.0000
  S   S475      1.0  0.26490  0.52186  0.28287  1.0000
  C   C3500     1.0  0.26273  0.66028  0.19024  1.0000
  C   C3501     1.0  0.25914  0.67203  0.17601  1.0000
  C   C3502     1.0  0.28416  0.60420  0.16850  1.0000
  C   C3503     1.0  0.25923  0.51914  0.32695  1.0000
  H   H2794     1.0  0.28345  0.63961  0.46608  1.0000
  C   C3504     1.0  0.30470  0.62066  0.21188  1.0000
  C   C3505     1.0  0.29971  0.60814  0.16218  1.0000
  H   H2795     1.0  0.45488  0.56224  0.23391  1.0000
  C   C3506     1.0  0.25833  0.71391  0.07288  1.0000
  H   H2796     1.0  0.31096  0.70647  0.30776  1.0000
  H   H2797     1.0  0.25462  0.52323  0.17921  1.0000
  C   C3507     1.0  0.30554  0.60416  0.21200  1.0000
  H   H2798     1.0  0.26700  0.72317  0.28811  1.0000
  C   C3508     1.0  0.26946  0.59283  0.29401  1.0000
  H   H2799     1.0  0.36399  0.65210  0.46946  1.0000
  C   C3509     1.0  0.46886  0.69284  0.26911  1.0000
  C   C3510     1.0  0.33770  0.52854  0.24863  1.0000
  H   H2800     1.0  0.35135  0.54163  0.22624  1.0000
  C   C3511     1.0  0.45916  0.70006  0.35270  1.0000
  H   H2801     1.0  0.26751  0.69234  0.41930  1.0000
  C   C3512     1.0  0.26487  0.61334  0.22132  1.0000
  H   H2802     1.0  0.27075  0.60567  0.21235  1.0000
  C   C3513     1.0  0.31945  0.49509  0.14598  1.0000
  C   C3514     1.0  0.33790  0.60309  0.44604  1.0000
  C   C3515     1.0  0.28095  0.57106  0.27253  1.0000
  H   H2803     1.0  0.32265  0.51899  0.27199  1.0000
  C   C3516     1.0  0.30291  0.62149  0.16604  1.0000
  C   C3517     1.0  0.38838  0.72937  0.19015  1.0000
  H   H2804     1.0  0.34207  0.61020  0.41946  1.0000
  C   C3518     1.0  0.46747  0.62156  0.27708  1.0000
  H   H2805     1.0  0.29959  0.71382  0.20192  1.0000
  H   H2806     1.0  0.30670  0.61634  0.25155  1.0000
  P   P119      1.0  0.47333  0.71389  0.34369  1.0000
  H   H2807     1.0  0.36558  0.58572  0.16579  1.0000
  S   S476      1.0  0.24923  0.66462  0.36630  1.0000
  H   H2808     1.0  0.25804  0.56295  0.28356  1.0000
  S   S477      1.0  0.33589  0.71065  0.40590  1.0000
  C   C3519     1.0  0.44272  0.70588  0.36064  1.0000
  C   C3520     1.0  0.47332  0.70680  0.25769  1.0000
  H   H2809     1.0  0.36466  0.61496  0.16499  1.0000
  H   H2810     1.0  0.46107  0.70921  0.14324  1.0000
  H   H2811     1.0  0.47007  0.70048  0.37956  1.0000
  H   H2812     1.0  0.27002  0.72242  0.21468  1.0000
  H   H2813     1.0  0.24556  0.49114  0.29520  1.0000
  H   H2814     1.0  0.31603  0.57461  0.29267  1.0000
  C   C3521     1.0  0.33903  0.59236  0.25638  1.0000
  H   H2815     1.0  0.24660  0.70788  0.32211  1.0000
  C   C3522     1.0  0.46117  0.64557  0.25544  1.0000
  C   C3523     1.0  0.30695  0.59190  0.22640  1.0000
  H   H2816     1.0  0.45687  0.65116  0.24409  1.0000
  H   H2817     1.0  0.30925  0.60093  0.15415  1.0000
  H   H2818     1.0  0.28038  0.68284  0.20454  1.0000
  C   C3524     1.0  0.28430  0.65075  0.46887  1.0000
  H   H2819     1.0  0.25774  0.66497  0.00017  1.0000
  C   C3525     1.0  0.45169  0.65905  0.21132  1.0000
  H   H2820     1.0  0.30850  0.54654  0.27777  1.0000
  C   C3526     1.0  0.26835  0.69850  0.33239  1.0000
  C   C3527     1.0  0.25704  0.69758  0.32401  1.0000
  C   C3528     1.0  0.25917  0.68340  0.31814  1.0000
  C   C3529     1.0  0.27252  0.67003  0.32086  1.0000
  C   C3530     1.0  0.28373  0.67069  0.32968  1.0000
  C   C3531     1.0  0.28169  0.68518  0.33517  1.0000
  P   P120      1.0  0.30099  0.65338  0.33317  1.0000
  C   C3532     1.0  0.29500  0.63442  0.33452  1.0000
  C   C3533     1.0  0.31840  0.65570  0.31593  1.0000
  C   C3534     1.0  0.33471  0.65004  0.31833  1.0000
  C   C3535     1.0  0.34815  0.65130  0.30487  1.0000
  C   C3536     1.0  0.34543  0.65777  0.28891  1.0000
  C   C3537     1.0  0.32928  0.66318  0.28635  1.0000
  C   C3538     1.0  0.31579  0.66213  0.29982  1.0000
  C   C3539     1.0  0.27934  0.63191  0.34374  1.0000
  C   C3540     1.0  0.27444  0.61745  0.34476  1.0000
  C   C3541     1.0  0.28506  0.60535  0.33650  1.0000
  C   C3542     1.0  0.30071  0.60770  0.32726  1.0000
  C   C3543     1.0  0.30573  0.62216  0.32631  1.0000
  C   C3544     1.0  0.30668  0.65249  0.35214  1.0000
  C   C3545     1.0  0.30198  0.64091  0.36666  1.0000
  C   C3546     1.0  0.30717  0.63981  0.38097  1.0000
  C   C3547     1.0  0.31692  0.65034  0.38097  1.0000
  C   C3548     1.0  0.32154  0.66197  0.36668  1.0000
  C   C3549     1.0  0.31637  0.66314  0.35234  1.0000
  H   H2821     1.0  0.26661  0.70951  0.33689  1.0000
  C   C3550     1.0  0.48487  0.64535  0.21318  1.0000
  H   H2822     1.0  0.25030  0.68274  0.31172  1.0000
  H   H2823     1.0  0.27387  0.65912  0.31630  1.0000
  H   H2824     1.0  0.29005  0.68616  0.34196  1.0000
  H   H2825     1.0  0.33712  0.64448  0.33056  1.0000
  H   H2826     1.0  0.36071  0.64717  0.30680  1.0000
  H   H2827     1.0  0.35587  0.65854  0.27852  1.0000
  H   H2828     1.0  0.32722  0.66822  0.27393  1.0000
  H   H2829     1.0  0.30337  0.66624  0.29761  1.0000
  H   H2830     1.0  0.27094  0.64110  0.35026  1.0000
  H   H2831     1.0  0.26239  0.61562  0.35208  1.0000
  H   H2832     1.0  0.28109  0.59415  0.33742  1.0000
  H   H2833     1.0  0.30898  0.59827  0.32094  1.0000
  H   H2834     1.0  0.31793  0.62367  0.31920  1.0000
  H   H2835     1.0  0.29413  0.63285  0.36718  1.0000
  H   H2836     1.0  0.30316  0.63118  0.39226  1.0000
  H   H2837     1.0  0.32052  0.64985  0.39217  1.0000
  H   H2838     1.0  0.32907  0.67010  0.36688  1.0000
  H   H2839     1.0  0.32000  0.67229  0.34141  1.0000
  S   S478      1.0  0.33117  0.68483  0.45464  1.0000
  C   C3551     1.0  0.45361  0.67251  0.35881  1.0000
  H   H2840     1.0  0.31429  0.64879  0.44502  1.0000
  H   H2841     1.0  0.43888  0.66445  0.21085  1.0000
  H   H2842     1.0  0.32263  0.71496  0.21920  1.0000
  H   H2843     1.0  0.27469  0.65508  0.21074  1.0000
  C   C3552     1.0  0.33936  0.71889  0.34043  1.0000
  H   H2844     1.0  0.25774  0.53002  0.31702  1.0000
  H   H2845     1.0  0.27310  0.67723  0.25171  1.0000
  C   C3553     1.0  0.35381  0.59175  0.14536  1.0000
  C   C3554     1.0  0.40404  0.71902  0.19047  1.0000
  C   C3555     1.0  0.25683  0.61545  0.24999  1.0000
  H   H2846     1.0  0.29279  0.64217  0.17769  1.0000
  C   C3556     1.0  0.25767  0.63022  0.21643  1.0000
  H   H2847     1.0  0.46377  0.71722  0.25366  1.0000
  H   H2848     1.0  0.26486  0.60136  0.30226  1.0000
  C   C3557     1.0  0.28511  0.59236  0.28333  1.0000
  C   C3558     1.0  0.45762  0.64186  0.21337  1.0000
  H   H2849     1.0  0.28283  0.70005  0.07569  1.0000
  C   C3559     1.0  0.25494  0.69660  0.42565  1.0000
  H   H2850     1.0  0.27041  0.55163  0.45562  1.0000
  C   C3560     1.0  0.24920  0.63213  0.24532  1.0000
  C   C3561     1.0  0.26241  0.49051  0.35208  1.0000
  C   C3562     1.0  0.47967  0.67582  0.16873  1.0000
  C   C3563     1.0  0.27298  0.66553  0.46447  1.0000
  H   H2851     1.0  0.42641  0.72949  0.22033  1.0000
  H   H2852     1.0  0.37244  0.72296  0.26311  1.0000
  C   C3564     1.0  0.26048  0.70530  0.99194  1.0000
  H   H2853     1.0  0.47728  0.67834  0.34639  1.0000
  C   C3565     1.0  0.29571  0.49659  0.23884  1.0000
  C   C3566     1.0  0.26078  0.68886  0.00054  1.0000
  H   H2854     1.0  0.41887  0.69998  0.37261  1.0000
  C   C3567     1.0  0.24865  0.50371  0.35433  1.0000
  H   H2855     1.0  0.37796  0.72410  0.19122  1.0000
  C   C3568     1.0  0.24902  0.72638  0.06257  1.0000
  H   H2856     1.0  0.25624  0.60967  0.26293  1.0000
  C   C3569     1.0  0.25752  0.67769  0.99346  1.0000
  H   H2857     1.0  0.24763  0.58251  0.30245  1.0000
  C   C3570     1.0  0.24963  0.63950  0.22863  1.0000
  H   H2858     1.0  0.24170  0.64671  0.31156  1.0000
  C   C3571     1.0  0.25397  0.68294  0.97774  1.0000
  H   H2859     1.0  0.24773  0.53039  0.36666  1.0000
  C   C3572     1.0  0.34417  0.73106  0.32675  1.0000
  C   C3573     1.0  0.25752  0.48613  0.27114  1.0000
  H   H2860     1.0  0.24156  0.52408  0.13420  1.0000
  H   H2861     1.0  0.38897  0.72457  0.36574  1.0000
  H   H2862     1.0  0.33779  0.48548  0.23186  1.0000
  H   H2863     1.0  0.24294  0.57856  0.19577  1.0000
  C   C3574     1.0  0.27055  0.48660  0.16711  1.0000
  H   H2864     1.0  0.29890  0.72926  0.34333  1.0000
  H   H2865     1.0  0.48692  0.70902  0.28551  1.0000
  C   C3575     1.0  0.24354  0.50677  0.23837  1.0000
  C   C3576     1.0  0.24811  0.73063  0.46187  1.0000
  H   H2866     1.0  0.44472  0.72821  0.32797  1.0000
  H   H2867     1.0  0.24012  0.55426  0.37958  1.0000
  S   S479      1.0  0.40883  0.72863  0.33282  1.0000
  C   C3577     1.0  0.24959  0.48194  0.28773  1.0000
  C   C3578     1.0  0.34404  0.73013  0.31091  1.0000
  C   C3579     1.0  0.23980  0.73095  0.35518  1.0000
  H   H2868     1.0  0.24909  0.72961  0.10811  1.0000
  H   H2869     1.0  0.27413  0.73099  0.36733  1.0000
  C   C3580     1.0  0.23859  0.64140  0.19041  1.0000
  C   C3581     1.0  0.48714  0.70286  0.14345  1.0000
  H   H2870     1.0  0.48850  0.62027  0.17385  1.0000
  C   C3582     1.0  0.25115  0.61211  0.63846  1.0000
  S   S480      1.0  0.27700  0.64536  0.51937  1.0000
  H   H2871     1.0  0.26016  0.61345  0.82651  1.0000
  H   H2872     1.0  0.34615  0.57122  0.76870  1.0000
  C   C3583     1.0  0.37253  0.60261  0.62063  1.0000
  S   S481      1.0  0.29306  0.51506  0.62986  1.0000
  S   S482      1.0  0.29287  0.67003  0.57470  1.0000
  C   C3584     1.0  0.32800  0.68822  0.48605  1.0000
  C   C3585     1.0  0.25722  0.70607  0.57541  1.0000
  C   C3586     1.0  0.41505  0.63465  0.65991  1.0000
  H   H2873     1.0  0.29190  0.71054  0.86967  1.0000
  C   C3587     1.0  0.46361  0.68837  0.75351  1.0000
  Fe  Fe241     1.0  0.43312  0.70642  0.62498  1.0000
  S   S483      1.0  0.44484  0.67982  0.63328  1.0000
  Fe  Fe242     1.0  0.25065  0.64811  0.51751  1.0000
  Fe  Fe243     1.0  0.31061  0.57673  0.68582  1.0000
  S   S484      1.0  0.32789  0.58927  0.66470  1.0000
  S   S485      1.0  0.28544  0.59241  0.69354  1.0000
  S   S486      1.0  0.35399  0.55363  0.66652  1.0000
  Fe  Fe244     1.0  0.34778  0.57518  0.67879  1.0000
  S   S487      1.0  0.36471  0.59148  0.67886  1.0000
  Fe  Fe245     1.0  0.33245  0.56677  0.65453  1.0000
  S   S488      1.0  0.33071  0.56907  0.62838  1.0000
  S   S489      1.0  0.31359  0.55533  0.67465  1.0000
  Fe  Fe246     1.0  0.42291  0.63475  0.72211  1.0000
  S   S490      1.0  0.44142  0.61460  0.71089  1.0000
  S   S491      1.0  0.41073  0.65921  0.70825  1.0000
  Fe  Fe247     1.0  0.42206  0.61469  0.75705  1.0000
  S   S492      1.0  0.44061  0.59285  0.74855  1.0000
  S   S493      1.0  0.41019  0.61368  0.78394  1.0000
  Fe  Fe248     1.0  0.45434  0.61208  0.73121  1.0000
  Fe  Fe249     1.0  0.42578  0.59772  0.72913  1.0000
  S   S494      1.0  0.41749  0.57751  0.72307  1.0000
  S   S495      1.0  0.43663  0.63344  0.74112  1.0000
  S   S496      1.0  0.40647  0.61814  0.73907  1.0000
  Fe  Fe250     1.0  0.27458  0.65853  0.76164  1.0000
  S   S497      1.0  0.27630  0.63639  0.78262  1.0000
  S   S498      1.0  0.29718  0.66940  0.75097  1.0000
  C   C3588     1.0  0.38914  0.59873  0.62161  1.0000
  S   S499      1.0  0.27134  0.59903  0.76742  1.0000
  C   C3589     1.0  0.32910  0.63661  0.48602  1.0000
  Fe  Fe251     1.0  0.36515  0.69749  0.80997  1.0000
  S   S500      1.0  0.35324  0.70705  0.78815  1.0000
  S   S501      1.0  0.39013  0.68021  0.80883  1.0000
  H   H2874     1.0  0.26034  0.52460  0.50532  1.0000
  C   C3590     1.0  0.23929  0.60657  0.82318  1.0000
  H   H2875     1.0  0.43269  0.59417  0.67356  1.0000
  Fe  Fe252     1.0  0.32965  0.70440  0.80709  1.0000
  S   S502      1.0  0.30733  0.69546  0.80788  1.0000
  H   H2876     1.0  0.35217  0.70408  0.75490  1.0000
  P   P121      1.0  0.39012  0.65063  0.64251  1.0000
  S   S503      1.0  0.34201  0.69261  0.82845  1.0000
  C   C3591     1.0  0.23933  0.58951  0.53745  1.0000
  C   C3592     1.0  0.33662  0.48492  0.69991  1.0000
  H   H2877     1.0  0.28026  0.49196  0.70453  1.0000
  C   C3593     1.0  0.25344  0.69941  0.96919  1.0000
  C   C3594     1.0  0.30127  0.67490  0.76729  1.0000
  C   C3595     1.0  0.31642  0.67882  0.76590  1.0000
  C   C3596     1.0  0.31876  0.68483  0.77848  1.0000
  C   C3597     1.0  0.30593  0.68680  0.79239  1.0000
  C   C3598     1.0  0.29122  0.68201  0.79410  1.0000
  C   C3599     1.0  0.28895  0.67598  0.78166  1.0000
  H   H2878     1.0  0.32615  0.67749  0.75503  1.0000
  H   H2879     1.0  0.33028  0.68819  0.77735  1.0000
  H   H2880     1.0  0.28137  0.68324  0.80497  1.0000
  H   H2881     1.0  0.27742  0.67259  0.78310  1.0000
  C   C3600     1.0  0.35677  0.55732  0.78941  1.0000
  H   H2882     1.0  0.32940  0.60244  0.50104  1.0000
  H   H2883     1.0  0.34519  0.49645  0.60852  1.0000
  C   C3601     1.0  0.31635  0.60230  0.50400  1.0000
  C   C3602     1.0  0.31947  0.50809  0.68484  1.0000
  C   C3603     1.0  0.27969  0.69451  0.51405  1.0000
  Fe  Fe253     1.0  0.27003  0.52220  0.61950  1.0000
  C   C3604     1.0  0.38702  0.53350  0.64140  1.0000
  C   C3605     1.0  0.27666  0.54542  0.66086  1.0000
  H   H2884     1.0  0.36770  0.54040  0.80907  1.0000
  H   H2885     1.0  0.39559  0.60859  0.61924  1.0000
  C   C3606     1.0  0.39280  0.66237  0.80146  1.0000
  C   C3607     1.0  0.39861  0.66263  0.78457  1.0000
  C   C3608     1.0  0.40362  0.64775  0.77898  1.0000
  C   C3609     1.0  0.40286  0.63262  0.79030  1.0000
  C   C3610     1.0  0.39652  0.63246  0.80711  1.0000
  C   C3611     1.0  0.39160  0.64728  0.81270  1.0000
  H   H2886     1.0  0.39978  0.67427  0.77595  1.0000
  H   H2887     1.0  0.40845  0.64789  0.76601  1.0000
  H   H2888     1.0  0.39590  0.62079  0.81591  1.0000
  H   H2889     1.0  0.38744  0.64698  0.82579  1.0000
  C   C3612     1.0  0.28057  0.59360  0.71433  1.0000
  C   C3613     1.0  0.27023  0.60796  0.71907  1.0000
  C   C3614     1.0  0.26704  0.60957  0.73543  1.0000
  C   C3615     1.0  0.27396  0.59673  0.74719  1.0000
  C   C3616     1.0  0.28344  0.58195  0.74267  1.0000
  C   C3617     1.0  0.28700  0.58046  0.72620  1.0000
  H   H2890     1.0  0.26486  0.61796  0.71002  1.0000
  H   H2891     1.0  0.25905  0.62067  0.73891  1.0000
  H   H2892     1.0  0.28842  0.57183  0.75183  1.0000
  H   H2893     1.0  0.29474  0.56921  0.72267  1.0000
  C   C3618     1.0  0.40216  0.58186  0.71142  1.0000
  C   C3619     1.0  0.39597  0.56875  0.71047  1.0000
  C   C3620     1.0  0.38415  0.57152  0.70095  1.0000
  C   C3621     1.0  0.37870  0.58744  0.69193  1.0000
  C   C3622     1.0  0.38482  0.60060  0.69297  1.0000
  C   C3623     1.0  0.39635  0.59787  0.70280  1.0000
  H   H2894     1.0  0.40049  0.55637  0.71704  1.0000
  H   H2895     1.0  0.37952  0.56129  0.70032  1.0000
  H   H2896     1.0  0.38068  0.61298  0.68613  1.0000
  H   H2897     1.0  0.40108  0.60807  0.70334  1.0000
  C   C3624     1.0  0.43612  0.67434  0.65436  1.0000
  C   C3625     1.0  0.42206  0.68487  0.66157  1.0000
  C   C3626     1.0  0.41462  0.68028  0.67826  1.0000
  C   C3627     1.0  0.42119  0.66515  0.68780  1.0000
  C   C3628     1.0  0.43569  0.65495  0.68081  1.0000
  C   C3629     1.0  0.44307  0.65945  0.66403  1.0000
  H   H2898     1.0  0.41668  0.69646  0.65431  1.0000
  H   H2899     1.0  0.40365  0.68840  0.68371  1.0000
  H   H2900     1.0  0.44118  0.64357  0.68820  1.0000
  H   H2901     1.0  0.45408  0.65138  0.65855  1.0000
  H   H2902     1.0  0.23906  0.69341  0.53006  1.0000
  C   C3630     1.0  0.43809  0.63860  0.80177  1.0000
  H   H2903     1.0  0.34055  0.51575  0.74672  1.0000
  C   C3631     1.0  0.30464  0.52973  0.62776  1.0000
  C   C3632     1.0  0.30242  0.54518  0.61676  1.0000
  C   C3633     1.0  0.31111  0.55699  0.61636  1.0000
  C   C3634     1.0  0.32143  0.55364  0.62745  1.0000
  C   C3635     1.0  0.32380  0.53813  0.63824  1.0000
  C   C3636     1.0  0.31580  0.52607  0.63806  1.0000
  H   H2904     1.0  0.29396  0.54803  0.60867  1.0000
  H   H2905     1.0  0.30934  0.56894  0.60790  1.0000
  H   H2906     1.0  0.33162  0.53548  0.64692  1.0000
  H   H2907     1.0  0.31751  0.51421  0.64662  1.0000
  C   C3637     1.0  0.28056  0.65326  0.53452  1.0000
  C   C3638     1.0  0.26878  0.65492  0.54920  1.0000
  C   C3639     1.0  0.27236  0.66063  0.56130  1.0000
  C   C3640     1.0  0.28772  0.66468  0.55878  1.0000
  C   C3641     1.0  0.29924  0.66352  0.54390  1.0000
  C   C3642     1.0  0.29571  0.65772  0.53189  1.0000
  H   H2908     1.0  0.25709  0.65149  0.55135  1.0000
  H   H2909     1.0  0.31103  0.66679  0.54172  1.0000
  H   H2910     1.0  0.30458  0.65714  0.52033  1.0000
  H   H2911     1.0  0.26238  0.57169  0.53276  1.0000
  H   H2912     1.0  0.24928  0.54700  0.48354  1.0000
  H   H2913     1.0  0.26333  0.66171  0.57269  1.0000
  S   S504      1.0  0.32995  0.56397  0.70074  1.0000
  H   H2914     1.0  0.39369  0.52557  0.66531  1.0000
  H   H2915     1.0  0.25804  0.51313  0.72433  1.0000
  C   C3643     1.0  0.25784  0.54906  0.48950  1.0000
  H   H2916     1.0  0.42652  0.67994  0.79979  1.0000
  C   C3644     1.0  0.44710  0.63861  0.78561  1.0000
  C   C3645     1.0  0.39306  0.52523  0.72651  1.0000
  C   C3646     1.0  0.24670  0.48448  0.68717  1.0000
  H   H2917     1.0  0.39869  0.70406  0.59898  1.0000
  H   H2918     1.0  0.45751  0.70917  0.77468  1.0000
  H   H2919     1.0  0.43092  0.67293  0.58019  1.0000
  C   C3647     1.0  0.37737  0.53112  0.63190  1.0000
  C   C3648     1.0  0.43109  0.65358  0.80681  1.0000
  C   C3649     1.0  0.31062  0.58951  0.51645  1.0000
  H   H2920     1.0  0.41328  0.56770  0.59939  1.0000
  H   H2921     1.0  0.33082  0.72514  0.75543  1.0000
  H   H2922     1.0  0.27578  0.57911  0.49114  1.0000
  H   H2923     1.0  0.37092  0.52339  0.70028  1.0000
  C   C3650     1.0  0.47120  0.67202  0.69339  1.0000
  C   C3651     1.0  0.43385  0.54451  0.66742  1.0000
  H   H2924     1.0  0.38306  0.53571  0.74791  1.0000
  H   H2925     1.0  0.43494  0.69658  0.68871  1.0000
  H   H2926     1.0  0.28461  0.72451  0.83027  1.0000
  H   H2927     1.0  0.24118  0.59115  0.73805  1.0000
  C   C3652     1.0  0.35973  0.52920  0.77772  1.0000
  C   C3653     1.0  0.28166  0.72082  0.94005  1.0000
  C   C3654     1.0  0.44485  0.71481  0.69348  1.0000
  H   H2928     1.0  0.30298  0.50178  0.67403  1.0000
  H   H2929     1.0  0.44075  0.53000  0.57255  1.0000
  C   C3655     1.0  0.32397  0.49314  0.60188  1.0000
  S   S505      1.0  0.36240  0.72235  0.81516  1.0000
  C   C3656     1.0  0.33438  0.51850  0.59293  1.0000
  C   C3657     1.0  0.32193  0.52615  0.58405  1.0000
  C   C3658     1.0  0.31078  0.51724  0.58370  1.0000
  C   C3659     1.0  0.31188  0.50078  0.59246  1.0000
  H   H2930     1.0  0.34561  0.72519  0.60584  1.0000
  C   C3660     1.0  0.25494  0.60327  0.82672  1.0000
  C   C3661     1.0  0.26401  0.53638  0.50188  1.0000
  C   C3662     1.0  0.32932  0.52259  0.75334  1.0000
  C   C3663     1.0  0.24290  0.71660  0.57055  1.0000
  H   H2931     1.0  0.32072  0.53906  0.57773  1.0000
  H   H2932     1.0  0.30093  0.52324  0.57705  1.0000
  C   C3664     1.0  0.34508  0.73093  0.61573  1.0000
  H   H2933     1.0  0.37212  0.68053  0.76682  1.0000
  C   C3665     1.0  0.37558  0.51323  0.66455  1.0000
  C   C3666     1.0  0.41751  0.55467  0.59921  1.0000
  C   C3667     1.0  0.24173  0.57714  0.82659  1.0000
  H   H2934     1.0  0.37640  0.65611  0.72842  1.0000
  H   H2935     1.0  0.42827  0.66558  0.75440  1.0000
  C   C3668     1.0  0.43308  0.53345  0.58389  1.0000
  H   H2936     1.0  0.25895  0.72413  0.60513  1.0000
  C   C3669     1.0  0.28850  0.61434  0.49973  1.0000
  C   C3670     1.0  0.28281  0.60153  0.51219  1.0000
  C   C3671     1.0  0.29381  0.58918  0.52062  1.0000
  C   C3672     1.0  0.26436  0.69055  0.51654  1.0000
  C   C3673     1.0  0.24024  0.65465  0.64988  1.0000
  C   C3674     1.0  0.36560  0.51139  0.65518  1.0000
  C   C3675     1.0  0.35152  0.55898  0.77499  1.0000
  C   C3676     1.0  0.24838  0.70995  0.91179  1.0000
  H   H2937     1.0  0.25004  0.56261  0.73376  1.0000
  C   C3677     1.0  0.34057  0.63954  0.50752  1.0000
  C   C3678     1.0  0.32829  0.63531  0.50278  1.0000
  C   C3679     1.0  0.41310  0.66860  0.62118  1.0000
  C   C3680     1.0  0.43377  0.70510  0.77468  1.0000
  S   S506      1.0  0.33348  0.68601  0.54499  1.0000
  C   C3681     1.0  0.24222  0.71098  0.85848  1.0000
  H   H2938     1.0  0.26975  0.60147  0.51566  1.0000
  H   H2939     1.0  0.28924  0.57953  0.53054  1.0000
  C   C3682     1.0  0.37542  0.71518  0.56348  1.0000
  H   H2940     1.0  0.27862  0.70878  0.94482  1.0000
  C   C3683     1.0  0.24076  0.68263  0.64975  1.0000
  C   C3684     1.0  0.48833  0.71654  0.58923  1.0000
  C   C3685     1.0  0.35326  0.54495  0.76886  1.0000
  H   H2941     1.0  0.33963  0.63892  0.52044  1.0000
  H   H2942     1.0  0.31791  0.63146  0.51215  1.0000
  C   C3686     1.0  0.29927  0.61987  0.56752  1.0000
  C   C3687     1.0  0.30025  0.60646  0.56091  1.0000
  C   C3688     1.0  0.28865  0.59649  0.56797  1.0000
  C   C3689     1.0  0.27583  0.60018  0.58137  1.0000
  C   C3690     1.0  0.27433  0.61407  0.58766  1.0000
  C   C3691     1.0  0.28646  0.62358  0.58093  1.0000
  P   P122      1.0  0.25685  0.61929  0.60416  1.0000
  C   C3692     1.0  0.26106  0.60732  0.62392  1.0000
  C   C3693     1.0  0.25210  0.64099  0.60486  1.0000
  C   C3694     1.0  0.26321  0.64726  0.60933  1.0000
  C   C3695     1.0  0.25976  0.66398  0.60988  1.0000
  H   H2943     1.0  0.43068  0.68267  0.60470  1.0000
  C   C3696     1.0  0.24355  0.56921  0.70989  1.0000
  C   C3697     1.0  0.34332  0.63955  0.63550  1.0000
  H   H2944     1.0  0.43071  0.55968  0.57381  1.0000
  S   S507      1.0  0.24575  0.64794  0.82085  1.0000
  C   C3698     1.0  0.26832  0.59008  0.65475  1.0000
  C   C3699     1.0  0.27807  0.58507  0.64034  1.0000
  C   C3700     1.0  0.27449  0.59363  0.62497  1.0000
  C   C3701     1.0  0.41892  0.52564  0.61242  1.0000
  H   H2945     1.0  0.26440  0.56125  0.83274  1.0000
  H   H2946     1.0  0.41398  0.65284  0.58295  1.0000
  H   H2947     1.0  0.35885  0.51878  0.63158  1.0000
  H   H2948     1.0  0.28656  0.55665  0.51291  1.0000
  H   H2949     1.0  0.28579  0.72974  0.47901  1.0000
  H   H2950     1.0  0.30814  0.62774  0.56197  1.0000
  H   H2951     1.0  0.30990  0.60393  0.55022  1.0000
  H   H2952     1.0  0.28936  0.58606  0.56289  1.0000
  H   H2953     1.0  0.26685  0.59237  0.58657  1.0000
  H   H2954     1.0  0.28589  0.63422  0.58551  1.0000
  H   H2955     1.0  0.27465  0.63923  0.61219  1.0000
  H   H2956     1.0  0.26876  0.66885  0.61260  1.0000
  H   H2957     1.0  0.37785  0.53799  0.61924  1.0000
  H   H2958     1.0  0.40098  0.69832  0.71917  1.0000
  H   H2959     1.0  0.43628  0.62702  0.81030  1.0000
  H   H2960     1.0  0.30660  0.72256  0.64904  1.0000
  C   C3702     1.0  0.47958  0.66209  0.72428  1.0000
  H   H2961     1.0  0.27126  0.58355  0.66664  1.0000
  H   H2962     1.0  0.28861  0.57468  0.64106  1.0000
  H   H2963     1.0  0.28233  0.58960  0.61401  1.0000
  C   C3703     1.0  0.33551  0.50202  0.60170  1.0000
  C   C3704     1.0  0.46375  0.66221  0.72302  1.0000
  C   C3705     1.0  0.32285  0.71426  0.49436  1.0000
  C   C3706     1.0  0.28953  0.71663  0.75370  1.0000
  H   H2964     1.0  0.35687  0.50335  0.66073  1.0000
  S   S508      1.0  0.33982  0.51597  0.69995  1.0000
  C   C3707     1.0  0.25449  0.49770  0.67909  1.0000
  S   S509      1.0  0.32697  0.72466  0.85667  1.0000
  C   C3708     1.0  0.42549  0.62083  0.66757  1.0000
  H   H2965     1.0  0.35565  0.67906  0.71680  1.0000
  H   H2966     1.0  0.41323  0.67299  0.63173  1.0000
  H   H2967     1.0  0.31559  0.50425  0.75585  1.0000
  H   H2968     1.0  0.25142  0.50573  0.66782  1.0000
  C   C3709     1.0  0.33245  0.70674  0.70888  1.0000
  C   C3710     1.0  0.24000  0.58864  0.72690  1.0000
  H   H2969     1.0  0.36902  0.62712  0.66222  1.0000
  H   H2970     1.0  0.36087  0.51819  0.77336  1.0000
  Fe  Fe254     1.0  0.26386  0.62577  0.76969  1.0000
  C   C3711     1.0  0.32751  0.64798  0.80118  1.0000
  C   C3712     1.0  0.34072  0.65410  0.80175  1.0000
  C   C3713     1.0  0.35649  0.64909  0.79226  1.0000
  C   C3714     1.0  0.35916  0.63775  0.78241  1.0000
  C   C3715     1.0  0.34602  0.63125  0.78209  1.0000
  C   C3716     1.0  0.33004  0.63692  0.79110  1.0000
  P   P123      1.0  0.34952  0.61651  0.76947  1.0000
  C   C3717     1.0  0.34969  0.62819  0.74846  1.0000
  C   C3718     1.0  0.36794  0.60041  0.77186  1.0000
  C   C3719     1.0  0.37442  0.58977  0.76081  1.0000
  C   C3720     1.0  0.38847  0.57708  0.76261  1.0000
  C   C3721     1.0  0.39602  0.57470  0.77568  1.0000
  C   C3722     1.0  0.38926  0.58477  0.78717  1.0000
  C   C3723     1.0  0.37523  0.59751  0.78536  1.0000
  C   C3724     1.0  0.33526  0.63948  0.74477  1.0000
  C   C3725     1.0  0.33470  0.64789  0.72848  1.0000
  C   C3726     1.0  0.34872  0.64549  0.71578  1.0000
  C   C3727     1.0  0.36330  0.63460  0.71938  1.0000
  C   C3728     1.0  0.36379  0.62602  0.73565  1.0000
  C   C3729     1.0  0.33291  0.60551  0.77657  1.0000
  C   C3730     1.0  0.32825  0.59832  0.79342  1.0000
  C   C3731     1.0  0.31530  0.58986  0.79903  1.0000
  C   C3732     1.0  0.30712  0.58832  0.78782  1.0000
  C   C3733     1.0  0.31204  0.59504  0.77100  1.0000
  C   C3734     1.0  0.32481  0.60364  0.76540  1.0000
  H   H2971     1.0  0.31517  0.65229  0.80814  1.0000
  H   H2972     1.0  0.33861  0.66307  0.80921  1.0000
  H   H2973     1.0  0.36663  0.65404  0.79255  1.0000
  H   H2974     1.0  0.37152  0.63391  0.77524  1.0000
  H   H2975     1.0  0.31943  0.63299  0.79031  1.0000
  H   H2976     1.0  0.36875  0.59144  0.75065  1.0000
  H   H2977     1.0  0.39371  0.56927  0.75368  1.0000
  H   H2978     1.0  0.40722  0.56521  0.77680  1.0000
  H   H2979     1.0  0.39527  0.58312  0.79718  1.0000
  H   H2980     1.0  0.37035  0.60512  0.79444  1.0000
  H   H2981     1.0  0.32429  0.64152  0.75450  1.0000
  H   H2982     1.0  0.32330  0.65622  0.72581  1.0000
  H   H2983     1.0  0.34831  0.65213  0.70319  1.0000
  H   H2984     1.0  0.37430  0.63280  0.70963  1.0000
  H   H2985     1.0  0.37515  0.61769  0.73808  1.0000
  H   H2986     1.0  0.33445  0.59950  0.80222  1.0000
  H   H2987     1.0  0.31146  0.58470  0.81208  1.0000
  H   H2988     1.0  0.29681  0.58215  0.79211  1.0000
  H   H2989     1.0  0.30574  0.59388  0.76229  1.0000
  H   H2990     1.0  0.32819  0.60886  0.75237  1.0000
  P   P124      1.0  0.33739  0.71104  0.72612  1.0000
  H   H2991     1.0  0.25991  0.72330  0.49827  1.0000
  H   H2992     1.0  0.36609  0.61544  0.61757  1.0000
  C   C3735     1.0  0.25296  0.70563  0.53861  1.0000
  C   C3736     1.0  0.31516  0.51592  0.75862  1.0000
  H   H2993     1.0  0.41268  0.55994  0.67998  1.0000
  C   C3737     1.0  0.41747  0.55352  0.66993  1.0000
  C   C3738     1.0  0.41393  0.60273  0.65911  1.0000
  H   H2994     1.0  0.24317  0.65788  0.89573  1.0000
  H   H2995     1.0  0.25034  0.70336  0.95717  1.0000
  H   H2996     1.0  0.31590  0.67921  0.70027  1.0000
  S   S510      1.0  0.36747  0.68453  0.57130  1.0000
  H   H2997     1.0  0.38434  0.65641  0.75358  1.0000
  C   C3739     1.0  0.28152  0.70452  0.52335  1.0000
  H   H2998     1.0  0.30302  0.49416  0.59222  1.0000
  C   C3740     1.0  0.41649  0.71017  0.77977  1.0000
  Fe  Fe255     1.0  0.31287  0.72037  0.57052  1.0000
  C   C3741     1.0  0.35437  0.64685  0.47882  1.0000
  C   C3742     1.0  0.36409  0.63412  0.65147  1.0000
  C   C3743     1.0  0.42418  0.70733  0.74034  1.0000
  H   H2999     1.0  0.27965  0.62404  0.49379  1.0000
  H   H3000     1.0  0.37009  0.51539  0.79885  1.0000
  C   C3744     1.0  0.33609  0.71650  0.69286  1.0000
  C   C3745     1.0  0.36833  0.68020  0.75598  1.0000
  C   C3746     1.0  0.40736  0.55438  0.65941  1.0000
  C   C3747     1.0  0.36365  0.53624  0.73610  1.0000
  H   H3001     1.0  0.44164  0.54392  0.67561  1.0000
  C   C3748     1.0  0.42484  0.60487  0.66729  1.0000
  C   C3749     1.0  0.37519  0.66662  0.74858  1.0000
  C   C3750     1.0  0.39745  0.58216  0.62551  1.0000
  H   H3002     1.0  0.43324  0.50822  0.59726  1.0000
  C   C3751     1.0  0.30565  0.72466  0.76777  1.0000
  C   C3752     1.0  0.32595  0.69695  0.49829  1.0000
  C   C3753     1.0  0.44130  0.66877  0.77914  1.0000
  H   H3003     1.0  0.33576  0.72009  0.66728  1.0000
  S   S511      1.0  0.26790  0.50905  0.60133  1.0000
  H   H3004     1.0  0.27609  0.58454  0.83289  1.0000
  C   C3754     1.0  0.39149  0.72281  0.57833  1.0000
  C   C3755     1.0  0.38010  0.53261  0.73791  1.0000
  C   C3756     1.0  0.36665  0.52017  0.63880  1.0000
  C   C3757     1.0  0.24312  0.55005  0.67643  1.0000
  H   H3005     1.0  0.24276  0.60189  0.49412  1.0000
  C   C3758     1.0  0.31872  0.71656  0.74148  1.0000
  C   C3759     1.0  0.45951  0.66719  0.70763  1.0000
  H   H3006     1.0  0.39984  0.51635  0.70402  1.0000
  C   C3760     1.0  0.38634  0.52415  0.65769  1.0000
  S   S512      1.0  0.26470  0.64679  0.74748  1.0000
  C   C3761     1.0  0.25106  0.57489  0.54162  1.0000
  C   C3762     1.0  0.33146  0.50216  0.69438  1.0000
  H   H3007     1.0  0.47413  0.67100  0.77353  1.0000
  H   H3008     1.0  0.34803  0.53604  0.72043  1.0000
  S   S513      1.0  0.26230  0.54560  0.56219  1.0000
  C   C3763     1.0  0.31240  0.49700  0.68125  1.0000
  H   H3009     1.0  0.24200  0.68732  0.60748  1.0000
  C   C3764     1.0  0.25424  0.72168  0.59584  1.0000
  C   C3765     1.0  0.48175  0.69036  0.62987  1.0000
  H   H3010     1.0  0.33059  0.67487  0.48919  1.0000
  C   C3766     1.0  0.33275  0.71262  0.67960  1.0000
  H   H3011     1.0  0.34283  0.52551  0.59344  1.0000
  C   C3767     1.0  0.25094  0.69627  0.52862  1.0000
  H   H3012     1.0  0.30661  0.72818  0.77851  1.0000
  H   H3013     1.0  0.39464  0.56143  0.66161  1.0000
  S   S514      1.0  0.33566  0.72196  0.55037  1.0000
  C   C3768     1.0  0.26668  0.50030  0.68524  1.0000
  C   C3769     1.0  0.44018  0.53633  0.65436  1.0000
  Fe  Fe256     1.0  0.25073  0.64926  0.79363  1.0000
  H   H3014     1.0  0.28795  0.69162  0.47676  1.0000
  H   H3015     1.0  0.30200  0.71002  0.73074  1.0000
  H   H3016     1.0  0.24379  0.53157  0.54846  1.0000
  C   C3770     1.0  0.34890  0.72718  0.71868  1.0000
  H   H3017     1.0  0.29018  0.68978  0.50498  1.0000
  P   P125      1.0  0.25973  0.71697  0.86122  1.0000
  C   C3771     1.0  0.44416  0.71307  0.77818  1.0000
  C   C3772     1.0  0.25668  0.71966  0.88203  1.0000
  Fe  Fe257     1.0  0.23969  0.65794  0.76127  1.0000
  C   C3773     1.0  0.42343  0.66839  0.59211  1.0000
  H   H3018     1.0  0.45486  0.65818  0.73396  1.0000
  C   C3774     1.0  0.36355  0.54164  0.79795  1.0000
  C   C3775     1.0  0.24974  0.70848  0.89570  1.0000
  H   H3019     1.0  0.41582  0.51597  0.62312  1.0000
  C   C3776     1.0  0.44900  0.65359  0.77442  1.0000
  S   S515      1.0  0.29915  0.71444  0.55507  1.0000
  H   H3020     1.0  0.31737  0.68910  0.86517  1.0000
  C   C3777     1.0  0.43365  0.70964  0.68807  1.0000
  C   C3778     1.0  0.27834  0.70108  0.85790  1.0000
  C   C3779     1.0  0.27951  0.68918  0.84909  1.0000
  C   C3780     1.0  0.29397  0.67687  0.84680  1.0000
  C   C3781     1.0  0.30752  0.67665  0.85282  1.0000
  C   C3782     1.0  0.30663  0.68878  0.86114  1.0000
  C   C3783     1.0  0.29212  0.70097  0.86365  1.0000
  C   C3784     1.0  0.42884  0.52119  0.59780  1.0000
  H   H3021     1.0  0.40822  0.70384  0.77768  1.0000
  C   C3785     1.0  0.26241  0.56441  0.48511  1.0000
  H   H3022     1.0  0.31534  0.52122  0.68046  1.0000
  H   H3023     1.0  0.37454  0.50651  0.67731  1.0000
  H   H3024     1.0  0.31917  0.57999  0.52302  1.0000
  C   C3786     1.0  0.27446  0.53909  0.51022  1.0000
  C   C3787     1.0  0.37052  0.66637  0.73447  1.0000
  C   C3788     1.0  0.43016  0.53723  0.64373  1.0000
  H   H3025     1.0  0.48411  0.71095  0.67917  1.0000
  H   H3026     1.0  0.47016  0.61835  0.75767  1.0000
  C   C3789     1.0  0.42959  0.69131  0.74949  1.0000
  C   C3790     1.0  0.38928  0.56927  0.62817  1.0000
  H   H3027     1.0  0.32701  0.69025  0.51068  1.0000
  C   C3791     1.0  0.37258  0.57332  0.62713  1.0000
  H   H3028     1.0  0.26953  0.68959  0.84355  1.0000
  H   H3029     1.0  0.29498  0.66803  0.83957  1.0000
  H   H3030     1.0  0.31893  0.66750  0.85047  1.0000
  H   H3031     1.0  0.29585  0.70729  0.61019  1.0000
  C   C3792     1.0  0.32170  0.68952  0.69813  1.0000
  C   C3793     1.0  0.29407  0.53404  0.71968  1.0000
  C   C3794     1.0  0.29573  0.51698  0.72582  1.0000
  C   C3795     1.0  0.28254  0.50961  0.72785  1.0000
  C   C3796     1.0  0.26783  0.51922  0.72323  1.0000
  C   C3797     1.0  0.26618  0.53632  0.71665  1.0000
  C   C3798     1.0  0.27936  0.54370  0.71514  1.0000
  C   C3799     1.0  0.26816  0.71025  0.53540  1.0000
  H   H3032     1.0  0.44722  0.66701  0.70675  1.0000
  Fe  Fe258     1.0  0.25510  0.53430  0.58934  1.0000
  C   C3800     1.0  0.29077  0.72148  0.76734  1.0000
  S   S516      1.0  0.32168  0.69376  0.58190  1.0000
  H   H3033     1.0  0.32817  0.48815  0.63829  1.0000
  C   C3801     1.0  0.43261  0.66860  0.79557  1.0000
  H   H3034     1.0  0.41204  0.71731  0.67761  1.0000
  C   C3802     1.0  0.27271  0.56713  0.49373  1.0000
  H   H3035     1.0  0.26404  0.69590  0.56945  1.0000
  H   H3036     1.0  0.45235  0.62695  0.78175  1.0000
  C   C3803     1.0  0.30338  0.71426  0.74079  1.0000
  C   C3804     1.0  0.27184  0.54583  0.67754  1.0000
  C   C3805     1.0  0.27880  0.55445  0.50614  1.0000
  H   H3037     1.0  0.40571  0.52246  0.72799  1.0000
  H   H3038     1.0  0.45474  0.70570  0.69851  1.0000
  H   H3039     1.0  0.24725  0.60738  0.66497  1.0000
  C   C3806     1.0  0.42067  0.72131  0.68191  1.0000
  C   C3807     1.0  0.42317  0.67400  0.60589  1.0000
  H   H3040     1.0  0.30445  0.53964  0.71783  1.0000
  H   H3041     1.0  0.30743  0.50942  0.72856  1.0000
  H   H3042     1.0  0.28396  0.49633  0.73244  1.0000
  H   H3043     1.0  0.41024  0.67021  0.73548  1.0000
  H   H3044     1.0  0.27861  0.55679  0.70959  1.0000
  C   C3808     1.0  0.37628  0.69954  0.57413  1.0000
  H   H3045     1.0  0.37164  0.72656  0.61191  1.0000
  C   C3809     1.0  0.37352  0.52585  0.71083  1.0000
  H   H3046     1.0  0.32231  0.68557  0.72367  1.0000
  C   C3810     1.0  0.48388  0.69919  0.72992  1.0000
  H   H3047     1.0  0.45613  0.65331  0.76199  1.0000
  C   C3811     1.0  0.24481  0.67442  0.60679  1.0000
  H   H3048     1.0  0.28961  0.54383  0.65489  1.0000
  H   H3049     1.0  0.28137  0.54434  0.68403  1.0000
  H   H3050     1.0  0.28310  0.71112  0.64966  1.0000
  C   C3812     1.0  0.42742  0.55017  0.58460  1.0000
  Fe  Fe259     1.0  0.32299  0.71312  0.53577  1.0000
  H   H3051     1.0  0.24159  0.59748  0.52536  1.0000
  H   H3052     1.0  0.47525  0.72184  0.59284  1.0000
  C   C3813     1.0  0.30409  0.61067  0.63437  1.0000
  C   C3814     1.0  0.31030  0.61562  0.61744  1.0000
  C   C3815     1.0  0.30963  0.63242  0.61024  1.0000
  C   C3816     1.0  0.30295  0.64424  0.62000  1.0000
  C   C3817     1.0  0.29690  0.63932  0.63712  1.0000
  C   C3818     1.0  0.29715  0.62244  0.64415  1.0000
  P   P126      1.0  0.28787  0.65465  0.64969  1.0000
  C   C3819     1.0  0.26588  0.66101  0.65032  1.0000
  C   C3820     1.0  0.29087  0.64641  0.67058  1.0000
  C   C3821     1.0  0.30493  0.63410  0.67383  1.0000
  C   C3822     1.0  0.30724  0.62785  0.68999  1.0000
  C   C3823     1.0  0.29567  0.63404  0.70302  1.0000
  C   C3824     1.0  0.28175  0.64643  0.69987  1.0000
  C   C3825     1.0  0.27932  0.65259  0.68374  1.0000
  C   C3826     1.0  0.25703  0.64950  0.65044  1.0000
  H   H3053     1.0  0.48539  0.71499  0.62614  1.0000
  C   C3827     1.0  0.29409  0.72308  0.92569  1.0000
  H   H3054     1.0  0.48329  0.62765  0.77482  1.0000
  C   C3828     1.0  0.25743  0.67748  0.65067  1.0000
  C   C3829     1.0  0.29787  0.67202  0.64051  1.0000
  C   C3830     1.0  0.31164  0.67288  0.64570  1.0000
  C   C3831     1.0  0.31975  0.68599  0.63799  1.0000
  C   C3832     1.0  0.31404  0.69839  0.62520  1.0000
  C   C3833     1.0  0.30023  0.69772  0.62016  1.0000
  C   C3834     1.0  0.29237  0.68448  0.62752  1.0000
  H   H3055     1.0  0.30470  0.59763  0.63993  1.0000
  H   H3056     1.0  0.31556  0.60640  0.60994  1.0000
  H   H3057     1.0  0.31412  0.63638  0.59702  1.0000
  H   H3058     1.0  0.30247  0.65715  0.61399  1.0000
  H   H3059     1.0  0.29207  0.61827  0.65720  1.0000
  H   H3060     1.0  0.31403  0.62915  0.66394  1.0000
  H   H3061     1.0  0.31784  0.61796  0.69241  1.0000
  H   H3062     1.0  0.29725  0.62904  0.71561  1.0000
  H   H3063     1.0  0.27267  0.65104  0.71002  1.0000
  H   H3064     1.0  0.26838  0.66208  0.68163  1.0000
  H   H3065     1.0  0.26308  0.63661  0.65078  1.0000
  S   S517      1.0  0.24338  0.63064  0.50708  1.0000
  C   C3835     1.0  0.32128  0.72274  0.47821  1.0000
  C   C3836     1.0  0.27055  0.49013  0.69996  1.0000
  H   H3066     1.0  0.26370  0.68643  0.65146  1.0000
  H   H3067     1.0  0.31641  0.66329  0.65542  1.0000
  H   H3068     1.0  0.33066  0.68637  0.64168  1.0000
  H   H3069     1.0  0.32040  0.70843  0.61894  1.0000
  S   S518      1.0  0.25916  0.54751  0.60632  1.0000
  H   H3070     1.0  0.28218  0.68392  0.62283  1.0000
  Fe  Fe260     1.0  0.33466  0.54332  0.68745  1.0000
  Fe  Fe261     1.0  0.34408  0.69497  0.56131  1.0000
  H   H3071     1.0  0.29334  0.70777  0.52127  1.0000
  C   C3837     1.0  0.38468  0.69563  0.58697  1.0000
  H   H3072     1.0  0.41034  0.57940  0.62621  1.0000
  H   H3073     1.0  0.43403  0.62252  0.67380  1.0000
  C   C3838     1.0  0.41389  0.65706  0.59369  1.0000
  C   C3839     1.0  0.25481  0.60355  0.65380  1.0000
  P   P127      1.0  0.44229  0.68819  0.76412  1.0000
  H   H3074     1.0  0.41333  0.59037  0.65899  1.0000
  C   C3840     1.0  0.41429  0.68057  0.73662  1.0000
  C   C3841     1.0  0.32552  0.69919  0.68222  1.0000
  C   C3842     1.0  0.38978  0.52188  0.71295  1.0000
  C   C3843     1.0  0.29462  0.73081  0.64846  1.0000
  C   C3844     1.0  0.41368  0.54632  0.64614  1.0000
  C   C3845     1.0  0.40899  0.69646  0.72754  1.0000
  H   H3075     1.0  0.27887  0.52944  0.52014  1.0000
  C   C3846     1.0  0.27528  0.73006  0.47423  1.0000
  H   H3076     1.0  0.46758  0.67584  0.68164  1.0000
  P   P128      1.0  0.24889  0.54816  0.70727  1.0000
  C   C3847     1.0  0.47660  0.67887  0.76131  1.0000
  H   H3077     1.0  0.38533  0.68362  0.59526  1.0000
  C   C3848     1.0  0.42462  0.67798  0.74742  1.0000
  H   H3078     1.0  0.27315  0.51015  0.67853  1.0000
  C   C3849     1.0  0.36545  0.72349  0.71008  1.0000
  H   H3079     1.0  0.34484  0.62055  0.65779  1.0000
  Fe  Fe262     1.0  0.31010  0.68779  0.56479  1.0000
  H   H3080     1.0  0.37144  0.71100  0.70849  1.0000
  H   H3081     1.0  0.42377  0.65364  0.81925  1.0000
  H   H3082     1.0  0.26974  0.71835  0.54216  1.0000
  S   S519      1.0  0.44104  0.72177  0.59987  1.0000
  C   C3850     1.0  0.35873  0.67952  0.72790  1.0000
  C   C3851     1.0  0.32526  0.69320  0.71138  1.0000
  C   C3852     1.0  0.35675  0.69350  0.74929  1.0000
  C   C3853     1.0  0.28128  0.72422  0.64903  1.0000
  H   H3083     1.0  0.24280  0.70142  0.92225  1.0000
  C   C3854     1.0  0.35028  0.65236  0.62438  1.0000
  C   C3855     1.0  0.36431  0.65587  0.62664  1.0000
  C   C3856     1.0  0.36494  0.52757  0.79216  1.0000
  C   C3857     1.0  0.36053  0.53305  0.72230  1.0000
  C   C3858     1.0  0.38311  0.66624  0.65471  1.0000
  C   C3859     1.0  0.25503  0.54805  0.68553  1.0000
  C   C3860     1.0  0.40340  0.61653  0.65153  1.0000
  C   C3861     1.0  0.30530  0.61498  0.49565  1.0000
  H   H3084     1.0  0.33268  0.63658  0.63355  1.0000
  C   C3862     1.0  0.29796  0.66535  0.47940  1.0000
  H   H3085     1.0  0.32284  0.69631  0.67194  1.0000
  C   C3863     1.0  0.37906  0.68311  0.64712  1.0000
  C   C3864     1.0  0.37444  0.69520  0.65653  1.0000
  C   C3865     1.0  0.37363  0.69053  0.67352  1.0000
  C   C3866     1.0  0.37712  0.67374  0.68122  1.0000
  C   C3867     1.0  0.38165  0.66162  0.67190  1.0000
  H   H3086     1.0  0.34490  0.65955  0.61388  1.0000
  H   H3087     1.0  0.36944  0.66592  0.61792  1.0000
  H   H3088     1.0  0.39506  0.61455  0.64533  1.0000
  C   C3868     1.0  0.36423  0.58992  0.62348  1.0000
  C   C3869     1.0  0.35151  0.69318  0.73539  1.0000
  C   C3870     1.0  0.35014  0.63053  0.64912  1.0000
  C   C3871     1.0  0.41310  0.54243  0.61323  1.0000
  H   H3089     1.0  0.26303  0.68283  0.50922  1.0000
  H   H3090     1.0  0.37199  0.70823  0.65059  1.0000
  H   H3091     1.0  0.37070  0.69995  0.68062  1.0000
  H   H3092     1.0  0.37707  0.67010  0.69428  1.0000
  H   H3093     1.0  0.38449  0.64870  0.67809  1.0000
  H   H3094     1.0  0.30043  0.71289  0.91958  1.0000
  P   P129      1.0  0.34690  0.54676  0.75010  1.0000
  C   C3872     1.0  0.32885  0.53778  0.75675  1.0000
  C   C3873     1.0  0.31423  0.54574  0.76619  1.0000
  C   C3874     1.0  0.30006  0.53911  0.77132  1.0000
  C   C3875     1.0  0.30048  0.52426  0.76743  1.0000
  C   C3876     1.0  0.34239  0.56817  0.73931  1.0000
  C   C3877     1.0  0.32700  0.57569  0.73507  1.0000
  C   C3878     1.0  0.32392  0.59221  0.72641  1.0000
  C   C3879     1.0  0.33627  0.60128  0.72175  1.0000
  C   C3880     1.0  0.35163  0.59383  0.72584  1.0000
  C   C3881     1.0  0.35477  0.57730  0.73439  1.0000
  H   H3095     1.0  0.31371  0.55724  0.76935  1.0000
  H   H3096     1.0  0.28870  0.54556  0.77824  1.0000
  H   H3097     1.0  0.28947  0.51916  0.77135  1.0000
  H   H3098     1.0  0.31757  0.56871  0.73789  1.0000
  H   H3099     1.0  0.31205  0.59786  0.72306  1.0000
  H   H3100     1.0  0.33402  0.61402  0.71489  1.0000
  H   H3101     1.0  0.36130  0.60073  0.72202  1.0000
  H   H3102     1.0  0.36693  0.57154  0.73700  1.0000
  H   H3103     1.0  0.39665  0.64271  0.60998  1.0000
  H   H3104     1.0  0.36582  0.56382  0.62916  1.0000
  C   C3882     1.0  0.40389  0.65154  0.60900  1.0000
  P   P130      1.0  0.40063  0.54791  0.63237  1.0000
  Fe  Fe263     1.0  0.33781  0.71862  0.83146  1.0000
  H   H3105     1.0  0.37990  0.68697  0.63390  1.0000
  C   C3883     1.0  0.40306  0.65765  0.62275  1.0000
  H   H3106     1.0  0.27444  0.70094  0.59102  1.0000
  H   H3107     1.0  0.24155  0.55526  0.52442  1.0000
  C   C3884     1.0  0.37174  0.64631  0.63985  1.0000
  C   C3885     1.0  0.41392  0.70986  0.72940  1.0000
  H   H3108     1.0  0.35568  0.56822  0.79392  1.0000
  C   C3886     1.0  0.40357  0.63259  0.65224  1.0000
  H   H3109     1.0  0.24774  0.68593  0.87295  1.0000
  H   H3110     1.0  0.41591  0.64694  0.66006  1.0000
  H   H3111     1.0  0.45291  0.52936  0.65242  1.0000
  H   H3112     1.0  0.47599  0.69337  0.61944  1.0000
  H   H3113     1.0  0.27808  0.71382  0.75352  1.0000
  H   H3114     1.0  0.45768  0.70605  0.73145  1.0000
  H   H3115     1.0  0.42764  0.71789  0.74187  1.0000
  C   C3887     1.0  0.39223  0.70722  0.58910  1.0000
  H   H3116     1.0  0.24548  0.62581  0.57374  1.0000
  H   H3117     1.0  0.43538  0.53088  0.63365  1.0000
  C   C3888     1.0  0.26301  0.70876  0.58784  1.0000
  H   H3118     1.0  0.36288  0.64904  0.49916  1.0000
  C   C3889     1.0  0.26394  0.58697  0.83025  1.0000
  H   H3119     1.0  0.35131  0.59291  0.62277  1.0000
  S   S520      1.0  0.24953  0.67215  0.77324  1.0000
  H   H3120     1.0  0.25518  0.72955  0.64931  1.0000
  C   C3890     1.0  0.26485  0.54712  0.65193  1.0000
  C   C3891     1.0  0.46738  0.69856  0.73774  1.0000
  H   H3121     1.0  0.25232  0.72418  0.92677  1.0000
  S   S521      1.0  0.40602  0.71506  0.62537  1.0000
  H   H3122     1.0  0.36932  0.71824  0.55333  1.0000
  C   C3892     1.0  0.31950  0.72247  0.75480  1.0000
  H   H3123     1.0  0.34152  0.72711  0.69049  1.0000
  C   C3893     1.0  0.25377  0.72273  0.91436  1.0000
  H   H3124     1.0  0.28039  0.72226  0.77784  1.0000
  C   C3894     1.0  0.35366  0.64523  0.49555  1.0000
  H   H3125     1.0  0.26866  0.54663  0.63899  1.0000
  C   C3895     1.0  0.34212  0.64262  0.47405  1.0000
  S   S522      1.0  0.32099  0.72566  0.50924  1.0000
  H   H3126     1.0  0.47956  0.66492  0.63662  1.0000
  S   S523      1.0  0.43405  0.72442  0.63889  1.0000
  C   C3896     1.0  0.24810  0.54944  0.65971  1.0000
  C   C3897     1.0  0.26078  0.72622  0.48508  1.0000
  S   S524      1.0  0.24569  0.51850  0.63648  1.0000
  C   C3898     1.0  0.25734  0.57389  0.83018  1.0000
  C   C3899     1.0  0.24800  0.56432  0.55721  1.0000
  H   H3127     1.0  0.25151  0.67427  0.97223  1.0000
  H   H3128     1.0  0.24041  0.51908  0.70334  1.0000
  H   H3129     1.0  0.24060  0.62244  0.63788  1.0000
  S   S525      1.0  0.48204  0.61161  0.72475  1.0000
  C   C3900     1.0  0.48688  0.70255  0.63378  1.0000
  C   C3901     1.0  0.48230  0.62116  0.75274  1.0000
  H   H3130     1.0  0.24534  0.69865  0.89401  1.0000
  H   H3131     1.0  0.48457  0.69469  0.58459  1.0000
  C   C3902     1.0  0.38305  0.72673  0.56554  1.0000
  C   C3903     1.0  0.24736  0.72618  0.47897  1.0000
  P   P131      1.0  0.31286  0.63176  0.47991  1.0000
  H   H3132     1.0  0.40966  0.72222  0.72247  1.0000
  C   C3904     1.0  0.43731  0.72606  0.78652  1.0000
  C   C3905     1.0  0.40970  0.72317  0.78804  1.0000
  C   C3906     1.0  0.24511  0.57250  0.72435  1.0000
  H   H3133     1.0  0.48678  0.70704  0.71779  1.0000
  H   H3134     1.0  0.23976  0.59428  0.78866  1.0000
  H   H3135     1.0  0.30764  0.66572  0.48490  1.0000
  H   H3136     1.0  0.39635  0.72688  0.79205  1.0000
  H   H3137     1.0  0.24584  0.57940  0.76643  1.0000
  S   S526      1.0  0.32402  0.73014  0.81113  1.0000
  C   C3907     1.0  0.29696  0.65050  0.47631  1.0000
  C   C3908     1.0  0.28670  0.68014  0.47488  1.0000
  Fe  Fe264     1.0  0.24270  0.50708  0.61733  1.0000
  C   C3909     1.0  0.48370  0.67429  0.63963  1.0000
  H   H3138     1.0  0.48291  0.65797  0.73621  1.0000
  C   C3910     1.0  0.48727  0.67174  0.69455  1.0000
  H   H3139     1.0  0.23905  0.55072  0.65271  1.0000
  C   C3911     1.0  0.23921  0.61510  0.59999  1.0000
  C   C3912     1.0  0.23934  0.69497  0.86588  1.0000
  C   C3913     1.0  0.42009  0.73112  0.79143  1.0000
  H   H3140     1.0  0.33831  0.83342  0.03888  1.0000
  H   H3141     1.0  0.28651  0.75251  0.29621  1.0000
  C   C3914     1.0  0.34695  0.80916  0.00613  1.0000
  C   C3915     1.0  0.25087  0.87710  0.15602  1.0000
  H   H3142     1.0  0.28744  0.73746  0.44879  1.0000
  H   H3143     1.0  0.24168  0.97458  0.25873  1.0000
  C   C3916     1.0  0.23904  0.87170  0.28883  1.0000
  H   H3144     1.0  0.26159  0.78019  0.35757  1.0000
  C   C3917     1.0  0.29236  0.75235  0.30587  1.0000
  C   C3918     1.0  0.26545  0.97590  0.16632  1.0000
  C   C3919     1.0  0.26262  0.79747  0.16450  1.0000
  H   H3145     1.0  0.26310  0.78548  0.29483  1.0000
  H   H3146     1.0  0.24364  0.86617  0.25552  1.0000
  S   S527      1.0  0.32124  0.74351  0.12674  1.0000
  H   H3147     1.0  0.33521  0.85725  0.99717  1.0000
  C   C3920     1.0  0.33399  0.75868  0.25791  1.0000
  Fe  Fe265     1.0  0.34329  0.80300  0.19810  1.0000
  S   S528      1.0  0.32958  0.78364  0.20016  1.0000
  S   S529      1.0  0.37055  0.79364  0.19772  1.0000
  Fe  Fe266     1.0  0.31252  0.83091  0.19656  1.0000
  S   S530      1.0  0.29617  0.81380  0.19892  1.0000
  S   S531      1.0  0.30164  0.85839  0.19305  1.0000
  Fe  Fe267     1.0  0.30990  0.79706  0.21789  1.0000
  S   S532      1.0  0.29712  0.78171  0.24052  1.0000
  Fe  Fe268     1.0  0.31725  0.80215  0.18090  1.0000
  S   S533      1.0  0.31209  0.79667  0.15917  1.0000
  S   S534      1.0  0.32444  0.81509  0.21753  1.0000
  S   S535      1.0  0.33282  0.82048  0.17697  1.0000
  C   C3921     1.0  0.25023  0.76525  0.37994  1.0000
  S   S536      1.0  0.25370  0.92570  0.12307  1.0000
  S   S537      1.0  0.29273  0.77405  0.09741  1.0000
  S   S538      1.0  0.25771  0.81892  0.29787  1.0000
  H   H3148     1.0  0.24343  0.92971  0.16019  1.0000
  H   H3149     1.0  0.25560  0.88563  0.27033  1.0000
  C   C3922     1.0  0.26885  0.75605  0.99299  1.0000
  C   C3923     1.0  0.39962  0.75304  0.18759  1.0000
  S   S539      1.0  0.26281  0.77501  0.03822  1.0000
  H   H3150     1.0  0.25698  0.81043  0.23206  1.0000
  P   P132      1.0  0.24087  0.79835  0.21295  1.0000
  C   C3924     1.0  0.28244  0.75255  0.38566  1.0000
  Fe  Fe269     1.0  0.26918  0.90405  0.11198  1.0000
  S   S540      1.0  0.27602  0.91924  0.08634  1.0000
  S   S541      1.0  0.28843  0.88219  0.12093  1.0000
  H   H3151     1.0  0.47807  0.76097  0.30961  1.0000
  Fe  Fe270     1.0  0.25340  0.91390  0.08238  1.0000
  H   H3152     1.0  0.39977  0.97751  0.25070  1.0000
  C   C3925     1.0  0.28202  0.96269  0.11357  1.0000
  C   C3926     1.0  0.29052  0.96851  0.12183  1.0000
  H   H3153     1.0  0.28267  0.94954  0.11571  1.0000
  H   H3154     1.0  0.29778  0.95977  0.13022  1.0000
  C   C3927     1.0  0.25094  0.77843  0.24155  1.0000
  S   S542      1.0  0.24832  0.74347  0.31052  1.0000
  S   S543      1.0  0.30265  0.74524  0.38903  1.0000
  C   C3928     1.0  0.24153  0.89406  0.21180  1.0000
  C   C3929     1.0  0.34640  0.73177  0.27281  1.0000
  C   C3930     1.0  0.45513  0.76409  0.33934  1.0000
  C   C3931     1.0  0.27106  0.77482  0.05467  1.0000
  C   C3932     1.0  0.26667  0.78871  0.06164  1.0000
  C   C3933     1.0  0.27316  0.78830  0.07496  1.0000
  C   C3934     1.0  0.28438  0.77421  0.08104  1.0000
  C   C3935     1.0  0.46151  0.73491  0.33838  1.0000
  C   C3936     1.0  0.28200  0.76060  0.06100  1.0000
  H   H3155     1.0  0.25832  0.79982  0.05677  1.0000
  H   H3156     1.0  0.26943  0.79892  0.08056  1.0000
  H   H3157     1.0  0.34846  0.74099  0.32837  1.0000
  H   H3158     1.0  0.26503  0.94565  0.14542  1.0000
  C   C3937     1.0  0.29630  0.86554  0.17366  1.0000
  C   C3938     1.0  0.29597  0.85412  0.16508  1.0000
  C   C3939     1.0  0.29274  0.85956  0.14923  1.0000
  C   C3940     1.0  0.29002  0.87643  0.14169  1.0000
  C   C3941     1.0  0.28977  0.88802  0.15042  1.0000
  C   C3942     1.0  0.29296  0.88252  0.16642  1.0000
  H   H3159     1.0  0.29859  0.84102  0.17048  1.0000
  H   H3160     1.0  0.29272  0.85058  0.14266  1.0000
  H   H3161     1.0  0.28777  0.90108  0.14462  1.0000
  H   H3162     1.0  0.29355  0.89132  0.17290  1.0000
  C   C3943     1.0  0.30505  0.77831  0.16353  1.0000
  C   C3944     1.0  0.30560  0.76672  0.17853  1.0000
  H   H3163     1.0  0.31367  0.84130  0.01166  1.0000
  C   C3945     1.0  0.29232  0.73920  0.31963  1.0000
  C   C3946     1.0  0.25536  0.88106  0.21419  1.0000
  C   C3947     1.0  0.29917  0.77508  0.15147  1.0000
  H   H3164     1.0  0.30984  0.76926  0.18802  1.0000
  C   C3948     1.0  0.36164  0.73282  0.26178  1.0000
  H   H3165     1.0  0.24830  0.83480  0.24457  1.0000
  H   H3166     1.0  0.29859  0.78403  0.13991  1.0000
  C   C3949     1.0  0.28622  0.79269  0.25591  1.0000
  C   C3950     1.0  0.28577  0.80955  0.25379  1.0000
  C   C3951     1.0  0.27714  0.81776  0.26671  1.0000
  C   C3952     1.0  0.27795  0.78418  0.27071  1.0000
  H   H3167     1.0  0.29208  0.81622  0.24228  1.0000
  H   H3168     1.0  0.27680  0.83075  0.26516  1.0000
  H   H3169     1.0  0.27834  0.77117  0.27236  1.0000
  H   H3170     1.0  0.31603  0.85794  0.03174  1.0000
  C   C3953     1.0  0.25165  0.80377  0.19172  1.0000
  H   H3171     1.0  0.43517  0.73794  0.15849  1.0000
  C   C3954     1.0  0.28865  0.76029  0.07417  1.0000
  H   H3172     1.0  0.36436  0.84273  0.98832  1.0000
  H   H3173     1.0  0.28063  0.73671  0.03055  1.0000
  C   C3955     1.0  0.47468  0.77724  0.20678  1.0000
  H   H3174     1.0  0.24621  0.75039  0.21232  1.0000
  H   H3175     1.0  0.26449  0.74503  0.18572  1.0000
  H   H3176     1.0  0.37460  0.74699  0.23980  1.0000
  C   C3956     1.0  0.38132  0.78244  0.24901  1.0000
  C   C3957     1.0  0.36957  0.79661  0.24398  1.0000
  C   C3958     1.0  0.36613  0.80009  0.22825  1.0000
  C   C3959     1.0  0.37462  0.78950  0.21746  1.0000
  C   C3960     1.0  0.38648  0.77544  0.22248  1.0000
  C   C3961     1.0  0.38979  0.77188  0.23823  1.0000
  H   H3177     1.0  0.36311  0.80489  0.25226  1.0000
  H   H3178     1.0  0.35716  0.81112  0.22438  1.0000
  H   H3179     1.0  0.39292  0.76709  0.21436  1.0000
  H   H3180     1.0  0.24260  0.96032  0.20360  1.0000
  C   C3962     1.0  0.36437  0.76950  0.31816  1.0000
  Fe  Fe271     1.0  0.25899  0.94066  0.09705  1.0000
  C   C3963     1.0  0.26927  0.79234  0.28345  1.0000
  C   C3964     1.0  0.26887  0.80910  0.28158  1.0000
  S   S544      1.0  0.25216  0.77625  0.32906  1.0000
  H   H3181     1.0  0.26688  0.86111  0.23156  1.0000
  C   C3965     1.0  0.24626  0.86235  0.16523  1.0000
  S   S545      1.0  0.24654  0.82379  0.02323  1.0000
  S   S546      1.0  0.39818  0.73192  0.29026  1.0000
  H   H3182     1.0  0.24836  0.85218  0.15933  1.0000
  C   C3966     1.0  0.24320  0.88612  0.27800  1.0000
  C   C3967     1.0  0.27421  0.83844  0.04109  1.0000
  P   P133      1.0  0.31472  0.80550  0.02216  1.0000
  C   C3968     1.0  0.27751  0.75773  0.22485  1.0000
  C   C3969     1.0  0.48059  0.74630  0.27614  1.0000
  H   H3183     1.0  0.30313  0.74198  0.19191  1.0000
  C   C3970     1.0  0.42658  0.76960  0.19545  1.0000
  C   C3971     1.0  0.42968  0.76954  0.21062  1.0000
  C   C3972     1.0  0.42445  0.78399  0.21680  1.0000
  C   C3973     1.0  0.41603  0.79857  0.20795  1.0000
  C   C3974     1.0  0.41315  0.79882  0.19274  1.0000
  C   C3975     1.0  0.41854  0.78446  0.18642  1.0000
  C   C3976     1.0  0.31594  0.85173  0.04451  1.0000
  C   C3977     1.0  0.26077  0.76510  0.25038  1.0000
  C   C3978     1.0  0.26765  0.77104  0.21593  1.0000
  C   C3979     1.0  0.26918  0.82044  0.17048  1.0000
  C   C3980     1.0  0.33603  0.78441  0.04211  1.0000
  H   H3184     1.0  0.32067  0.74431  0.27930  1.0000
  H   H3185     1.0  0.42625  0.78369  0.22882  1.0000
  H   H3186     1.0  0.41126  0.80953  0.21313  1.0000
  H   H3187     1.0  0.40610  0.80997  0.18616  1.0000
  C   C3981     1.0  0.30156  0.75135  0.18086  1.0000
  H   H3188     1.0  0.28185  0.74466  0.24898  1.0000
  C   C3982     1.0  0.29915  0.73930  0.33248  1.0000
  H   H3189     1.0  0.25627  0.77274  0.11839  1.0000
  H   H3190     1.0  0.35198  0.76835  0.05818  1.0000
  H   H3191     1.0  0.33331  0.74013  0.20416  1.0000
  C   C3983     1.0  0.26908  0.74671  0.39702  1.0000
  H   H3192     1.0  0.37496  0.97760  0.24139  1.0000
  C   C3984     1.0  0.26898  0.91498  0.18736  1.0000
  C   C3985     1.0  0.28119  0.92405  0.17890  1.0000
  C   C3986     1.0  0.27985  0.93496  0.16372  1.0000
  C   C3987     1.0  0.26613  0.93709  0.15713  1.0000
  C   C3988     1.0  0.29951  0.81354  0.05291  1.0000
  H   H3193     1.0  0.26527  0.87815  0.20376  1.0000
  H   H3194     1.0  0.31944  0.74548  0.04667  1.0000
  H   H3195     1.0  0.26166  0.74049  0.34269  1.0000
  H   H3196     1.0  0.27044  0.90651  0.19898  1.0000
  H   H3197     1.0  0.29188  0.92235  0.18396  1.0000
  H   H3198     1.0  0.28944  0.94180  0.15707  1.0000
  H   H3199     1.0  0.30778  0.77216  0.02983  1.0000
  C   C3989     1.0  0.33417  0.77588  0.32383  1.0000
  C   C3990     1.0  0.33821  0.86026  0.10371  1.0000
  C   C3991     1.0  0.33698  0.85695  0.12073  1.0000
  C   C3992     1.0  0.32960  0.84412  0.13111  1.0000
  C   C3993     1.0  0.32306  0.83485  0.12457  1.0000
  C   C3994     1.0  0.32429  0.83801  0.10748  1.0000
  C   C3995     1.0  0.33202  0.85076  0.09706  1.0000
  P   P134      1.0  0.31550  0.82609  0.09923  1.0000
  C   C3996     1.0  0.31553  0.83585  0.07775  1.0000
  C   C3997     1.0  0.32697  0.80472  0.10130  1.0000
  H   H3200     1.0  0.43409  0.77947  0.32950  1.0000
  C   C3998     1.0  0.29944  0.76552  0.30479  1.0000
  C   C3999     1.0  0.33261  0.74490  0.27097  1.0000
  C   C4000     1.0  0.33797  0.79797  0.11204  1.0000
  C   C4001     1.0  0.30319  0.84992  0.07352  1.0000
  C   C4002     1.0  0.30337  0.85774  0.05699  1.0000
  C   C4003     1.0  0.32844  0.83793  0.04856  1.0000
  C   C4004     1.0  0.32832  0.83008  0.06512  1.0000
  C   C4005     1.0  0.29402  0.82727  0.10983  1.0000
  C   C4006     1.0  0.28470  0.84174  0.11523  1.0000
  C   C4007     1.0  0.26765  0.84369  0.12169  1.0000
  C   C4008     1.0  0.25974  0.83115  0.12284  1.0000
  C   C4009     1.0  0.26894  0.81655  0.11777  1.0000
  C   C4010     1.0  0.28603  0.81455  0.11142  1.0000
  H   H3201     1.0  0.34367  0.87041  0.09572  1.0000
  H   H3202     1.0  0.34143  0.86451  0.12596  1.0000
  H   H3203     1.0  0.32840  0.84174  0.14432  1.0000
  H   H3204     1.0  0.31685  0.82533  0.13288  1.0000
  H   H3205     1.0  0.33299  0.85370  0.08387  1.0000
  H   H3206     1.0  0.37183  0.81198  0.99382  1.0000
  C   C4011     1.0  0.46187  0.77107  0.14435  1.0000
  H   H3207     1.0  0.33974  0.80521  0.11956  1.0000
  H   H3208     1.0  0.29347  0.85507  0.08291  1.0000
  H   H3209     1.0  0.29372  0.86856  0.05390  1.0000
  H   H3210     1.0  0.33831  0.81967  0.06806  1.0000
  H   H3211     1.0  0.29053  0.85180  0.11392  1.0000
  H   H3212     1.0  0.26064  0.85512  0.12548  1.0000
  H   H3213     1.0  0.24654  0.83276  0.12766  1.0000
  H   H3214     1.0  0.26292  0.80675  0.11861  1.0000
  H   H3215     1.0  0.29285  0.80318  0.10758  1.0000
  H   H3216     1.0  0.30894  0.80377  0.05790  1.0000
  H   H3217     1.0  0.26427  0.84791  0.03655  1.0000
  H   H3218     1.0  0.27601  0.83021  0.16676  1.0000
  P   P135      1.0  0.43282  0.75090  0.18749  1.0000
  H   H3219     1.0  0.34038  0.79528  0.04148  1.0000
  C   C4012     1.0  0.25625  0.87126  0.22995  1.0000
  C   C4013     1.0  0.43815  0.75410  0.32788  1.0000
  H   H3220     1.0  0.34157  0.74344  0.06083  1.0000
  H   H3221     1.0  0.28250  0.79923  0.02418  1.0000
  C   C4014     1.0  0.28940  0.79995  0.01152  1.0000
  C   C4015     1.0  0.30664  0.80203  0.97867  1.0000
  H   H3222     1.0  0.35491  0.77628  0.12205  1.0000
  H   H3223     1.0  0.28808  0.74998  0.21840  1.0000
  H   H3224     1.0  0.28993  0.76949  0.36281  1.0000
  C   C4016     1.0  0.25393  0.92802  0.16553  1.0000
  C   C4017     1.0  0.33852  0.84381  0.99978  1.0000
  C   C4018     1.0  0.29666  0.74780  0.16830  1.0000
  C   C4019     1.0  0.34674  0.78147  0.11347  1.0000
  H   H3225     1.0  0.33132  0.77013  0.08713  1.0000
  C   C4020     1.0  0.44360  0.75558  0.16614  1.0000
  H   H3226     1.0  0.27082  0.77319  0.20262  1.0000
  H   H3227     1.0  0.28789  0.81995  0.07649  1.0000
  H   H3228     1.0  0.37617  0.76940  0.30934  1.0000
  S   S547      1.0  0.25301  0.90657  0.05907  1.0000
  H   H3229     1.0  0.33285  0.77508  0.28451  1.0000
  S   S548      1.0  0.42097  0.75760  0.29016  1.0000
  H   H3230     1.0  0.25656  0.87834  0.14300  1.0000
  C   C4021     1.0  0.29444  0.76010  0.15413  1.0000
  H   H3231     1.0  0.27823  0.97573  0.15976  1.0000
  Fe  Fe272     1.0  0.41525  0.73314  0.30505  1.0000
  C   C4022     1.0  0.32430  0.75629  0.04512  1.0000
  H   H3232     1.0  0.32665  0.80569  0.98648  1.0000
  C   C4023     1.0  0.32373  0.78562  0.03375  1.0000
  H   H3233     1.0  0.27908  0.81259  0.14754  1.0000
  Fe  Fe273     1.0  0.40522  0.75553  0.27437  1.0000
  H   H3234     1.0  0.24826  0.80483  0.98556  1.0000
  H   H3235     1.0  0.34843  0.75799  0.35932  1.0000
  H   H3236     1.0  0.29706  0.74927  0.07896  1.0000
  C   C4024     1.0  0.33393  0.76952  0.34077  1.0000
  H   H3237     1.0  0.46024  0.75856  0.29264  1.0000
  H   H3238     1.0  0.25315  0.76872  0.01196  1.0000
  C   C4025     1.0  0.32484  0.79456  0.09218  1.0000
  H   H3239     1.0  0.26440  0.78948  0.15615  1.0000
  H   H3240     1.0  0.25028  0.74458  0.03944  1.0000
  H   H3241     1.0  0.24762  0.78328  0.18451  1.0000
  H   H3242     1.0  0.42756  0.75633  0.32250  1.0000
  C   C4026     1.0  0.44174  0.76710  0.33198  1.0000
  H   H3243     1.0  0.28541  0.74984  0.05570  1.0000
  C   C4027     1.0  0.24323  0.87419  0.24343  1.0000
  S   S549      1.0  0.28829  0.73193  0.12545  1.0000
  C   C4028     1.0  0.24626  0.73798  0.11635  1.0000
  H   H3244     1.0  0.46927  0.78039  0.14030  1.0000
  C   C4029     1.0  0.34910  0.75944  0.24662  1.0000
  C   C4030     1.0  0.36292  0.74651  0.24861  1.0000
  H   H3245     1.0  0.25919  0.82453  0.19495  1.0000
  H   H3246     1.0  0.26188  0.75388  0.09957  1.0000
  H   H3247     1.0  0.29892  0.77575  0.29416  1.0000
  C   C4031     1.0  0.25317  0.79398  0.18057  1.0000
  H   H3248     1.0  0.28996  0.75772  0.14468  1.0000
  H   H3249     1.0  0.25278  0.90120  0.15627  1.0000
  C   C4032     1.0  0.35493  0.83563  0.99476  1.0000
  C   C4033     1.0  0.24103  0.74901  0.20280  1.0000
  C   C4034     1.0  0.27967  0.76478  0.37153  1.0000
  P   P136      1.0  0.23957  0.90483  0.19100  1.0000
  H   H3250     1.0  0.31608  0.79924  0.08422  1.0000
  P   P137      1.0  0.31493  0.78314  0.31661  1.0000
  H   H3251     1.0  0.33621  0.79200  0.25599  1.0000
  H   H3252     1.0  0.27119  0.73726  0.40793  1.0000
  C   C4035     1.0  0.30553  0.80272  0.00693  1.0000
  H   H3253     1.0  0.31601  0.80084  0.34118  1.0000
  C   C4036     1.0  0.28754  0.82270  0.06357  1.0000
  C   C4037     1.0  0.46497  0.74809  0.34256  1.0000
  C   C4038     1.0  0.36398  0.76299  0.33497  1.0000
  C   C4039     1.0  0.25490  0.74424  0.97961  1.0000
  H   H3254     1.0  0.34826  0.73957  0.30051  1.0000
  Fe  Fe274     1.0  0.30507  0.74836  0.10890  1.0000
  C   C4040     1.0  0.25416  0.78146  0.22424  1.0000
  C   C4041     1.0  0.34465  0.77155  0.10421  1.0000
  C   C4042     1.0  0.29899  0.81688  0.03618  1.0000
  H   H3255     1.0  0.35007  0.77002  0.23632  1.0000
  C   C4043     1.0  0.25027  0.76232  0.12217  1.0000
  H   H3256     1.0  0.46910  0.73763  0.18095  1.0000
  C   C4044     1.0  0.25352  0.75167  0.11151  1.0000
  S   S550      1.0  0.42672  0.74293  0.25709  1.0000
  H   H3257     1.0  0.47525  0.74619  0.34823  1.0000
  H   H3258     1.0  0.35043  0.78093  0.29952  1.0000
  H   H3259     1.0  0.43577  0.75837  0.21797  1.0000
  C   C4045     1.0  0.27403  0.75473  0.24207  1.0000
  C   C4046     1.0  0.28623  0.82945  0.03034  1.0000
  H   H3260     1.0  0.37549  0.75768  0.33917  1.0000
  H   H3261     1.0  0.28546  0.83229  0.01751  1.0000
  C   C4047     1.0  0.47849  0.76383  0.21964  1.0000
  H   H3262     1.0  0.32328  0.76869  0.25642  1.0000
  C   C4048     1.0  0.44257  0.74720  0.15475  1.0000
  C   C4049     1.0  0.27076  0.81058  0.15954  1.0000
  C   C4050     1.0  0.34958  0.77599  0.31261  1.0000
  C   C4051     1.0  0.25294  0.75331  0.39431  1.0000
  S   S551      1.0  0.24770  0.89740  0.10737  1.0000
  H   H3263     1.0  0.31081  0.75247  0.34187  1.0000
  C   C4052     1.0  0.33358  0.77805  0.09369  1.0000
  C   C4053     1.0  0.25965  0.81710  0.18651  1.0000
  H   H3264     1.0  0.46977  0.75589  0.22603  1.0000
  C   C4054     1.0  0.47345  0.75349  0.28982  1.0000
  C   C4055     1.0  0.27317  0.97385  0.10216  1.0000
  H   H3265     1.0  0.24227  0.88059  0.08670  1.0000
  C   C4056     1.0  0.33049  0.81729  0.01152  1.0000
  S   S552      1.0  0.38516  0.77805  0.26882  1.0000
  H   H3266     1.0  0.27184  0.95972  0.18866  1.0000
  H   H3267     1.0  0.26550  0.84205  0.06602  1.0000
  C   C4057     1.0  0.26364  0.77088  0.36854  1.0000
  C   C4058     1.0  0.26185  0.96685  0.18255  1.0000
  C   C4059     1.0  0.24058  0.83304  0.23747  1.0000
  C   C4060     1.0  0.24849  0.89022  0.16361  1.0000
  C   C4061     1.0  0.27487  0.83511  0.05768  1.0000
  C   C4062     1.0  0.38618  0.74640  0.18865  1.0000
  H   H3268     1.0  0.32231  0.76933  0.34979  1.0000
  H   H3269     1.0  0.35124  0.75866  0.10558  1.0000
  H   H3270     1.0  0.39874  0.76086  0.24208  1.0000
  H   H3271     1.0  0.45449  0.77396  0.16945  1.0000
  C   C4063     1.0  0.25540  0.91664  0.18057  1.0000
  C   C4064     1.0  0.32905  0.79769  0.26623  1.0000
  C   C4065     1.0  0.32173  0.81458  0.26318  1.0000
  C   C4066     1.0  0.31250  0.82204  0.27630  1.0000
  C   C4067     1.0  0.31060  0.81263  0.29250  1.0000
  C   C4068     1.0  0.31786  0.79557  0.29570  1.0000
  C   C4069     1.0  0.32713  0.78819  0.28240  1.0000
  C   C4070     1.0  0.29920  0.79553  0.32971  1.0000
  C   C4071     1.0  0.30655  0.76567  0.31754  1.0000
  C   C4072     1.0  0.30605  0.75255  0.33154  1.0000
  C   C4073     1.0  0.32632  0.83469  0.00806  1.0000
  C   C4074     1.0  0.24107  0.87825  0.07552  1.0000
  C   C4075     1.0  0.30328  0.80266  0.34041  1.0000
  C   C4076     1.0  0.29083  0.81248  0.35016  1.0000
  C   C4077     1.0  0.27434  0.81567  0.34890  1.0000
  C   C4078     1.0  0.27031  0.80918  0.33778  1.0000
  C   C4079     1.0  0.28266  0.79907  0.32830  1.0000
  C   C4080     1.0  0.35913  0.81831  0.99788  1.0000
  H   H3272     1.0  0.32313  0.82186  0.25062  1.0000
  H   H3273     1.0  0.30662  0.83509  0.27389  1.0000
  H   H3274     1.0  0.30326  0.81876  0.30237  1.0000
  C   C4081     1.0  0.24403  0.88547  0.04592  1.0000
  H   H3275     1.0  0.46303  0.77966  0.20309  1.0000
  H   H3276     1.0  0.41592  0.78486  0.17474  1.0000
  C   C4082     1.0  0.25524  0.73390  0.35419  1.0000
  H   H3277     1.0  0.29399  0.81768  0.35864  1.0000
  H   H3278     1.0  0.26469  0.82328  0.35641  1.0000
  H   H3279     1.0  0.25760  0.81190  0.33647  1.0000
  H   H3280     1.0  0.27935  0.79433  0.31957  1.0000
  S   S553      1.0  0.26253  0.96721  0.09117  1.0000
  C   C4083     1.0  0.24109  0.88880  0.18047  1.0000
  Fe  Fe275     1.0  0.24197  0.80141  0.31481  1.0000
  C   C4084     1.0  0.31773  0.77148  0.03553  1.0000
  C   C4085     1.0  0.24389  0.74057  0.29304  1.0000
  C   C4086     1.0  0.31418  0.80361  0.99041  1.0000
  H   H3281     1.0  0.28006  0.75857  0.99419  1.0000
  C   C4087     1.0  0.46066  0.76281  0.13305  1.0000
  C   C4088     1.0  0.48578  0.78767  0.19890  1.0000
  H   H3282     1.0  0.25307  0.74060  0.16460  1.0000
  H   H3283     1.0  0.24630  0.75399  0.07290  1.0000
  H   H3284     1.0  0.25823  0.76296  0.26371  1.0000
  H   H3285     1.0  0.35038  0.79576  0.00820  1.0000
  C   C4089     1.0  0.23975  0.74979  0.98999  1.0000
  H   H3286     1.0  0.45797  0.77418  0.34247  1.0000
  C   C4090     1.0  0.34256  0.76921  0.05168  1.0000
  H   H3287     1.0  0.26939  0.79631  0.00348  1.0000
  H   H3288     1.0  0.24266  0.74872  0.40304  1.0000
  C   C4091     1.0  0.24550  0.88894  0.06037  1.0000
  H   H3289     1.0  0.24091  0.78642  0.24829  1.0000
  C   C4092     1.0  0.24534  0.81908  0.23054  1.0000
  C   C4093     1.0  0.25129  0.74597  0.18782  1.0000
  C   C4094     1.0  0.23919  0.75845  0.00172  1.0000
  H   H3290     1.0  0.44997  0.74453  0.12950  1.0000
  Fe  Fe276     1.0  0.24275  0.79788  0.03417  1.0000
  C   C4095     1.0  0.34876  0.76313  0.34628  1.0000
  C   C4096     1.0  0.28192  0.79831  0.99979  1.0000
  H   H3291     1.0  0.35025  0.74183  0.17563  1.0000
  C   C4097     1.0  0.29048  0.79946  0.98335  1.0000
  H   H3292     1.0  0.39755  0.76627  0.18624  1.0000
  H   H3293     1.0  0.24813  0.86001  0.28956  1.0000
  C   C4098     1.0  0.45104  0.75086  0.13827  1.0000
  C   C4099     1.0  0.24537  0.96715  0.19093  1.0000
  C   C4100     1.0  0.33670  0.75516  0.05319  1.0000
  C   C4101     1.0  0.25368  0.76175  0.00307  1.0000
  C   C4102     1.0  0.27619  0.73443  0.45722  1.0000
  H   H3294     1.0  0.46706  0.76575  0.12024  1.0000
  C   C4103     1.0  0.48352  0.75473  0.29952  1.0000
  C   C4104     1.0  0.44801  0.73812  0.33097  1.0000
  C   C4105     1.0  0.24465  0.74370  0.17577  1.0000
  H   H3295     1.0  0.37403  0.75450  0.18842  1.0000
  C   C4106     1.0  0.25721  0.73453  0.04730  1.0000
  H   H3296     1.0  0.26337  0.73893  0.43787  1.0000
  H   H3297     1.0  0.48274  0.79816  0.18903  1.0000
  C   C4107     1.0  0.26258  0.73500  0.45107  1.0000
  Fe  Fe277     1.0  0.44196  0.74292  0.27440  1.0000
  C   C4108     1.0  0.44636  0.73517  0.19936  1.0000
  S   S554      1.0  0.46841  0.74569  0.26311  1.0000
  C   C4109     1.0  0.45340  0.76746  0.16084  1.0000
  C   C4110     1.0  0.26951  0.74716  0.98142  1.0000
  C   C4111     1.0  0.41529  0.74264  0.18852  1.0000
  H   H3298     1.0  0.24743  0.89367  0.03412  1.0000
  H   H3299     1.0  0.28450  0.79850  0.97423  1.0000
  C   C4112     1.0  0.23977  0.75921  0.13777  1.0000
  C   C4113     1.0  0.24520  0.80899  0.97356  1.0000
  H   H3300     1.0  0.28143  0.74255  0.97396  1.0000
  C   C4114     1.0  0.46357  0.73142  0.19313  1.0000
  H   H3301     1.0  0.31323  0.80299  0.96589  1.0000
  H   H3302     1.0  0.33053  0.82668  0.49996  1.0000
  H   H3303     1.0  0.28433  0.87729  0.66164  1.0000
  C   C4115     1.0  0.23965  0.73185  0.59145  1.0000
  H   H3304     1.0  0.44535  0.73207  0.78938  1.0000
  C   C4116     1.0  0.27774  0.74946  0.94120  1.0000
  H   H3305     1.0  0.25618  0.77031  0.61794  1.0000
  C   C4117     1.0  0.24265  0.92983  0.70899  1.0000
  C   C4118     1.0  0.25066  0.82354  0.66437  1.0000
  C   C4119     1.0  0.30570  0.75331  0.70318  1.0000
  H   H3306     1.0  0.32853  0.74687  0.72641  1.0000
  S   S555      1.0  0.41328  0.75277  0.61316  1.0000
  Fe  Fe278     1.0  0.25001  0.89758  0.77446  1.0000
  S   S556      1.0  0.27726  0.88783  0.77300  1.0000
  H   H3307     1.0  0.29301  0.76384  0.92158  1.0000
  H   H3308     1.0  0.44150  0.81260  0.72138  1.0000
  H   H3309     1.0  0.34379  0.75255  0.65003  1.0000
  C   C4120     1.0  0.24234  0.88603  0.67593  1.0000
  H   H3310     1.0  0.29472  0.75332  0.52175  1.0000
  C   C4121     1.0  0.43209  0.77668  0.66314  1.0000
  Fe  Fe279     1.0  0.25394  0.79763  0.87296  1.0000
  S   S557      1.0  0.25484  0.79051  0.93267  1.0000
  C   C4122     1.0  0.25531  0.76610  0.83862  1.0000
  S   S558      1.0  0.27278  0.79160  0.85027  1.0000
  H   H3311     1.0  0.40874  0.74706  0.67619  1.0000
  Fe  Fe280     1.0  0.24498  0.79850  0.90940  1.0000
  H   H3312     1.0  0.42549  0.77576  0.71550  1.0000
  H   H3313     1.0  0.41475  0.74104  0.79804  1.0000
  H   H3314     1.0  0.38249  0.73872  0.55710  1.0000
  C   C4123     1.0  0.25702  0.78397  0.78458  1.0000
  Fe  Fe281     1.0  0.31245  0.84299  0.70007  1.0000
  S   S559      1.0  0.29047  0.83113  0.70911  1.0000
  S   S560      1.0  0.31718  0.86409  0.70732  1.0000
  Fe  Fe282     1.0  0.33138  0.82006  0.67665  1.0000
  S   S561      1.0  0.31110  0.80623  0.68321  1.0000
  S   S562      1.0  0.35612  0.81467  0.65914  1.0000
  Fe  Fe283     1.0  0.29378  0.83106  0.68245  1.0000
  S   S563      1.0  0.27197  0.83786  0.67069  1.0000
  Fe  Fe284     1.0  0.30943  0.80715  0.70931  1.0000
  S   S564      1.0  0.30475  0.78447  0.72893  1.0000
  S   S565      1.0  0.31416  0.84508  0.67324  1.0000
  S   S566      1.0  0.33124  0.81894  0.70284  1.0000
  H   H3315     1.0  0.47808  0.88054  0.67056  1.0000
  H   H3316     1.0  0.33034  0.97121  0.71395  1.0000
  H   H3317     1.0  0.28350  0.88009  0.68966  1.0000
  C   C4124     1.0  0.28836  0.77349  0.85283  1.0000
  C   C4125     1.0  0.31819  0.77698  0.74260  1.0000
  C   C4126     1.0  0.31579  0.76324  0.75548  1.0000
  C   C4127     1.0  0.44480  0.81724  0.70815  1.0000
  C   C4128     1.0  0.33160  0.78409  0.74043  1.0000
  H   H3318     1.0  0.28116  0.81940  0.55449  1.0000
  C   C4129     1.0  0.29770  0.76105  0.52802  1.0000
  H   H3319     1.0  0.33335  0.79481  0.73075  1.0000
  C   C4130     1.0  0.24838  0.84635  0.74731  1.0000
  C   C4131     1.0  0.41890  0.73818  0.68104  1.0000
  C   C4132     1.0  0.24715  0.80384  0.94663  1.0000
  C   C4133     1.0  0.26284  0.82122  0.67309  1.0000
  C   C4134     1.0  0.26789  0.80563  0.68302  1.0000
  C   C4135     1.0  0.26114  0.79227  0.68368  1.0000
  C   C4136     1.0  0.43654  0.83049  0.68216  1.0000
  C   C4137     1.0  0.35976  0.73165  0.61915  1.0000
  H   H3320     1.0  0.27707  0.80381  0.69006  1.0000
  H   H3321     1.0  0.26526  0.78017  0.69111  1.0000
  H   H3322     1.0  0.37312  0.80465  0.68808  1.0000
  H   H3323     1.0  0.37998  0.76729  0.73202  1.0000
  H   H3324     1.0  0.25768  0.85099  0.74982  1.0000
  C   C4138     1.0  0.25125  0.79861  0.96218  1.0000
  C   C4139     1.0  0.36658  0.75234  0.70409  1.0000
  C   C4140     1.0  0.43235  0.82428  0.69919  1.0000
  C   C4141     1.0  0.28094  0.81300  0.56724  1.0000
  C   C4142     1.0  0.25252  0.76749  0.59539  1.0000
  H   H3325     1.0  0.27176  0.77752  0.81754  1.0000
  H   H3326     1.0  0.27960  0.76554  0.87903  1.0000
  C   C4143     1.0  0.28771  0.88138  0.75454  1.0000
  C   C4144     1.0  0.27947  0.87664  0.74528  1.0000
  C   C4145     1.0  0.28847  0.87058  0.73104  1.0000
  C   C4146     1.0  0.30556  0.86991  0.72581  1.0000
  C   C4147     1.0  0.31361  0.87495  0.73495  1.0000
  C   C4148     1.0  0.30479  0.88035  0.74943  1.0000
  H   H3327     1.0  0.26626  0.87737  0.74925  1.0000
  H   H3328     1.0  0.28220  0.86679  0.72394  1.0000
  H   H3329     1.0  0.32676  0.87458  0.73084  1.0000
  H   H3330     1.0  0.31117  0.88399  0.75656  1.0000
  C   C4149     1.0  0.27477  0.94157  0.74915  1.0000
  C   C4150     1.0  0.35913  0.73949  0.63151  1.0000
  C   C4151     1.0  0.30052  0.76982  0.83898  1.0000
  C   C4152     1.0  0.26886  0.76597  0.82520  1.0000
  C   C4153     1.0  0.47026  0.74692  0.63582  1.0000
  H   H3331     1.0  0.24196  0.75152  0.85984  1.0000
  H   H3332     1.0  0.24587  0.75962  0.93803  1.0000
  H   H3333     1.0  0.31147  0.82527  0.56000  1.0000
  C   C4154     1.0  0.37808  0.76002  0.65850  1.0000
  C   C4155     1.0  0.36208  0.76486  0.66771  1.0000
  C   C4156     1.0  0.35533  0.78162  0.66808  1.0000
  C   C4157     1.0  0.36441  0.79362  0.65892  1.0000
  C   C4158     1.0  0.38036  0.78879  0.64954  1.0000
  C   C4159     1.0  0.38721  0.77199  0.64936  1.0000
  H   H3334     1.0  0.35498  0.75562  0.67477  1.0000
  H   H3335     1.0  0.34314  0.78526  0.67546  1.0000
  H   H3336     1.0  0.38744  0.79804  0.64245  1.0000
  H   H3337     1.0  0.39959  0.76832  0.64227  1.0000
  C   C4160     1.0  0.28505  0.74843  0.59132  1.0000
  C   C4161     1.0  0.27596  0.75111  0.57938  1.0000
  C   C4162     1.0  0.25978  0.76087  0.58129  1.0000
  C   C4163     1.0  0.29893  0.74433  0.68217  1.0000
  C   C4164     1.0  0.26167  0.76491  0.60725  1.0000
  C   C4165     1.0  0.27799  0.75548  0.60515  1.0000
  H   H3338     1.0  0.28138  0.74566  0.56870  1.0000
  C   C4166     1.0  0.25231  0.75119  0.84927  1.0000
  C   C4167     1.0  0.31423  0.76144  0.52623  1.0000
  H   H3339     1.0  0.28514  0.75358  0.61425  1.0000
  H   H3340     1.0  0.29026  0.79569  0.79269  1.0000
  H   H3341     1.0  0.30083  0.73901  0.88127  1.0000
  C   C4168     1.0  0.43124  0.77020  0.65024  1.0000
  C   C4169     1.0  0.34130  0.74360  0.72001  1.0000
  C   C4170     1.0  0.32900  0.74561  0.63746  1.0000
  S   S567      1.0  0.24073  0.77800  0.67513  1.0000
  H   H3342     1.0  0.27232  0.76998  0.53960  1.0000
  C   C4171     1.0  0.48128  0.80128  0.63651  1.0000
  H   H3343     1.0  0.24669  0.83554  0.65674  1.0000
  C   C4172     1.0  0.28512  0.77046  0.53802  1.0000
  C   C4173     1.0  0.43834  0.77305  0.70915  1.0000
  C   C4174     1.0  0.28876  0.76262  0.86823  1.0000
  H   H3344     1.0  0.24755  0.77778  0.84120  1.0000
  H   H3345     1.0  0.32225  0.75270  0.82958  1.0000
  H   H3346     1.0  0.34413  0.76890  0.71323  1.0000
  C   C4175     1.0  0.26898  0.93583  0.76603  1.0000
  S   S568      1.0  0.24254  0.91764  0.75345  1.0000
  H   H3347     1.0  0.44679  0.77771  0.72834  1.0000
  C   C4176     1.0  0.31264  0.74382  0.85543  1.0000
  C   C4177     1.0  0.32724  0.75613  0.76566  1.0000
  H   H3348     1.0  0.26782  0.92306  0.77082  1.0000
  H   H3349     1.0  0.31904  0.85045  0.54064  1.0000
  H   H3350     1.0  0.30048  0.77828  0.82715  1.0000
  C   C4178     1.0  0.31668  0.81138  0.54103  1.0000
  C   C4179     1.0  0.33181  0.76371  0.56821  1.0000
  H   H3351     1.0  0.29213  0.73710  0.67925  1.0000
  C   C4180     1.0  0.34515  0.75449  0.57540  1.0000
  H   H3352     1.0  0.40096  0.79307  0.67344  1.0000
  H   H3353     1.0  0.33114  0.77111  0.53306  1.0000
  C   C4181     1.0  0.27624  0.73599  0.83275  1.0000
  H   H3354     1.0  0.32552  0.74539  0.77548  1.0000
  H   H3355     1.0  0.38672  0.73321  0.69575  1.0000
  C   C4182     1.0  0.26445  0.94662  0.77675  1.0000
  C   C4183     1.0  0.45977  0.76556  0.68584  1.0000
  C   C4184     1.0  0.38481  0.77300  0.71930  1.0000
  C   C4185     1.0  0.47276  0.75532  0.61924  1.0000
  C   C4186     1.0  0.37505  0.78705  0.71112  1.0000
  C   C4187     1.0  0.27963  0.79654  0.60025  1.0000
  C   C4188     1.0  0.24768  0.95269  0.71658  1.0000
  C   C4189     1.0  0.25341  0.93706  0.71272  1.0000
  H   H3356     1.0  0.46876  0.85484  0.67436  1.0000
  C   C4190     1.0  0.26316  0.75136  0.64851  1.0000
  H   H3357     1.0  0.26642  0.80195  0.74355  1.0000
  C   C4191     1.0  0.35016  0.75615  0.71267  1.0000
  H   H3358     1.0  0.42877  0.75805  0.65246  1.0000
  H   H3359     1.0  0.27893  0.79004  0.61305  1.0000
  P   P138      1.0  0.31105  0.79296  0.55538  1.0000
  C   C4192     1.0  0.29746  0.74388  0.69881  1.0000
  H   H3360     1.0  0.25294  0.78659  0.79674  1.0000
  C   C4193     1.0  0.32209  0.81198  0.52399  1.0000
  H   H3361     1.0  0.25647  0.88627  0.70908  1.0000
  C   C4194     1.0  0.43358  0.77951  0.63401  1.0000
  H   H3362     1.0  0.43570  0.79801  0.66926  1.0000
  C   C4195     1.0  0.31823  0.77113  0.53448  1.0000
  H   H3363     1.0  0.25270  0.76290  0.57206  1.0000
  H   H3364     1.0  0.46360  0.76232  0.67389  1.0000
  H   H3365     1.0  0.27911  0.78704  0.55428  1.0000
  C   C4196     1.0  0.46717  0.77092  0.70861  1.0000
  C   C4197     1.0  0.31562  0.82539  0.54693  1.0000
  H   H3366     1.0  0.25589  0.95814  0.71986  1.0000
  H   H3367     1.0  0.26604  0.93034  0.71304  1.0000
  H   H3368     1.0  0.26543  0.74348  0.90284  1.0000
  C   C4198     1.0  0.44324  0.73169  0.69244  1.0000
  H   H3369     1.0  0.32399  0.75405  0.51855  1.0000
  C   C4199     1.0  0.30085  0.74770  0.86951  1.0000
  C   C4200     1.0  0.43693  0.79525  0.63047  1.0000
  C   C4201     1.0  0.48016  0.80487  0.65164  1.0000
  C   C4202     1.0  0.38095  0.79408  0.69458  1.0000
  H   H3370     1.0  0.30768  0.74036  0.90776  1.0000
  C   C4203     1.0  0.30568  0.78061  0.54461  1.0000
  H   H3371     1.0  0.31863  0.73860  0.62081  1.0000
  C   C4204     1.0  0.34096  0.76292  0.76309  1.0000
  H   H3372     1.0  0.26218  0.80554  0.80489  1.0000
  H   H3373     1.0  0.25763  0.75788  0.79428  1.0000
  P   P139      1.0  0.25609  0.81804  0.77157  1.0000
  H   H3374     1.0  0.30685  0.96911  0.73804  1.0000
  C   C4205     1.0  0.27565  0.82397  0.76751  1.0000
  C   C4206     1.0  0.28949  0.81729  0.75628  1.0000
  C   C4207     1.0  0.30431  0.82260  0.75255  1.0000
  C   C4208     1.0  0.30551  0.83448  0.76007  1.0000
  C   C4209     1.0  0.29186  0.84112  0.77130  1.0000
  C   C4210     1.0  0.27693  0.83605  0.77492  1.0000
  C   C4211     1.0  0.29363  0.79931  0.57134  1.0000
  C   C4212     1.0  0.29272  0.79087  0.58790  1.0000
  C   C4213     1.0  0.25679  0.88528  0.69676  1.0000
  C   C4214     1.0  0.25946  0.79662  0.77035  1.0000
  H   H3375     1.0  0.27098  0.77310  0.74141  1.0000
  H   H3376     1.0  0.30200  0.77989  0.59130  1.0000
  H   H3377     1.0  0.28972  0.75090  0.81176  1.0000
  H   H3378     1.0  0.28890  0.80824  0.75011  1.0000
  H   H3379     1.0  0.31478  0.81774  0.74355  1.0000
  H   H3380     1.0  0.31688  0.83887  0.75685  1.0000
  H   H3381     1.0  0.29265  0.85068  0.77672  1.0000
  H   H3382     1.0  0.26637  0.84188  0.78321  1.0000
  C   C4215     1.0  0.45319  0.82960  0.67407  1.0000
  S   S569      1.0  0.40073  0.73777  0.58056  1.0000
  S   S570      1.0  0.30519  0.73618  0.58941  1.0000
  C   C4216     1.0  0.29005  0.75173  0.92680  1.0000
  H   H3383     1.0  0.28967  0.73645  0.70834  1.0000
  H   H3384     1.0  0.26196  0.97115  0.77929  1.0000
  H   H3385     1.0  0.25094  0.75933  0.64878  1.0000
  H   H3386     1.0  0.47092  0.81068  0.70724  1.0000
  H   H3387     1.0  0.35331  0.78265  0.74899  1.0000
  C   C4217     1.0  0.43530  0.79262  0.65949  1.0000
  H   H3388     1.0  0.32860  0.85128  0.51060  1.0000
  C   C4218     1.0  0.32977  0.73825  0.62453  1.0000
  H   H3389     1.0  0.34783  0.74108  0.57774  1.0000
  H   H3390     1.0  0.31957  0.78350  0.78234  1.0000
  H   H3391     1.0  0.47403  0.79312  0.63583  1.0000
  C   C4219     1.0  0.24377  0.81032  0.66521  1.0000
  C   C4220     1.0  0.26781  0.81852  0.57961  1.0000
  H   H3392     1.0  0.46084  0.73967  0.64076  1.0000
  H   H3393     1.0  0.32302  0.80150  0.51897  1.0000
  C   C4221     1.0  0.40695  0.77359  0.69455  1.0000
  H   H3394     1.0  0.41942  0.82506  0.70545  1.0000
  H   H3395     1.0  0.37054  0.74053  0.63375  1.0000
  H   H3396     1.0  0.37316  0.76213  0.69763  1.0000
  C   C4222     1.0  0.48190  0.85458  0.67093  1.0000
  H   H3397     1.0  0.30414  0.75339  0.71605  1.0000
  C   C4223     1.0  0.32637  0.82633  0.51308  1.0000
  C   C4224     1.0  0.24833  0.85649  0.82408  1.0000
  C   C4225     1.0  0.34296  0.77710  0.75068  1.0000
  C   C4226     1.0  0.47180  0.76653  0.69330  1.0000
  C   C4227     1.0  0.39682  0.78740  0.68630  1.0000
  S   S571      1.0  0.35540  0.75416  0.77559  1.0000
  H   H3398     1.0  0.47785  0.74147  0.65884  1.0000
  P   P140      1.0  0.42796  0.76553  0.68444  1.0000
  C   C4228     1.0  0.32528  0.84018  0.51907  1.0000
  C   C4229     1.0  0.25775  0.88257  0.66499  1.0000
  C   C4230     1.0  0.47990  0.74801  0.64608  1.0000
  C   C4231     1.0  0.25948  0.76759  0.78324  1.0000
  S   S572      1.0  0.24530  0.77945  0.89589  1.0000
  H   H3399     1.0  0.27806  0.93313  0.74091  1.0000
  H   H3400     1.0  0.27144  0.75987  0.94695  1.0000
  C   C4232     1.0  0.24146  0.81740  0.82105  1.0000
  C   C4233     1.0  0.43032  0.74358  0.68602  1.0000
  C   C4234     1.0  0.27616  0.95810  0.74298  1.0000
  C   C4235     1.0  0.33029  0.86113  0.79076  1.0000
  C   C4236     1.0  0.33523  0.86814  0.80087  1.0000
  C   C4237     1.0  0.33071  0.86307  0.81804  1.0000
  C   C4238     1.0  0.32116  0.85106  0.82514  1.0000
  C   C4239     1.0  0.31620  0.84389  0.81508  1.0000
  C   C4240     1.0  0.32084  0.84905  0.79782  1.0000
  P   P141      1.0  0.30272  0.82938  0.82396  1.0000
  C   C4241     1.0  0.30802  0.81478  0.81079  1.0000
  C   C4242     1.0  0.30501  0.81841  0.84467  1.0000
  C   C4243     1.0  0.31276  0.80151  0.84799  1.0000
  C   C4244     1.0  0.31325  0.79284  0.86422  1.0000
  C   C4245     1.0  0.30611  0.80097  0.87727  1.0000
  C   C4246     1.0  0.29858  0.81782  0.87409  1.0000
  C   C4247     1.0  0.29799  0.82651  0.85788  1.0000
  C   C4248     1.0  0.29557  0.81029  0.80649  1.0000
  C   C4249     1.0  0.29979  0.79915  0.79611  1.0000
  C   C4250     1.0  0.31639  0.79225  0.79019  1.0000
  C   C4251     1.0  0.32887  0.79649  0.79454  1.0000
  C   C4252     1.0  0.32472  0.80779  0.80475  1.0000
  C   C4253     1.0  0.28149  0.84066  0.82451  1.0000
  C   C4254     1.0  0.27754  0.85423  0.81170  1.0000
  C   C4255     1.0  0.26100  0.86198  0.81145  1.0000
  C   C4256     1.0  0.46148  0.81620  0.70008  1.0000
  C   C4257     1.0  0.25214  0.84345  0.83719  1.0000
  C   C4258     1.0  0.26862  0.83541  0.83732  1.0000
  H   H3401     1.0  0.33353  0.86523  0.77745  1.0000
  H   H3402     1.0  0.34240  0.87763  0.79539  1.0000
  H   H3403     1.0  0.33439  0.86864  0.82588  1.0000
  H   H3404     1.0  0.31761  0.84756  0.83844  1.0000
  H   H3405     1.0  0.31688  0.84399  0.78977  1.0000
  H   H3406     1.0  0.31792  0.79474  0.83823  1.0000
  H   H3407     1.0  0.31874  0.77967  0.86667  1.0000
  H   H3408     1.0  0.30613  0.79415  0.88987  1.0000
  H   H3409     1.0  0.29272  0.82404  0.88424  1.0000
  H   H3410     1.0  0.29155  0.83942  0.85572  1.0000
  H   H3411     1.0  0.28264  0.81527  0.81128  1.0000
  H   H3412     1.0  0.34173  0.79087  0.79006  1.0000
  H   H3413     1.0  0.33451  0.81093  0.80809  1.0000
  H   H3414     1.0  0.28710  0.85889  0.80183  1.0000
  H   H3415     1.0  0.25792  0.87234  0.80152  1.0000
  H   H3416     1.0  0.28047  0.96236  0.72984  1.0000
  Fe  Fe285     1.0  0.44006  0.74071  0.61381  1.0000
  H   H3417     1.0  0.27118  0.82506  0.84741  1.0000
  H   H3418     1.0  0.42686  0.83609  0.67524  1.0000
  H   H3419     1.0  0.40801  0.75520  0.71743  1.0000
  H   H3420     1.0  0.26625  0.75104  0.76661  1.0000
  C   C4259     1.0  0.26584  0.96313  0.77065  1.0000
  C   C4260     1.0  0.24407  0.82209  0.79143  1.0000
  H   H3421     1.0  0.30517  0.75804  0.75739  1.0000
  C   C4261     1.0  0.31272  0.75516  0.84030  1.0000
  C   C4262     1.0  0.43775  0.80183  0.64321  1.0000
  C   C4263     1.0  0.35157  0.77984  0.57620  1.0000
  C   C4264     1.0  0.35505  0.76253  0.57939  1.0000
  C   C4265     1.0  0.32847  0.78110  0.56451  1.0000
  C   C4266     1.0  0.33832  0.78911  0.56881  1.0000
  C   C4267     1.0  0.26431  0.79252  0.75478  1.0000
  C   C4268     1.0  0.44298  0.76839  0.69387  1.0000
  C   C4269     1.0  0.27189  0.96901  0.75372  1.0000
  H   H3422     1.0  0.24689  0.91750  0.70651  1.0000
  C   C4270     1.0  0.29821  0.73855  0.91901  1.0000
  C   C4271     1.0  0.40062  0.76614  0.71097  1.0000
  H   H3423     1.0  0.36274  0.79231  0.71745  1.0000
  H   H3424     1.0  0.35930  0.78601  0.57932  1.0000
  H   H3425     1.0  0.36549  0.75536  0.58485  1.0000
  H   H3426     1.0  0.33589  0.80248  0.56644  1.0000
  C   C4272     1.0  0.24921  0.79458  0.67456  1.0000
  H   H3427     1.0  0.47195  0.79937  0.66251  1.0000
  C   C4273     1.0  0.34385  0.74633  0.64073  1.0000
  C   C4274     1.0  0.24203  0.88697  0.69200  1.0000
  C   C4275     1.0  0.46580  0.82229  0.68294  1.0000
  S   S573      1.0  0.46097  0.75456  0.60575  1.0000
  C   C4276     1.0  0.31568  0.76296  0.69092  1.0000
  C   C4277     1.0  0.30860  0.75437  0.66967  1.0000
  C   C4278     1.0  0.31705  0.76362  0.67422  1.0000
  P   P142      1.0  0.30928  0.75616  0.64806  1.0000
  C   C4279     1.0  0.30632  0.77780  0.63768  1.0000
  C   C4280     1.0  0.29651  0.79010  0.64626  1.0000
  C   C4281     1.0  0.29469  0.80686  0.63836  1.0000
  C   C4282     1.0  0.30260  0.81149  0.62185  1.0000
  C   C4283     1.0  0.31232  0.79936  0.61317  1.0000
  C   C4284     1.0  0.31412  0.78257  0.62100  1.0000
  C   C4285     1.0  0.29239  0.74787  0.64744  1.0000
  H   H3428     1.0  0.27413  0.77109  0.64772  1.0000
  H   H3429     1.0  0.32420  0.75715  0.56548  1.0000
  C   C4286     1.0  0.30562  0.97947  0.72757  1.0000
  C   C4287     1.0  0.26433  0.76369  0.76769  1.0000
  H   H3430     1.0  0.32198  0.77028  0.69443  1.0000
  H   H3431     1.0  0.32426  0.77178  0.66490  1.0000
  Fe  Fe286     1.0  0.34894  0.73171  0.79451  1.0000
  H   H3432     1.0  0.29032  0.78679  0.65907  1.0000
  H   H3433     1.0  0.28727  0.81631  0.64509  1.0000
  H   H3434     1.0  0.30121  0.82451  0.61584  1.0000
  H   H3435     1.0  0.31845  0.80295  0.60037  1.0000
  H   H3436     1.0  0.32167  0.77342  0.61398  1.0000
  H   H3437     1.0  0.45623  0.83458  0.66087  1.0000
  H   H3438     1.0  0.25716  0.81483  0.60565  1.0000
  H   H3439     1.0  0.25897  0.78646  0.96549  1.0000
  S   S574      1.0  0.38669  0.73891  0.65904  1.0000
  P   P143      1.0  0.25573  0.73211  0.96521  1.0000
  C   C4288     1.0  0.26679  0.77614  0.75349  1.0000
  C   C4289     1.0  0.27647  0.75804  0.64775  1.0000
  H   H3440     1.0  0.25961  0.94222  0.78979  1.0000
  H   H3441     1.0  0.44017  0.81412  0.64046  1.0000
  C   C4290     1.0  0.26728  0.81042  0.59611  1.0000
  H   H3442     1.0  0.43878  0.80233  0.61783  1.0000
  C   C4291     1.0  0.25033  0.81415  0.80568  1.0000
  H   H3443     1.0  0.43282  0.77448  0.62411  1.0000
  C   C4292     1.0  0.28907  0.78018  0.54633  1.0000
  C   C4293     1.0  0.31990  0.83971  0.53599  1.0000
  H   H3444     1.0  0.25856  0.88076  0.65287  1.0000
  C   C4294     1.0  0.45042  0.77427  0.71648  1.0000
  C   C4295     1.0  0.27915  0.75094  0.82211  1.0000
  C   C4296     1.0  0.27250  0.88051  0.66994  1.0000
  C   C4297     1.0  0.27203  0.88193  0.68578  1.0000
  S   S575      1.0  0.25602  0.81537  0.88658  1.0000
  H   H3445     1.0  0.25796  0.82903  0.57643  1.0000
  C   C4298     1.0  0.24515  0.83072  0.75576  1.0000
  C   C4299     1.0  0.26098  0.73373  0.90087  1.0000
  C   C4300     1.0  0.26556  0.73453  0.64894  1.0000
  H   H3446     1.0  0.48708  0.77113  0.60024  1.0000
  C   C4301     1.0  0.27322  0.73409  0.94784  1.0000
  P   P144      1.0  0.48729  0.82058  0.67223  1.0000
  H   H3447     1.0  0.24155  0.74730  0.54539  1.0000
  H   H3448     1.0  0.24231  0.83951  0.84723  1.0000
  H   H3449     1.0  0.45208  0.73528  0.69675  1.0000
  H   H3450     1.0  0.24645  0.81120  0.83197  1.0000
  C   C4302     1.0  0.26295  0.73604  0.84659  1.0000
  Fe  Fe287     1.0  0.40745  0.73459  0.63713  1.0000
  H   H3451     1.0  0.26856  0.74054  0.87457  1.0000
  C   C4303     1.0  0.48513  0.76458  0.61301  1.0000
  H   H3452     1.0  0.24162  0.86852  0.72941  1.0000
  C   C4304     1.0  0.31898  0.98068  0.71399  1.0000
  C   C4305     1.0  0.37423  0.73603  0.70289  1.0000
  H   H3453     1.0  0.47655  0.77171  0.71434  1.0000
  H   H3454     1.0  0.31884  0.73614  0.47507  1.0000
  H   H3455     1.0  0.48474  0.76369  0.68720  1.0000
  C   C4306     1.0  0.26255  0.73213  0.88480  1.0000
  Fe  Fe288     1.0  0.41378  0.73226  0.60146  1.0000
  C   C4307     1.0  0.23935  0.85634  0.73560  1.0000
  C   C4308     1.0  0.48713  0.86920  0.66881  1.0000
  H   H3456     1.0  0.23880  0.85364  0.68505  1.0000
  C   C4309     1.0  0.65178  0.15457  0.40914  1.0000
  H   H3457     1.0  0.71260  0.10595  0.19596  1.0000
  C   C4310     1.0  0.62279  0.19539  0.21117  1.0000
  H   H3458     1.0  0.65678  0.20595  0.07485  1.0000
  H   H3459     1.0  0.71377  0.20664  0.16420  1.0000
  C   C4311     1.0  0.56806  0.22976  0.32286  1.0000
  C   C4312     1.0  0.56860  0.15099  0.30594  1.0000
  Fe  Fe289     1.0  0.55050  0.19459  0.27018  1.0000
  S   S576      1.0  0.56216  0.17411  0.25653  1.0000
  S   S577      1.0  0.53509  0.19203  0.29597  1.0000
  C   C4313     1.0  0.70384  0.98360  0.18535  1.0000
  C   C4314     1.0  0.61536  0.17572  0.32029  1.0000
  Fe  Fe290     1.0  0.64212  0.19976  0.36681  1.0000
  S   S578      1.0  0.49015  0.21941  0.29092  1.0000
  S   S579      1.0  0.64832  0.17425  0.36188  1.0000
  H   H3460     1.0  0.70426  0.19141  0.33707  1.0000
  C   C4315     1.0  0.69512  0.21451  0.08224  1.0000
  H   H3461     1.0  0.65785  0.16450  0.44227  1.0000
  H   H3462     1.0  0.68348  0.19273  0.43017  1.0000
  S   S580      1.0  0.65489  0.21017  0.37959  1.0000
  S   S581      1.0  0.61656  0.20891  0.38091  1.0000
  Fe  Fe291     1.0  0.66503  0.16207  0.19189  1.0000
  S   S582      1.0  0.64776  0.14510  0.20595  1.0000
  S   S583      1.0  0.65906  0.18673  0.17523  1.0000
  Fe  Fe292     1.0  0.69150  0.14450  0.21134  1.0000
  S   S584      1.0  0.67666  0.12590  0.22707  1.0000
  S   S585      1.0  0.71515  0.14545  0.21696  1.0000
  Fe  Fe293     1.0  0.67115  0.12508  0.20344  1.0000
  S   S586      1.0  0.67312  0.09879  0.20192  1.0000
  Fe  Fe294     1.0  0.65490  0.14735  0.22820  1.0000
  S   S587      1.0  0.63929  0.15336  0.25226  1.0000
  S   S588      1.0  0.68797  0.14208  0.18743  1.0000
  S   S589      1.0  0.67020  0.16590  0.21425  1.0000
  H   H3463     1.0  0.58440  0.12601  0.27840  1.0000
  C   C4316     1.0  0.70773  0.20561  0.14198  1.0000
  S   S590      1.0  0.72592  0.14101  0.31415  1.0000
  S   S591      1.0  0.72124  0.13198  0.36007  1.0000
  Fe  Fe295     1.0  0.72361  0.11948  0.30597  1.0000
  S   S592      1.0  0.70261  0.12177  0.29435  1.0000
  H   H3464     1.0  0.65909  0.20646  0.46783  1.0000
  C   C4317     1.0  0.67972  0.18535  0.47041  1.0000
  S   S593      1.0  0.71243  0.14161  0.01108  1.0000
  H   H3465     1.0  0.70805  0.08687  0.00902  1.0000
  C   C4318     1.0  0.71099  0.17075  0.44101  1.0000
  Fe  Fe296     1.0  0.71662  0.15609  0.02686  1.0000
  S   S594      1.0  0.69657  0.16328  0.04847  1.0000
  Fe  Fe297     1.0  0.72603  0.01695  0.12589  1.0000
  C   C4319     1.0  0.65957  0.15122  0.30596  1.0000
  H   H3466     1.0  0.61595  0.09311  0.32714  1.0000
  C   C4320     1.0  0.70615  0.11108  0.11193  1.0000
  S   S595      1.0  0.72029  0.04200  0.10886  1.0000
  C   C4321     1.0  0.61213  0.16255  0.31609  1.0000
  S   S596      1.0  0.71721  0.02759  0.14873  1.0000
  H   H3467     1.0  0.72371  0.20343  0.38556  1.0000
  S   S597      1.0  0.71526  0.99479  0.12823  1.0000
  Fe  Fe298     1.0  0.71378  0.05250  0.13153  1.0000
  S   S598      1.0  0.69291  0.07486  0.13465  1.0000
  S   S599      1.0  0.61825  0.19491  0.12249  1.0000
  C   C4322     1.0  0.65546  0.16704  0.29618  1.0000
  C   C4323     1.0  0.67293  0.11397  0.99948  1.0000
  H   H3468     1.0  0.73304  0.01978  0.21495  1.0000
  H   H3469     1.0  0.71286  0.22367  0.44931  1.0000
  C   C4324     1.0  0.63751  0.12497  0.29159  1.0000
  H   H3470     1.0  0.69689  0.22981  0.39314  1.0000
  C   C4325     1.0  0.66698  0.21629  0.04953  1.0000
  C   C4326     1.0  0.67798  0.21279  0.03487  1.0000
  C   C4327     1.0  0.68722  0.19656  0.03433  1.0000
  C   C4328     1.0  0.68553  0.18383  0.04847  1.0000
  C   C4329     1.0  0.67473  0.18740  0.06311  1.0000
  C   C4330     1.0  0.66535  0.20350  0.06358  1.0000
  C   C4331     1.0  0.58310  0.20265  0.15177  1.0000
  H   H3471     1.0  0.69564  0.19387  0.02305  1.0000
  H   H3472     1.0  0.67337  0.17761  0.07408  1.0000
  C   C4332     1.0  0.73763  0.98383  0.19605  1.0000
  C   C4333     1.0  0.67944  0.09270  0.18289  1.0000
  C   C4334     1.0  0.68722  0.07609  0.18253  1.0000
  C   C4335     1.0  0.69195  0.07066  0.16765  1.0000
  C   C4336     1.0  0.68848  0.08172  0.15313  1.0000
  C   C4337     1.0  0.68081  0.09838  0.15345  1.0000
  C   C4338     1.0  0.67645  0.10391  0.16827  1.0000
  H   H3473     1.0  0.68959  0.06740  0.19380  1.0000
  H   H3474     1.0  0.69787  0.05783  0.16750  1.0000
  H   H3475     1.0  0.67820  0.10705  0.14227  1.0000
  H   H3476     1.0  0.67040  0.11670  0.16848  1.0000
  C   C4339     1.0  0.62715  0.19261  0.13924  1.0000
  C   C4340     1.0  0.63216  0.20606  0.14083  1.0000
  C   C4341     1.0  0.64098  0.20424  0.15270  1.0000
  C   C4342     1.0  0.64532  0.18880  0.16288  1.0000
  C   C4343     1.0  0.63943  0.17540  0.16227  1.0000
  C   C4344     1.0  0.63023  0.17734  0.15040  1.0000
  H   H3477     1.0  0.62982  0.21787  0.13260  1.0000
  H   H3478     1.0  0.64493  0.21478  0.15352  1.0000
  H   H3479     1.0  0.64258  0.16344  0.17033  1.0000
  C   C4345     1.0  0.65368  0.11915  0.28328  1.0000
  C   C4346     1.0  0.71175  0.14052  0.23854  1.0000
  C   C4347     1.0  0.72509  0.13569  0.24631  1.0000
  C   C4348     1.0  0.72229  0.13082  0.26357  1.0000
  C   C4349     1.0  0.70624  0.13036  0.27305  1.0000
  C   C4350     1.0  0.69286  0.13611  0.26529  1.0000
  C   C4351     1.0  0.69560  0.14132  0.24810  1.0000
  H   H3480     1.0  0.73757  0.13535  0.23903  1.0000
  C   C4352     1.0  0.71059  0.22282  0.23889  1.0000
  H   H3481     1.0  0.68035  0.13657  0.27255  1.0000
  H   H3482     1.0  0.68512  0.14602  0.24233  1.0000
  H   H3483     1.0  0.67930  0.22262  0.02394  1.0000
  H   H3484     1.0  0.61172  0.18826  0.31350  1.0000
  H   H3485     1.0  0.65615  0.13372  0.45549  1.0000
  H   H3486     1.0  0.69543  0.17401  0.14276  1.0000
  C   C4353     1.0  0.66895  0.16327  0.36049  1.0000
  C   C4354     1.0  0.67376  0.14825  0.35532  1.0000
  C   C4355     1.0  0.69012  0.13906  0.35430  1.0000
  C   C4356     1.0  0.70154  0.14460  0.35901  1.0000
  C   C4357     1.0  0.69676  0.15967  0.36406  1.0000
  C   C4358     1.0  0.68050  0.16908  0.36470  1.0000
  H   H3487     1.0  0.66483  0.14374  0.35206  1.0000
  H   H3488     1.0  0.69376  0.12743  0.35036  1.0000
  H   H3489     1.0  0.70565  0.16407  0.36741  1.0000
  H   H3490     1.0  0.67689  0.18065  0.36869  1.0000
  C   C4359     1.0  0.58358  0.16816  0.25541  1.0000
  C   C4360     1.0  0.59028  0.17053  0.26738  1.0000
  C   C4361     1.0  0.60740  0.16565  0.26645  1.0000
  C   C4362     1.0  0.61789  0.15863  0.25343  1.0000
  C   C4363     1.0  0.61122  0.15615  0.24152  1.0000
  C   C4364     1.0  0.59405  0.16082  0.24257  1.0000
  H   H3491     1.0  0.58222  0.17560  0.27766  1.0000
  H   H3492     1.0  0.61252  0.16734  0.27579  1.0000
  H   H3493     1.0  0.61923  0.15058  0.23154  1.0000
  H   H3494     1.0  0.58891  0.15891  0.23333  1.0000
  C   C4365     1.0  0.57201  0.21244  0.32719  1.0000
  H   H3495     1.0  0.72118  0.03625  0.35354  1.0000
  C   C4366     1.0  0.55990  0.21811  0.20368  1.0000
  H   H3496     1.0  0.63124  0.16695  0.39734  1.0000
  C   C4367     1.0  0.59090  0.21386  0.34309  1.0000
  C   C4368     1.0  0.58333  0.20456  0.33746  1.0000
  H   H3497     1.0  0.58619  0.19118  0.34117  1.0000
  C   C4369     1.0  0.67306  0.16302  0.98621  1.0000
  H   H3498     1.0  0.67775  0.08891  0.01384  1.0000
  C   C4370     1.0  0.71885  0.09826  0.18704  1.0000
  C   C4371     1.0  0.68822  0.21822  0.16369  1.0000
  C   C4372     1.0  0.72029  0.19285  0.10786  1.0000
  C   C4373     1.0  0.71115  0.02179  0.26136  1.0000
  C   C4374     1.0  0.63565  0.15696  0.00038  1.0000
  C   C4375     1.0  0.54674  0.22997  0.19776  1.0000
  H   H3499     1.0  0.55770  0.16028  0.30956  1.0000
  C   C4376     1.0  0.58364  0.13161  0.28845  1.0000
  H   H3500     1.0  0.58875  0.21934  0.28997  1.0000
  C   C4377     1.0  0.67625  0.22490  0.27396  1.0000
  H   H3501     1.0  0.63531  0.18896  0.20660  1.0000
  C   C4378     1.0  0.68211  0.13340  0.44431  1.0000
  Fe  Fe299     1.0  0.54955  0.20879  0.29911  1.0000
  Fe  Fe300     1.0  0.51828  0.21543  0.28544  1.0000
  C   C4379     1.0  0.68084  0.20577  0.42996  1.0000
  H   H3502     1.0  0.70071  0.19054  0.39426  1.0000
  C   C4380     1.0  0.72286  0.09328  0.15978  1.0000
  C   C4381     1.0  0.60578  0.11442  0.33834  1.0000
  C   C4382     1.0  0.67648  0.17538  0.30375  1.0000
  C   C4383     1.0  0.69502  0.15105  0.41042  1.0000
  C   C4384     1.0  0.69789  0.98579  0.17115  1.0000
  C   C4385     1.0  0.71523  0.10319  0.17134  1.0000
  C   C4386     1.0  0.67191  0.14753  0.31482  1.0000
  H   H3503     1.0  0.67395  0.10621  0.44040  1.0000
  H   H3504     1.0  0.73305  0.99334  0.18614  1.0000
  P   P145      1.0  0.66724  0.14680  0.98099  1.0000
  C   C4387     1.0  0.55637  0.20483  0.21688  1.0000
  C   C4388     1.0  0.53995  0.20382  0.22448  1.0000
  C   C4389     1.0  0.73020  0.08337  0.19123  1.0000
  C   C4390     1.0  0.66218  0.20603  0.24743  1.0000
  C   C4391     1.0  0.70368  0.17710  0.39712  1.0000
  H   H3505     1.0  0.66936  0.22059  0.13319  1.0000
  C   C4392     1.0  0.58468  0.20556  0.17840  1.0000
  C   C4393     1.0  0.70421  0.20998  0.15723  1.0000
  C   C4394     1.0  0.58785  0.18543  0.15670  1.0000
  C   C4395     1.0  0.59087  0.17822  0.17250  1.0000
  C   C4396     1.0  0.58921  0.18823  0.18337  1.0000
  H   H3506     1.0  0.56626  0.19509  0.22125  1.0000
  H   H3507     1.0  0.53739  0.19358  0.23477  1.0000
  H   H3508     1.0  0.63136  0.21232  0.45177  1.0000
  C   C4397     1.0  0.61627  0.14631  0.32529  1.0000
  H   H3509     1.0  0.69082  0.18979  0.21661  1.0000
  H   H3510     1.0  0.61601  0.20088  0.18783  1.0000
  C   C4398     1.0  0.72912  0.18515  0.44579  1.0000
  H   H3511     1.0  0.58962  0.17774  0.14806  1.0000
  H   H3512     1.0  0.59471  0.16488  0.17625  1.0000
  H   H3513     1.0  0.59137  0.18244  0.19567  1.0000
  H   H3514     1.0  0.62891  0.13380  0.28459  1.0000
  H   H3515     1.0  0.71950  0.09673  0.14790  1.0000
  H   H3516     1.0  0.59722  0.20558  0.24641  1.0000
  C   C4399     1.0  0.73579  0.21644  0.02624  1.0000
  C   C4400     1.0  0.59587  0.12002  0.35250  1.0000
  C   C4401     1.0  0.73147  0.21479  0.98323  1.0000
  H   H3517     1.0  0.71449  0.09950  0.11599  1.0000
  H   H3518     1.0  0.71746  0.12601  0.11986  1.0000
  C   C4402     1.0  0.61152  0.14718  0.00129  1.0000
  C   C4403     1.0  0.69522  0.20952  0.13311  1.0000
  C   C4404     1.0  0.63799  0.13736  0.98399  1.0000
  C   C4405     1.0  0.73453  0.07869  0.16374  1.0000
  C   C4406     1.0  0.70120  0.20667  0.46998  1.0000
  C   C4407     1.0  0.68520  0.21149  0.44157  1.0000
  H   H3519     1.0  0.62608  0.19110  0.23592  1.0000
  H   H3520     1.0  0.70236  0.13665  0.98013  1.0000
  C   C4408     1.0  0.61878  0.15696  0.00642  1.0000
  C   C4409     1.0  0.71302  0.18310  0.44758  1.0000
  C   C4410     1.0  0.67983  0.12754  0.98986  1.0000
  H   H3521     1.0  0.58084  0.15281  0.32359  1.0000
  P   P146      1.0  0.58111  0.21832  0.19292  1.0000
  H   H3522     1.0  0.59962  0.20761  0.35096  1.0000
  C   C4411     1.0  0.60218  0.21606  0.28785  1.0000
  C   C4412     1.0  0.66371  0.17938  0.29517  1.0000
  H   H3523     1.0  0.59844  0.14722  0.00597  1.0000
  H   H3524     1.0  0.49237  0.21880  0.17239  1.0000
  C   C4413     1.0  0.72406  0.19467  0.04695  1.0000
  C   C4414     1.0  0.66464  0.17573  0.11675  1.0000
  H   H3525     1.0  0.65978  0.11465  0.00189  1.0000
  C   C4415     1.0  0.67585  0.22239  0.15478  1.0000
  C   C4416     1.0  0.58141  0.21271  0.16260  1.0000
  H   H3526     1.0  0.64609  0.16936  0.28922  1.0000
  C   C4417     1.0  0.64544  0.14702  0.98922  1.0000
  C   C4418     1.0  0.66997  0.20359  0.23148  1.0000
  C   C4419     1.0  0.70014  0.09812  0.00360  1.0000
  C   C4420     1.0  0.63279  0.11992  0.30881  1.0000
  H   H3527     1.0  0.71268  0.12092  0.46601  1.0000
  H   H3528     1.0  0.72002  0.19878  0.13743  1.0000
  C   C4421     1.0  0.73815  0.04468  0.33116  1.0000
  S   S600      1.0  0.72694  0.10117  0.32968  1.0000
  H   H3529     1.0  0.68376  0.18420  0.30263  1.0000
  C   C4422     1.0  0.65926  0.15344  0.42205  1.0000
  H   H3530     1.0  0.58231  0.11314  0.37749  1.0000
  C   C4423     1.0  0.60895  0.09755  0.33819  1.0000
  C   C4424     1.0  0.56949  0.14342  0.29328  1.0000
  C   C4425     1.0  0.68109  0.12151  0.41610  1.0000
  C   C4426     1.0  0.69157  0.16847  0.40709  1.0000
  S   S601      1.0  0.62408  0.21763  0.42002  1.0000
  C   C4427     1.0  0.67786  0.10680  0.42727  1.0000
  C   C4428     1.0  0.67977  0.09256  0.42150  1.0000
  C   C4429     1.0  0.68489  0.09290  0.40458  1.0000
  C   C4430     1.0  0.68794  0.10754  0.39341  1.0000
  C   C4431     1.0  0.68590  0.12179  0.39915  1.0000
  H   H3531     1.0  0.67946  0.17551  0.41185  1.0000
  C   C4432     1.0  0.66536  0.21511  0.30309  1.0000
  H   H3532     1.0  0.67738  0.08121  0.43015  1.0000
  H   H3533     1.0  0.68655  0.08185  0.40009  1.0000
  H   H3534     1.0  0.69205  0.10787  0.38028  1.0000
  H   H3535     1.0  0.68820  0.13303  0.39038  1.0000
  H   H3536     1.0  0.73466  0.21927  0.42329  1.0000
  C   C4433     1.0  0.67242  0.22604  0.30686  1.0000
  C   C4434     1.0  0.73185  0.11878  0.07599  1.0000
  P   P147      1.0  0.73791  0.22920  0.00558  1.0000
  C   C4435     1.0  0.67240  0.21689  0.41824  1.0000
  C   C4436     1.0  0.69805  0.12942  0.44746  1.0000
  S   S602      1.0  0.56613  0.20940  0.27396  1.0000
  C   C4437     1.0  0.66926  0.19677  0.26093  1.0000
  C   C4438     1.0  0.73178  0.20312  0.10151  1.0000
  H   H3537     1.0  0.70607  0.11442  0.16835  1.0000
  C   C4439     1.0  0.68725  0.17433  0.13510  1.0000
  H   H3538     1.0  0.69881  0.16857  0.44253  1.0000
  H   H3539     1.0  0.66872  0.21246  0.40952  1.0000
  H   H3540     1.0  0.71702  0.18513  0.05033  1.0000
  C   C4440     1.0  0.52692  0.21605  0.21900  1.0000
  H   H3541     1.0  0.72773  0.21634  0.10095  1.0000
  H   H3542     1.0  0.71728  0.16758  0.11302  1.0000
  H   H3543     1.0  0.72856  0.17508  0.38228  1.0000
  H   H3544     1.0  0.68704  0.19673  0.99790  1.0000
  H   H3545     1.0  0.71366  0.12904  0.40554  1.0000
  H   H3546     1.0  0.67815  0.15325  0.15148  1.0000
  H   H3547     1.0  0.66414  0.21026  0.22119  1.0000
  C   C4441     1.0  0.70704  0.11154  0.99403  1.0000
  C   C4442     1.0  0.72645  0.20422  0.03083  1.0000
  H   H3548     1.0  0.72103  0.20209  0.02193  1.0000
  C   C4443     1.0  0.68707  0.00056  0.16571  1.0000
  C   C4444     1.0  0.68187  0.01313  0.17454  1.0000
  C   C4445     1.0  0.68733  0.01084  0.18897  1.0000
  C   C4446     1.0  0.69815  0.99607  0.19446  1.0000
  H   H3549     1.0  0.72108  0.22143  0.35851  1.0000
  C   C4447     1.0  0.71924  0.02768  0.33307  1.0000
  H   H3550     1.0  0.72506  0.07070  0.04906  1.0000
  H   H3551     1.0  0.73131  0.22155  0.24890  1.0000
  H   H3552     1.0  0.69890  0.21593  0.34908  1.0000
  H   H3553     1.0  0.69921  0.20177  0.08092  1.0000
  H   H3554     1.0  0.63351  0.22313  0.29965  1.0000
  C   C4448     1.0  0.59624  0.13515  0.30879  1.0000
  H   H3555     1.0  0.70348  0.01828  0.25543  1.0000
  H   H3556     1.0  0.60549  0.07328  0.35213  1.0000
  H   H3557     1.0  0.62545  0.18298  0.33677  1.0000
  C   C4449     1.0  0.71203  0.03839  0.25824  1.0000
  C   C4450     1.0  0.58186  0.14684  0.31373  1.0000
  H   H3558     1.0  0.60636  0.16512  0.30574  1.0000
  H   H3559     1.0  0.61790  0.18539  0.41711  1.0000
  H   H3560     1.0  0.73436  0.19459  0.30155  1.0000
  H   H3561     1.0  0.67297  0.19692  0.10065  1.0000
  H   H3562     1.0  0.68313  0.00241  0.15432  1.0000
  H   H3563     1.0  0.67384  0.02473  0.17002  1.0000
  H   H3564     1.0  0.68335  0.02065  0.19574  1.0000
  H   H3565     1.0  0.70225  0.99449  0.20567  1.0000
  H   H3566     1.0  0.65049  0.21484  0.24923  1.0000
  S   S603      1.0  0.64111  0.22140  0.34532  1.0000
  C   C4451     1.0  0.68039  0.15960  0.31367  1.0000
  C   C4452     1.0  0.68448  0.18538  0.25815  1.0000
  C   C4453     1.0  0.72356  0.21059  0.35340  1.0000
  H   H3567     1.0  0.59264  0.13310  0.35263  1.0000
  H   H3568     1.0  0.66338  0.22861  0.15978  1.0000
  C   C4454     1.0  0.67466  0.18731  0.11151  1.0000
  C   C4455     1.0  0.71934  0.16842  0.39039  1.0000
  H   H3569     1.0  0.60481  0.19899  0.27277  1.0000
  C   C4456     1.0  0.67862  0.09136  0.06168  1.0000
  C   C4457     1.0  0.69223  0.09623  0.04989  1.0000
  C   C4458     1.0  0.69760  0.10987  0.05054  1.0000
  C   C4459     1.0  0.68951  0.11858  0.06297  1.0000
  C   C4460     1.0  0.67575  0.11391  0.07476  1.0000
  C   C4461     1.0  0.67034  0.10019  0.07409  1.0000
  P   P148      1.0  0.66585  0.12528  0.09084  1.0000
  C   C4462     1.0  0.65065  0.11493  0.10612  1.0000
  C   C4463     1.0  0.68233  0.12573  0.09977  1.0000
  C   C4464     1.0  0.68442  0.14071  0.10147  1.0000
  C   C4465     1.0  0.69711  0.14080  0.10862  1.0000
  H   H3570     1.0  0.72454  0.11017  0.07643  1.0000
  C   C4466     1.0  0.68354  0.18823  0.97819  1.0000
  C   C4467     1.0  0.69369  0.11100  0.10449  1.0000
  C   C4468     1.0  0.63459  0.11783  0.10348  1.0000
  C   C4469     1.0  0.62267  0.10999  0.11520  1.0000
  C   C4470     1.0  0.62671  0.09911  0.12960  1.0000
  C   C4471     1.0  0.64268  0.09605  0.13224  1.0000
  C   C4472     1.0  0.65458  0.10390  0.12058  1.0000
  C   C4473     1.0  0.65504  0.14599  0.08269  1.0000
  C   C4474     1.0  0.65703  0.15253  0.06560  1.0000
  C   C4475     1.0  0.64831  0.16847  0.05962  1.0000
  C   C4476     1.0  0.63752  0.17797  0.07062  1.0000
  C   C4477     1.0  0.63539  0.17151  0.08761  1.0000
  C   C4478     1.0  0.64410  0.15561  0.09365  1.0000
  H   H3571     1.0  0.67463  0.08061  0.06134  1.0000
  H   H3572     1.0  0.69882  0.08934  0.04036  1.0000
  H   H3573     1.0  0.70817  0.11364  0.04153  1.0000
  H   H3574     1.0  0.69396  0.12903  0.06334  1.0000
  H   H3575     1.0  0.65997  0.09610  0.08323  1.0000
  H   H3576     1.0  0.67645  0.15234  0.09710  1.0000
  H   H3577     1.0  0.69866  0.15242  0.10981  1.0000
  H   H3578     1.0  0.66930  0.15177  0.01238  1.0000
  C   C4479     1.0  0.73083  0.19737  0.05864  1.0000
  H   H3579     1.0  0.69272  0.09933  0.10276  1.0000
  H   H3580     1.0  0.63127  0.12618  0.09236  1.0000
  H   H3581     1.0  0.61029  0.11237  0.11314  1.0000
  H   H3582     1.0  0.61750  0.09303  0.13870  1.0000
  H   H3583     1.0  0.64596  0.08755  0.14334  1.0000
  H   H3584     1.0  0.66677  0.10120  0.12299  1.0000
  H   H3585     1.0  0.66545  0.14559  0.05678  1.0000
  H   H3586     1.0  0.65028  0.17365  0.04646  1.0000
  H   H3587     1.0  0.63106  0.19047  0.06602  1.0000
  H   H3588     1.0  0.62705  0.17893  0.09611  1.0000
  H   H3589     1.0  0.64233  0.15086  0.10690  1.0000
  C   C4480     1.0  0.66539  0.10869  0.29213  1.0000
  H   H3590     1.0  0.65835  0.15430  0.13500  1.0000
  C   C4481     1.0  0.61761  0.19670  0.22767  1.0000
  C   C4482     1.0  0.63682  0.16592  0.40750  1.0000
  Fe  Fe301     1.0  0.73165  0.12240  0.33681  1.0000
  C   C4483     1.0  0.72582  0.17578  0.10827  1.0000
  H   H3591     1.0  0.63336  0.15430  0.35260  1.0000
  H   H3592     1.0  0.57774  0.21767  0.22790  1.0000
  C   C4484     1.0  0.58989  0.10875  0.36658  1.0000
  H   H3593     1.0  0.65531  0.17678  0.11008  1.0000
  H   H3594     1.0  0.71132  0.20955  0.24257  1.0000
  C   C4485     1.0  0.72181  0.22957  0.24250  1.0000
  H   H3595     1.0  0.73575  0.05431  0.07392  1.0000
  C   C4486     1.0  0.62417  0.14341  0.33833  1.0000
  H   H3596     1.0  0.67109  0.22643  0.31963  1.0000
  H   H3597     1.0  0.73265  0.12692  0.26939  1.0000
  P   P149      1.0  0.69510  0.19672  0.45737  1.0000
  S   S604      1.0  0.53274  0.21665  0.25938  1.0000
  S   S605      1.0  0.56281  0.20017  0.32047  1.0000
  C   C4487     1.0  0.71727  0.08203  0.22707  1.0000
  C   C4488     1.0  0.70198  0.07999  0.22613  1.0000
  C   C4489     1.0  0.68791  0.08313  0.23864  1.0000
  C   C4490     1.0  0.68901  0.08831  0.25219  1.0000
  C   C4491     1.0  0.70423  0.09019  0.25332  1.0000
  C   C4492     1.0  0.71834  0.08682  0.24093  1.0000
  Fe  Fe302     1.0  0.72869  0.15572  0.99007  1.0000
  H   H3598     1.0  0.65341  0.14171  0.30643  1.0000
  H   H3599     1.0  0.69019  0.17792  0.26831  1.0000
  H   H3600     1.0  0.72022  0.11069  0.99212  1.0000
  C   C4493     1.0  0.66851  0.13134  0.45763  1.0000
  H   H3601     1.0  0.67811  0.10485  0.28575  1.0000
  H   H3602     1.0  0.71197  0.14024  0.07313  1.0000
  H   H3603     1.0  0.58115  0.20822  0.13937  1.0000
  C   C4494     1.0  0.66748  0.21424  0.28659  1.0000
  C   C4495     1.0  0.62299  0.17277  0.33345  1.0000
  S   S606      1.0  0.64594  0.22523  0.09887  1.0000
  C   C4496     1.0  0.71103  0.20762  0.34793  1.0000
  C   C4497     1.0  0.66088  0.10379  0.30930  1.0000
  C   C4498     1.0  0.68502  0.19211  0.22887  1.0000
  H   H3604     1.0  0.70082  0.07622  0.21561  1.0000
  H   H3605     1.0  0.67603  0.08210  0.23746  1.0000
  H   H3606     1.0  0.67797  0.09122  0.26157  1.0000
  H   H3607     1.0  0.70510  0.09448  0.26366  1.0000
  H   H3608     1.0  0.72882  0.15996  0.07131  1.0000
  H   H3609     1.0  0.70374  0.17392  0.24021  1.0000
  C   C4499     1.0  0.64464  0.10934  0.31763  1.0000
  H   H3610     1.0  0.50248  0.19413  0.27103  1.0000
  P   P150      1.0  0.65910  0.19952  0.28167  1.0000
  C   C4500     1.0  0.70778  0.12596  0.11414  1.0000
  C   C4501     1.0  0.69230  0.18312  0.24218  1.0000
  H   H3611     1.0  0.62625  0.16689  0.14936  1.0000
  C   C4502     1.0  0.62741  0.15660  0.34243  1.0000
  C   C4503     1.0  0.61124  0.20456  0.27820  1.0000
  C   C4504     1.0  0.63686  0.20642  0.28366  1.0000
  H   H3612     1.0  0.63125  0.18404  0.43948  1.0000
  C   C4505     1.0  0.68613  0.18667  0.12059  1.0000
  C   C4506     1.0  0.62761  0.21804  0.29330  1.0000
  C   C4507     1.0  0.61174  0.20201  0.20060  1.0000
  Fe  Fe303     1.0  0.62040  0.22026  0.10683  1.0000
  C   C4508     1.0  0.59027  0.21143  0.22308  1.0000
  H   H3613     1.0  0.67845  0.22810  0.37658  1.0000
  H   H3614     1.0  0.73628  0.16399  0.24577  1.0000
  P   P151      1.0  0.67932  0.13989  0.42328  1.0000
  C   C4509     1.0  0.67927  0.21787  0.13965  1.0000
  C   C4510     1.0  0.59530  0.20978  0.20659  1.0000
  C   C4511     1.0  0.62850  0.19978  0.27604  1.0000
  H   H3615     1.0  0.65757  0.14705  0.40003  1.0000
  H   H3616     1.0  0.62787  0.13096  0.34534  1.0000
  H   H3617     1.0  0.60755  0.11785  0.29263  1.0000
  C   C4512     1.0  0.65187  0.16432  0.43286  1.0000
  C   C4513     1.0  0.60138  0.20479  0.23358  1.0000
  C   C4514     1.0  0.62931  0.17632  0.41860  1.0000
  H   H3618     1.0  0.65853  0.20708  0.31308  1.0000
  C   C4515     1.0  0.63685  0.17552  0.43126  1.0000
  C   C4516     1.0  0.68309  0.09932  0.00633  1.0000
  S   S607      1.0  0.73589  0.09696  0.02267  1.0000
  C   C4517     1.0  0.67748  0.16252  0.14011  1.0000
  H   H3619     1.0  0.70961  0.02112  0.34034  1.0000
  C   C4518     1.0  0.71076  0.14244  0.40352  1.0000
  H   H3620     1.0  0.73005  0.08802  0.24214  1.0000
  C   C4519     1.0  0.59689  0.12729  0.29632  1.0000
  C   C4520     1.0  0.60295  0.08630  0.35229  1.0000
  H   H3621     1.0  0.55937  0.14700  0.28692  1.0000
  C   C4521     1.0  0.66624  0.16318  0.13088  1.0000
  H   H3622     1.0  0.67530  0.13516  0.32215  1.0000
  H   H3623     1.0  0.65731  0.12327  0.26998  1.0000
  C   C4522     1.0  0.67291  0.16209  0.00276  1.0000
  C   C4523     1.0  0.67771  0.17434  0.00699  1.0000
  C   C4524     1.0  0.72284  0.15112  0.39351  1.0000
  P   P152      1.0  0.69865  0.20200  0.11468  1.0000
  H   H3624     1.0  0.72913  0.18990  0.07108  1.0000
  H   H3625     1.0  0.61130  0.16464  0.01505  1.0000
  H   H3626     1.0  0.73744  0.00477  0.28759  1.0000
  C   C4525     1.0  0.59349  0.09189  0.36651  1.0000
  C   C4526     1.0  0.73764  0.03613  0.30676  1.0000
  H   H3627     1.0  0.72310  0.05014  0.20849  1.0000
  C   C4527     1.0  0.69148  0.22699  0.06862  1.0000
  C   C4528     1.0  0.69307  0.21838  0.09753  1.0000
  C   C4529     1.0  0.61038  0.22287  0.29529  1.0000
  C   C4530     1.0  0.70990  0.21945  0.46261  1.0000
  H   H3628     1.0  0.58876  0.08318  0.37740  1.0000
  H   H3629     1.0  0.63522  0.19065  0.26867  1.0000
  H   H3630     1.0  0.69020  0.15659  0.32027  1.0000
  C   C4531     1.0  0.63093  0.22523  0.44585  1.0000
  H   H3631     1.0  0.67015  0.09611  0.31614  1.0000
  P   P153      1.0  0.61269  0.12902  0.31987  1.0000
  H   H3632     1.0  0.64153  0.10585  0.33098  1.0000
  S   S608      1.0  0.73072  0.17199  0.00556  1.0000
  H   H3633     1.0  0.67775  0.17344  0.01975  1.0000
  H   H3634     1.0  0.51421  0.21536  0.22513  1.0000
  C   C4532     1.0  0.71456  0.22708  0.47241  1.0000
  H   H3635     1.0  0.73470  0.14441  0.38767  1.0000
  H   H3636     1.0  0.64084  0.16484  0.00439  1.0000
  Fe  Fe304     1.0  0.62917  0.22145  0.39209  1.0000
  C   C4533     1.0  0.72478  0.13571  0.07409  1.0000
  H   H3637     1.0  0.70505  0.04773  0.24991  1.0000
  C   C4534     1.0  0.68299  0.18743  0.99470  1.0000
  H   H3638     1.0  0.71518  0.21057  0.41278  1.0000
  C   C4535     1.0  0.72982  0.18345  0.33906  1.0000
  C   C4536     1.0  0.62112  0.13741  0.99004  1.0000
  C   C4537     1.0  0.70032  0.12399  0.46368  1.0000
  H   H3639     1.0  0.70881  0.13014  0.43742  1.0000
  C   C4538     1.0  0.72574  0.03619  0.34052  1.0000
  H   H3640     1.0  0.71987  0.02108  0.31072  1.0000
  C   C4539     1.0  0.69693  0.12620  0.98723  1.0000
  H   H3641     1.0  0.67779  0.22467  0.26119  1.0000
  H   H3642     1.0  0.73287  0.09732  0.27745  1.0000
  H   H3643     1.0  0.57755  0.22602  0.15859  1.0000
  C   C4540     1.0  0.71408  0.19391  0.34100  1.0000
  C   C4541     1.0  0.53031  0.22905  0.20556  1.0000
  H   H3644     1.0  0.69285  0.22383  0.05698  1.0000
  C   C4542     1.0  0.73259  0.20655  0.39014  1.0000
  C   C4543     1.0  0.73841  0.07388  0.17929  1.0000
  C   C4544     1.0  0.72514  0.02766  0.31624  1.0000
  C   C4545     1.0  0.72022  0.00975  0.27205  1.0000
  H   H3645     1.0  0.71959  0.99686  0.27441  1.0000
  H   H3646     1.0  0.73126  0.19432  0.45084  1.0000
  C   C4546     1.0  0.72205  0.04295  0.26571  1.0000
  H   H3647     1.0  0.61548  0.12989  0.98598  1.0000
  H   H3648     1.0  0.68532  0.22118  0.17569  1.0000
  C   C4547     1.0  0.72476  0.16114  0.43229  1.0000
  H   H3649     1.0  0.73344  0.11009  0.21712  1.0000
  H   H3650     1.0  0.72842  0.06951  0.29148  1.0000
  H   H3651     1.0  0.72935  0.18206  0.21961  1.0000
  C   C4548     1.0  0.73397  0.04484  0.21377  1.0000
  H   H3652     1.0  0.72264  0.05583  0.26299  1.0000
  H   H3653     1.0  0.73229  0.17290  0.33348  1.0000
  C   C4549     1.0  0.72772  0.21051  0.40569  1.0000
  H   H3654     1.0  0.68979  0.22776  0.22780  1.0000
  Fe  Fe305     1.0  0.73617  0.12419  0.01600  1.0000
  H   H3655     1.0  0.71918  0.22265  0.98486  1.0000
  H   H3656     1.0  0.72315  0.15192  0.42693  1.0000
  C   C4550     1.0  0.73565  0.07326  0.05149  1.0000
  C   C4551     1.0  0.48922  0.19833  0.27209  1.0000
  C   C4552     1.0  0.73026  0.01427  0.27953  1.0000
  C   C4553     1.0  0.68041  0.22849  0.44155  1.0000
  C   C4554     1.0  0.73431  0.14683  0.07315  1.0000
  C   C4555     1.0  0.73138  0.03091  0.27629  1.0000
  H   H3657     1.0  0.60587  0.22991  0.16408  1.0000
  H   H3658     1.0  0.59785  0.23014  0.46511  1.0000
  P   P154      1.0  0.73549  0.07742  0.21114  1.0000
  C   C4556     1.0  0.73802  0.18476  0.22500  1.0000
  C   C4557     1.0  0.73805  0.07092  0.28035  1.0000
  H   H3659     1.0  0.64527  0.12976  0.97523  1.0000
  C   C4558     1.0  0.67870  0.17604  0.97391  1.0000
  H   H3660     1.0  0.63589  0.23119  0.46653  1.0000
  C   C4559     1.0  0.58682  0.23119  0.33889  1.0000
  C   C4560     1.0  0.62783  0.23124  0.42986  1.0000
  C   C4561     1.0  0.51014  0.19698  0.69828  1.0000
  H   H3661     1.0  0.67318  0.19422  0.89279  1.0000
  C   C4562     1.0  0.57817  0.19844  0.67894  1.0000
  S   S609      1.0  0.54025  0.21430  0.58861  1.0000
  H   H3662     1.0  0.61808  0.13607  0.55514  1.0000
  H   H3663     1.0  0.71213  0.00109  0.71148  1.0000
  H   H3664     1.0  0.69209  0.13018  0.92725  1.0000
  C   C4563     1.0  0.68445  0.16882  0.47867  1.0000
  S   S610      1.0  0.57477  0.19117  0.61416  1.0000
  C   C4564     1.0  0.72413  0.12645  0.70525  1.0000
  C   C4565     1.0  0.52564  0.18587  0.69807  1.0000
  C   C4566     1.0  0.50772  0.22867  0.73392  1.0000
  H   H3665     1.0  0.69739  0.16253  0.47702  1.0000
  H   H3666     1.0  0.53167  0.20428  0.66275  1.0000
  H   H3667     1.0  0.71560  0.99153  0.76723  1.0000
  C   C4567     1.0  0.68341  0.07285  0.66535  1.0000
  H   H3668     1.0  0.51651  0.21566  0.55561  1.0000
  S   S611      1.0  0.65725  0.20090  0.51649  1.0000
  C   C4568     1.0  0.68138  0.10910  0.77577  1.0000
  H   H3669     1.0  0.60243  0.20735  0.70589  1.0000
  S   S612      1.0  0.71030  0.02813  0.77490  1.0000
  Fe  Fe306     1.0  0.69552  0.05105  0.81103  1.0000
  S   S613      1.0  0.65635  0.20931  0.76294  1.0000
  S   S614      1.0  0.68806  0.06526  0.83154  1.0000
  Fe  Fe307     1.0  0.69321  0.05287  0.77618  1.0000
  S   S615      1.0  0.68710  0.06774  0.75193  1.0000
  S   S616      1.0  0.67747  0.04377  0.80100  1.0000
  H   H3670     1.0  0.71618  0.98696  0.85532  1.0000
  S   S617      1.0  0.71529  0.15895  0.88058  1.0000
  H   H3671     1.0  0.69442  0.23012  0.81118  1.0000
  C   C4569     1.0  0.69417  0.99253  0.75887  1.0000
  S   S618      1.0  0.70762  0.12407  0.87876  1.0000
  C   C4570     1.0  0.71058  0.22206  0.48960  1.0000
  Fe  Fe308     1.0  0.70084  0.15120  0.86713  1.0000
  S   S619      1.0  0.67379  0.16266  0.86753  1.0000
  Fe  Fe309     1.0  0.73638  0.15525  0.85882  1.0000
  S   S620      1.0  0.72106  0.15002  0.84434  1.0000
  C   C4571     1.0  0.63810  0.98739  0.74276  1.0000
  C   C4572     1.0  0.71863  0.16091  0.93677  1.0000
  S   S621      1.0  0.68957  0.19271  0.77856  1.0000
  S   S622      1.0  0.65211  0.21742  0.80650  1.0000
  Fe  Fe310     1.0  0.67966  0.18993  0.75841  1.0000
  S   S623      1.0  0.67820  0.16501  0.75621  1.0000
  S   S624      1.0  0.72640  0.21545  0.75898  1.0000
  C   C4573     1.0  0.71904  0.10040  0.67307  1.0000
  Fe  Fe311     1.0  0.59641  0.14382  0.69726  1.0000
  S   S625      1.0  0.61884  0.15412  0.68356  1.0000
  S   S626      1.0  0.57215  0.15298  0.68884  1.0000
  Fe  Fe312     1.0  0.61402  0.12045  0.72392  1.0000
  S   S627      1.0  0.63780  0.12909  0.71227  1.0000
  S   S628      1.0  0.61277  0.10097  0.74754  1.0000
  Fe  Fe313     1.0  0.62151  0.15441  0.70850  1.0000
  S   S629      1.0  0.62730  0.17696  0.71174  1.0000
  Fe  Fe314     1.0  0.63276  0.12768  0.68877  1.0000
  S   S630      1.0  0.65305  0.11671  0.66969  1.0000
  S   S631      1.0  0.59794  0.14611  0.72208  1.0000
  S   S632      1.0  0.61015  0.11713  0.70051  1.0000
  H   H3672     1.0  0.67999  0.17657  0.96098  1.0000
  H   H3673     1.0  0.58575  0.17538  0.74387  1.0000
  C   C4574     1.0  0.68492  0.15494  0.64603  1.0000
  C   C4575     1.0  0.67312  0.15622  0.66071  1.0000
  C   C4576     1.0  0.66326  0.14453  0.66787  1.0000
  C   C4577     1.0  0.66533  0.13134  0.66049  1.0000
  C   C4578     1.0  0.67702  0.13006  0.64573  1.0000
  C   C4579     1.0  0.68673  0.14194  0.63845  1.0000
  H   H3674     1.0  0.67176  0.16611  0.66669  1.0000
  H   H3675     1.0  0.65444  0.14549  0.67938  1.0000
  H   H3676     1.0  0.67854  0.11996  0.63989  1.0000
  H   H3677     1.0  0.69565  0.14091  0.62709  1.0000
  C   C4580     1.0  0.66312  0.16817  0.74493  1.0000
  C   C4581     1.0  0.65717  0.15482  0.74431  1.0000
  C   C4582     1.0  0.64579  0.15738  0.73444  1.0000
  C   C4583     1.0  0.64018  0.17332  0.72549  1.0000
  C   C4584     1.0  0.64539  0.18672  0.72699  1.0000
  C   C4585     1.0  0.65714  0.18410  0.73634  1.0000
  H   H3678     1.0  0.66159  0.14249  0.75115  1.0000
  H   H3679     1.0  0.64144  0.14704  0.73376  1.0000
  H   H3680     1.0  0.64077  0.19911  0.72041  1.0000
  H   H3681     1.0  0.66193  0.19440  0.73638  1.0000
  H   H3682     1.0  0.67810  0.21588  0.84102  1.0000
  C   C4586     1.0  0.66831  0.17694  0.84980  1.0000
  C   C4587     1.0  0.65160  0.18483  0.85050  1.0000
  C   C4588     1.0  0.64684  0.19742  0.83731  1.0000
  C   C4589     1.0  0.65865  0.20180  0.82300  1.0000
  C   C4590     1.0  0.67535  0.19380  0.82215  1.0000
  C   C4591     1.0  0.68020  0.18147  0.83559  1.0000
  H   H3683     1.0  0.64236  0.18149  0.86150  1.0000
  H   H3684     1.0  0.63394  0.20360  0.83812  1.0000
  H   H3685     1.0  0.68463  0.19747  0.81140  1.0000
  H   H3686     1.0  0.69315  0.17575  0.83507  1.0000
  H   H3687     1.0  0.62086  0.19148  0.75910  1.0000
  H   H3688     1.0  0.68836  0.19795  0.96859  1.0000
  C   C4592     1.0  0.66617  0.07589  0.75128  1.0000
  C   C4593     1.0  0.66214  0.08302  0.73587  1.0000
  C   C4594     1.0  0.64563  0.09000  0.73479  1.0000
  C   C4595     1.0  0.63315  0.09059  0.74911  1.0000
  C   C4596     1.0  0.63712  0.08325  0.76457  1.0000
  C   C4597     1.0  0.65362  0.07563  0.76565  1.0000
  H   H3689     1.0  0.67180  0.08315  0.72472  1.0000
  H   H3690     1.0  0.64254  0.09493  0.72284  1.0000
  H   H3691     1.0  0.62746  0.08358  0.77568  1.0000
  H   H3692     1.0  0.65661  0.06991  0.77759  1.0000
  C   C4598     1.0  0.70142  0.07689  0.83315  1.0000
  C   C4599     1.0  0.69586  0.08722  0.84455  1.0000
  C   C4600     1.0  0.70647  0.09600  0.84663  1.0000
  C   C4601     1.0  0.72281  0.09440  0.83744  1.0000
  H   H3693     1.0  0.67073  0.01093  0.83944  1.0000
  C   C4602     1.0  0.71761  0.07570  0.82360  1.0000
  H   H3694     1.0  0.68334  0.08830  0.85194  1.0000
  H   H3695     1.0  0.70214  0.10365  0.85566  1.0000
  H   H3696     1.0  0.65722  0.21032  0.69106  1.0000
  C   C4603     1.0  0.60068  0.15750  0.56254  1.0000
  C   C4604     1.0  0.68629  0.98443  0.75241  1.0000
  C   C4605     1.0  0.73555  0.20368  0.97281  1.0000
  S   S633      1.0  0.69757  0.16940  0.63787  1.0000
  H   H3697     1.0  0.66304  0.00526  0.79631  1.0000
  H   H3698     1.0  0.55757  0.21098  0.64369  1.0000
  H   H3699     1.0  0.72198  0.06790  0.81471  1.0000
  C   C4606     1.0  0.59511  0.22747  0.50581  1.0000
  C   C4607     1.0  0.69552  0.04652  0.68129  1.0000
  C   C4608     1.0  0.67151  0.18966  0.52899  1.0000
  C   C4609     1.0  0.67827  0.17302  0.52843  1.0000
  C   C4610     1.0  0.68947  0.16336  0.53822  1.0000
  C   C4611     1.0  0.61205  0.14888  0.55108  1.0000
  C   C4612     1.0  0.67609  0.19666  0.53946  1.0000
  H   H3700     1.0  0.67484  0.16757  0.52037  1.0000
  H   H3701     1.0  0.69460  0.15047  0.53767  1.0000
  H   H3702     1.0  0.67084  0.20951  0.54003  1.0000
  C   C4613     1.0  0.56983  0.20205  0.69433  1.0000
  H   H3703     1.0  0.55682  0.20181  0.69864  1.0000
  C   C4614     1.0  0.70144  0.21615  0.86690  1.0000
  H   H3704     1.0  0.68678  0.14754  0.72332  1.0000
  H   H3705     1.0  0.71000  0.14965  0.73821  1.0000
  C   C4615     1.0  0.67250  0.16055  0.48973  1.0000
  H   H3706     1.0  0.61670  0.20152  0.67872  1.0000
  C   C4616     1.0  0.72251  0.22550  0.77526  1.0000
  C   C4617     1.0  0.59045  0.18545  0.74477  1.0000
  C   C4618     1.0  0.57383  0.18052  0.63489  1.0000
  C   C4619     1.0  0.55874  0.17807  0.64561  1.0000
  C   C4620     1.0  0.55834  0.16955  0.66212  1.0000
  C   C4621     1.0  0.57302  0.16335  0.66798  1.0000
  C   C4622     1.0  0.58806  0.16572  0.65719  1.0000
  C   C4623     1.0  0.58847  0.17428  0.64073  1.0000
  H   H3707     1.0  0.54742  0.18259  0.64113  1.0000
  H   H3708     1.0  0.54665  0.16768  0.67031  1.0000
  H   H3709     1.0  0.59947  0.16074  0.66136  1.0000
  H   H3710     1.0  0.60020  0.17588  0.63247  1.0000
  H   H3711     1.0  0.65164  0.17211  0.95628  1.0000
  S   S634      1.0  0.70959  0.06188  0.78622  1.0000
  C   C4624     1.0  0.68742  0.18690  0.54937  1.0000
  H   H3712     1.0  0.49438  0.11586  0.71707  1.0000
  H   H3713     1.0  0.73446  0.02322  0.83250  1.0000
  H   H3714     1.0  0.50747  0.15660  0.59837  1.0000
  C   C4625     1.0  0.68218  0.21363  0.85236  1.0000
  H   H3715     1.0  0.57170  0.19515  0.67169  1.0000
  H   H3716     1.0  0.67574  0.08960  0.61522  1.0000
  C   C4626     1.0  0.72507  0.12786  0.66341  1.0000
  C   C4627     1.0  0.68049  0.20471  0.69833  1.0000
  C   C4628     1.0  0.65822  0.98499  0.78938  1.0000
  C   C4629     1.0  0.53205  0.18227  0.75441  1.0000
  H   H3717     1.0  0.72611  0.18417  0.53263  1.0000
  C   C4630     1.0  0.69451  0.19247  0.70150  1.0000
  S   S635      1.0  0.71265  0.02593  0.81263  1.0000
  H   H3718     1.0  0.70636  0.12470  0.58927  1.0000
  C   C4631     1.0  0.49699  0.15813  0.60867  1.0000
  C   C4632     1.0  0.70887  0.05549  0.88392  1.0000
  C   C4633     1.0  0.53666  0.21386  0.66427  1.0000
  C   C4634     1.0  0.67560  0.09477  0.78435  1.0000
  H   H3719     1.0  0.67379  0.98988  0.75068  1.0000
  C   C4635     1.0  0.67378  0.15305  0.92483  1.0000
  C   C4636     1.0  0.52658  0.16901  0.70523  1.0000
  H   H3720     1.0  0.53858  0.16052  0.70483  1.0000
  H   H3721     1.0  0.72650  0.20297  0.96660  1.0000
  C   C4637     1.0  0.58676  0.21852  0.55965  1.0000
  C   C4638     1.0  0.49227  0.22688  0.67843  1.0000
  C   C4639     1.0  0.55516  0.22349  0.53972  1.0000
  C   C4640     1.0  0.61923  0.22300  0.54662  1.0000
  H   H3722     1.0  0.71533  0.15650  0.91463  1.0000
  C   C4641     1.0  0.70927  0.22292  0.78871  1.0000
  C   C4642     1.0  0.59908  0.22129  0.61520  1.0000
  H   H3723     1.0  0.58957  0.20313  0.47679  1.0000
  H   H3724     1.0  0.69093  0.19225  0.55748  1.0000
  C   C4643     1.0  0.66943  0.09219  0.80139  1.0000
  C   C4644     1.0  0.64984  0.15357  0.79116  1.0000
  C   C4645     1.0  0.65680  0.15304  0.80426  1.0000
  C   C4646     1.0  0.65102  0.16629  0.81238  1.0000
  P   P155      1.0  0.67202  0.13513  0.81153  1.0000
  C   C4647     1.0  0.69238  0.13935  0.80731  1.0000
  C   C4648     1.0  0.66430  0.12940  0.83354  1.0000
  C   C4649     1.0  0.67344  0.12952  0.84466  1.0000
  C   C4650     1.0  0.66690  0.12590  0.86167  1.0000
  C   C4651     1.0  0.65120  0.12223  0.86771  1.0000
  C   C4652     1.0  0.64194  0.12228  0.85673  1.0000
  C   C4653     1.0  0.64840  0.12601  0.83969  1.0000
  C   C4654     1.0  0.69438  0.15530  0.80605  1.0000
  C   C4655     1.0  0.71016  0.15811  0.80398  1.0000
  C   C4656     1.0  0.72403  0.14499  0.80324  1.0000
  C   C4657     1.0  0.72213  0.12905  0.80450  1.0000
  C   C4658     1.0  0.70639  0.12622  0.80657  1.0000
  C   C4659     1.0  0.67407  0.11878  0.80129  1.0000
  C   C4660     1.0  0.68089  0.12095  0.78423  1.0000
  C   C4661     1.0  0.66877  0.10408  0.80990  1.0000
  C   C4662     1.0  0.66591  0.20775  0.65044  1.0000
  H   H3725     1.0  0.65358  0.14358  0.78475  1.0000
  H   H3726     1.0  0.65581  0.16602  0.82283  1.0000
  H   H3727     1.0  0.68552  0.13260  0.84034  1.0000
  H   H3728     1.0  0.67392  0.12627  0.87014  1.0000
  H   H3729     1.0  0.64616  0.11955  0.88090  1.0000
  H   H3730     1.0  0.62970  0.11959  0.86139  1.0000
  H   H3731     1.0  0.64099  0.12631  0.83128  1.0000
  H   H3732     1.0  0.68378  0.16552  0.80702  1.0000
  H   H3733     1.0  0.71154  0.17042  0.80340  1.0000
  C   C4663     1.0  0.60840  0.17358  0.52929  1.0000
  H   H3734     1.0  0.62503  0.15033  0.52569  1.0000
  H   H3735     1.0  0.70509  0.11365  0.80815  1.0000
  H   H3736     1.0  0.68525  0.13212  0.77741  1.0000
  H   H3737     1.0  0.66433  0.10154  0.82316  1.0000
  C   C4664     1.0  0.73493  0.17241  0.65245  1.0000
  Fe  Fe315     1.0  0.66748  0.21364  0.78154  1.0000
  H   H3738     1.0  0.53914  0.20478  0.75272  1.0000
  P   P156      1.0  0.56851  0.20657  0.72552  1.0000
  H   H3739     1.0  0.51936  0.20880  0.72121  1.0000
  H   H3740     1.0  0.63467  0.19024  0.81328  1.0000
  H   H3741     1.0  0.57018  0.17436  0.71871  1.0000
  C   C4665     1.0  0.72385  0.17088  0.66777  1.0000
  C   C4666     1.0  0.61799  0.12768  0.64903  1.0000
  C   C4667     1.0  0.60254  0.13080  0.64519  1.0000
  C   C4668     1.0  0.60035  0.13930  0.62935  1.0000
  C   C4669     1.0  0.61357  0.14482  0.61737  1.0000
  C   C4670     1.0  0.62913  0.14185  0.62119  1.0000
  C   C4671     1.0  0.63121  0.13311  0.63706  1.0000
  P   P157      1.0  0.64656  0.14879  0.60605  1.0000
  C   C4672     1.0  0.65192  0.16546  0.61100  1.0000
  C   C4673     1.0  0.66458  0.13185  0.60476  1.0000
  C   C4674     1.0  0.68036  0.13509  0.59693  1.0000
  C   C4675     1.0  0.69429  0.12205  0.59562  1.0000
  C   C4676     1.0  0.61596  0.15693  0.53448  1.0000
  C   C4677     1.0  0.67701  0.10230  0.61007  1.0000
  C   C4678     1.0  0.66299  0.11530  0.61110  1.0000
  C   C4679     1.0  0.64813  0.16754  0.62730  1.0000
  C   C4680     1.0  0.65272  0.18035  0.63077  1.0000
  C   C4681     1.0  0.66104  0.19120  0.61806  1.0000
  C   C4682     1.0  0.66468  0.18935  0.60181  1.0000
  C   C4683     1.0  0.66021  0.17653  0.59828  1.0000
  C   C4684     1.0  0.64146  0.15739  0.58608  1.0000
  C   C4685     1.0  0.65028  0.15042  0.57241  1.0000
  C   C4686     1.0  0.64740  0.15847  0.55668  1.0000
  C   C4687     1.0  0.63582  0.17350  0.55450  1.0000
  C   C4688     1.0  0.62667  0.18019  0.56814  1.0000
  C   C4689     1.0  0.62956  0.17229  0.58383  1.0000
  H   H3742     1.0  0.61972  0.12126  0.66135  1.0000
  H   H3743     1.0  0.59215  0.12704  0.65464  1.0000
  H   H3744     1.0  0.58823  0.14214  0.62652  1.0000
  H   H3745     1.0  0.61140  0.15149  0.60532  1.0000
  H   H3746     1.0  0.64315  0.13052  0.64013  1.0000
  H   H3747     1.0  0.68203  0.14764  0.59162  1.0000
  H   H3748     1.0  0.58720  0.22728  0.73179  1.0000
  H   H3749     1.0  0.55276  0.15396  0.73077  1.0000
  C   C4690     1.0  0.70809  0.05336  0.68226  1.0000
  H   H3750     1.0  0.65098  0.11235  0.61686  1.0000
  H   H3751     1.0  0.64197  0.15921  0.63745  1.0000
  H   H3752     1.0  0.65020  0.18158  0.64343  1.0000
  H   H3753     1.0  0.66495  0.20086  0.62076  1.0000
  H   H3754     1.0  0.67126  0.19766  0.59196  1.0000
  H   H3755     1.0  0.66349  0.17519  0.58559  1.0000
  H   H3756     1.0  0.65975  0.13912  0.57371  1.0000
  H   H3757     1.0  0.65454  0.15333  0.54609  1.0000
  H   H3758     1.0  0.63406  0.18005  0.54222  1.0000
  H   H3759     1.0  0.61751  0.19166  0.56662  1.0000
  H   H3760     1.0  0.62274  0.17799  0.59419  1.0000
  S   S636      1.0  0.69392  0.20697  0.73852  1.0000
  P   P158      1.0  0.71724  0.22573  0.86766  1.0000
  S   S637      1.0  0.72167  0.14452  0.60142  1.0000
  H   H3761     1.0  0.61929  0.21201  0.52718  1.0000
  C   C4691     1.0  0.59560  0.21396  0.54470  1.0000
  H   H3762     1.0  0.66869  0.19542  0.65802  1.0000
  Fe  Fe316     1.0  0.71480  0.16607  0.61362  1.0000
  S   S638      1.0  0.69376  0.99234  0.80786  1.0000
  C   C4692     1.0  0.67944  0.20139  0.88155  1.0000
  H   H3763     1.0  0.69971  0.03335  0.88921  1.0000
  Fe  Fe317     1.0  0.51617  0.22060  0.60658  1.0000
  H   H3764     1.0  0.62530  0.22574  0.78504  1.0000
  H   H3765     1.0  0.68958  0.12695  0.95696  1.0000
  H   H3766     1.0  0.72079  0.07625  0.87598  1.0000
  C   C4693     1.0  0.63783  0.16727  0.78593  1.0000
  Fe  Fe318     1.0  0.70144  0.21187  0.75924  1.0000
  C   C4694     1.0  0.71093  0.01931  0.72477  1.0000
  S   S639      1.0  0.70969  0.18521  0.59094  1.0000
  C   C4695     1.0  0.68319  0.05624  0.67285  1.0000
  H   H3767     1.0  0.67338  0.05097  0.67225  1.0000
  C   C4696     1.0  0.60340  0.18171  0.75293  1.0000
  H   H3768     1.0  0.73593  0.12817  0.69725  1.0000
  H   H3769     1.0  0.73532  0.11345  0.94842  1.0000
  C   C4697     1.0  0.70604  0.10773  0.72126  1.0000
  C   C4698     1.0  0.69356  0.12122  0.72540  1.0000
  C   C4699     1.0  0.69642  0.13728  0.71966  1.0000
  C   C4700     1.0  0.71158  0.14011  0.70923  1.0000
  C   C4701     1.0  0.73140  0.17570  0.74164  1.0000
  C   C4702     1.0  0.72330  0.16524  0.71745  1.0000
  H   H3770     1.0  0.61586  0.19820  0.62235  1.0000
  C   C4703     1.0  0.73725  0.18217  0.72492  1.0000
  P   P159      1.0  0.71528  0.16094  0.70222  1.0000
  H   H3771     1.0  0.56337  0.18124  0.54842  1.0000
  C   C4704     1.0  0.68333  0.13936  0.93363  1.0000
  H   H3772     1.0  0.72255  0.19979  0.55394  1.0000
  C   C4705     1.0  0.60436  0.21070  0.74594  1.0000
  H   H3773     1.0  0.70376  0.09528  0.72577  1.0000
  H   H3774     1.0  0.65994  0.18175  0.68831  1.0000
  C   C4706     1.0  0.59131  0.20978  0.48492  1.0000
  H   H3775     1.0  0.73024  0.17838  0.64134  1.0000
  C   C4707     1.0  0.70834  0.07004  0.67479  1.0000
  C   C4708     1.0  0.69574  0.21956  0.85234  1.0000
  C   C4709     1.0  0.52819  0.22296  0.67650  1.0000
  C   C4710     1.0  0.59136  0.21453  0.73786  1.0000
  C   C4711     1.0  0.66064  0.16297  0.95003  1.0000
  H   H3776     1.0  0.68162  0.11923  0.73305  1.0000
  C   C4712     1.0  0.69330  0.99729  0.84728  1.0000
  H   H3777     1.0  0.62329  0.19128  0.78961  1.0000
  H   H3778     1.0  0.67896  0.21707  0.70017  1.0000
  H   H3779     1.0  0.72422  0.01658  0.72376  1.0000
  C   C4713     1.0  0.67391  0.20477  0.86701  1.0000
  C   C4714     1.0  0.59305  0.17409  0.55738  1.0000
  H   H3780     1.0  0.58448  0.18071  0.56649  1.0000
  Fe  Fe319     1.0  0.55231  0.21139  0.60944  1.0000
  C   C4715     1.0  0.60354  0.20202  0.68284  1.0000
  C   C4716     1.0  0.59499  0.19850  0.67313  1.0000
  H   H3781     1.0  0.63291  0.16750  0.77562  1.0000
  H   H3782     1.0  0.70163  0.22693  0.84101  1.0000
  H   H3783     1.0  0.53709  0.19005  0.69247  1.0000
  C   C4717     1.0  0.71946  0.15091  0.92602  1.0000
  H   H3784     1.0  0.51300  0.15001  0.71850  1.0000
  C   C4718     1.0  0.63245  0.18055  0.79381  1.0000
  H   H3785     1.0  0.67375  0.08052  0.65898  1.0000
  H   H3786     1.0  0.66534  0.08085  0.80810  1.0000
  H   H3787     1.0  0.60144  0.19540  0.66132  1.0000
  P   P160      1.0  0.50868  0.21901  0.68984  1.0000
  H   H3788     1.0  0.69679  0.20491  0.89310  1.0000
  C   C4719     1.0  0.70244  0.20904  0.49699  1.0000
  C   C4720     1.0  0.66242  0.16486  0.93304  1.0000
  C   C4721     1.0  0.69408  0.17018  0.54873  1.0000
  C   C4722     1.0  0.49673  0.17408  0.71367  1.0000
  H   H3789     1.0  0.68491  0.16028  0.69300  1.0000
  S   S640      1.0  0.49479  0.20805  0.61232  1.0000
  C   C4723     1.0  0.68671  0.12220  0.47687  1.0000
  H   H3790     1.0  0.52822  0.15878  0.75367  1.0000
  C   C4724     1.0  0.71803  0.15836  0.73427  1.0000
  C   C4725     1.0  0.63998  0.98366  0.72752  1.0000
  C   C4726     1.0  0.70925  0.13453  0.67173  1.0000
  C   C4727     1.0  0.69852  0.12414  0.68120  1.0000
  C   C4728     1.0  0.70339  0.10712  0.68191  1.0000
  H   H3791     1.0  0.68602  0.11107  0.76256  1.0000
  H   H3792     1.0  0.66027  0.12429  0.48405  1.0000
  Fe  Fe320     1.0  0.71883  0.16389  0.57821  1.0000
  H   H3793     1.0  0.57419  0.21690  0.56494  1.0000
  C   C4729     1.0  0.72891  0.06127  0.72281  1.0000
  C   C4730     1.0  0.69266  0.10568  0.60234  1.0000
  H   H3794     1.0  0.69894  0.06105  0.89294  1.0000
  H   H3795     1.0  0.73440  0.13123  0.96710  1.0000
  C   C4731     1.0  0.55554  0.19157  0.73427  1.0000
  H   H3796     1.0  0.70524  0.14777  0.67074  1.0000
  H   H3797     1.0  0.68636  0.12928  0.68792  1.0000
  H   H3798     1.0  0.69489  0.09926  0.68929  1.0000
  C   C4732     1.0  0.73661  0.09056  0.75198  1.0000
  C   C4733     1.0  0.71045  0.98854  0.89472  1.0000
  H   H3799     1.0  0.67521  0.15445  0.91165  1.0000
  H   H3800     1.0  0.59794  0.15143  0.57549  1.0000
  C   C4734     1.0  0.54199  0.19397  0.74756  1.0000
  Fe  Fe321     1.0  0.69607  0.01936  0.80041  1.0000
  C   C4735     1.0  0.55649  0.19393  0.54752  1.0000
  S   S641      1.0  0.52831  0.21562  0.62778  1.0000
  H   H3801     1.0  0.72981  0.20834  0.84011  1.0000
  C   C4736     1.0  0.70606  0.99771  0.85414  1.0000
  H   H3802     1.0  0.67612  0.08555  0.77782  1.0000
  H   H3803     1.0  0.66323  0.20044  0.86713  1.0000
  C   C4737     1.0  0.70999  0.98512  0.76186  1.0000
  H   H3804     1.0  0.72813  0.18975  0.87810  1.0000
  C   C4738     1.0  0.56462  0.20721  0.54133  1.0000
  C   C4739     1.0  0.72550  0.13375  0.93013  1.0000
  C   C4740     1.0  0.53787  0.22649  0.54475  1.0000
  C   C4741     1.0  0.73102  0.11545  0.76226  1.0000
  C   C4742     1.0  0.52989  0.21326  0.55137  1.0000
  H   H3805     1.0  0.68790  0.00435  0.76207  1.0000
  H   H3806     1.0  0.73272  0.11873  0.80465  1.0000
  C   C4743     1.0  0.49861  0.16312  0.62209  1.0000
  C   C4744     1.0  0.65580  0.16872  0.49261  1.0000
  H   H3807     1.0  0.61016  0.22032  0.74595  1.0000
  C   C4745     1.0  0.73124  0.19557  0.88612  1.0000
  C   C4746     1.0  0.69601  0.07969  0.66617  1.0000
  C   C4747     1.0  0.53579  0.16793  0.74827  1.0000
  Fe  Fe322     1.0  0.72542  0.03639  0.78709  1.0000
  H   H3808     1.0  0.72066  0.05861  0.73476  1.0000
  C   C4748     1.0  0.72275  0.06651  0.70837  1.0000
  C   C4749     1.0  0.61201  0.21596  0.53840  1.0000
  C   C4750     1.0  0.63895  0.17999  0.80711  1.0000
  C   C4751     1.0  0.50395  0.22888  0.70700  1.0000
  H   H3809     1.0  0.64662  0.16249  0.50151  1.0000
  C   C4752     1.0  0.72826  0.08434  0.82582  1.0000
  C   C4753     1.0  0.72118  0.06405  0.87442  1.0000
  H   H3810     1.0  0.73337  0.13595  0.65609  1.0000
  C   C4754     1.0  0.70411  0.01064  0.71783  1.0000
  C   C4755     1.0  0.58426  0.20192  0.73725  1.0000
  C   C4756     1.0  0.54955  0.16522  0.73538  1.0000
  H   H3811     1.0  0.53296  0.18674  0.55777  1.0000
  C   C4757     1.0  0.55137  0.21750  0.65354  1.0000
  C   C4758     1.0  0.72199  0.16365  0.74631  1.0000
  Fe  Fe323     1.0  0.72876  0.12325  0.85659  1.0000
  C   C4759     1.0  0.66985  0.18484  0.69152  1.0000
  H   H3812     1.0  0.59313  0.21610  0.60892  1.0000
  C   C4760     1.0  0.61188  0.21120  0.62280  1.0000
  C   C4761     1.0  0.69302  0.20723  0.88157  1.0000
  C   C4762     1.0  0.59534  0.20526  0.69840  1.0000
  C   C4763     1.0  0.68182  0.13757  0.95056  1.0000
  H   H3813     1.0  0.72286  0.12711  0.76449  1.0000
  H   H3814     1.0  0.52159  0.18420  0.76463  1.0000
  H   H3815     1.0  0.63970  0.21127  0.66022  1.0000
  C   C4764     1.0  0.66750  0.99257  0.79504  1.0000
  C   C4765     1.0  0.61956  0.21788  0.63094  1.0000
  H   H3816     1.0  0.63820  0.19177  0.48708  1.0000
  C   C4766     1.0  0.55943  0.17691  0.72849  1.0000
  H   H3817     1.0  0.62931  0.20981  0.63681  1.0000
  C   C4767     1.0  0.73351  0.07008  0.69290  1.0000
  P   P161      1.0  0.58691  0.20375  0.53459  1.0000
  C   C4768     1.0  0.72884  0.20417  0.54135  1.0000
  H   H3818     1.0  0.70354  0.09564  0.60145  1.0000
  C   C4769     1.0  0.59659  0.18216  0.54066  1.0000
  H   H3819     1.0  0.60855  0.16892  0.75817  1.0000
  H   H3820     1.0  0.68199  0.00701  0.71401  1.0000
  H   H3821     1.0  0.64768  0.99124  0.70113  1.0000
  H   H3822     1.0  0.69545  0.03362  0.68693  1.0000
  H   H3823     1.0  0.69146  0.20716  0.63817  1.0000
  C   C4770     1.0  0.72137  0.11033  0.71129  1.0000
  H   H3824     1.0  0.70383  0.19577  0.70536  1.0000
  C   C4771     1.0  0.72815  0.21290  0.88339  1.0000
  C   C4772     1.0  0.59415  0.22527  0.56798  1.0000
  C   C4773     1.0  0.66825  0.20094  0.69316  1.0000
  C   C4774     1.0  0.57849  0.20501  0.70442  1.0000
  C   C4775     1.0  0.73009  0.13674  0.95575  1.0000
  S   S642      1.0  0.72298  0.16695  0.96466  1.0000
  C   C4776     1.0  0.65103  0.18517  0.48445  1.0000
  C   C4777     1.0  0.51216  0.16309  0.71295  1.0000
  S   S643      1.0  0.70825  0.15701  0.56057  1.0000
  C   C4778     1.0  0.73259  0.22866  0.84861  1.0000
  C   C4779     1.0  0.69635  0.17627  0.69967  1.0000
  C   C4780     1.0  0.68000  0.02536  0.85022  1.0000
  C   C4781     1.0  0.68031  0.01113  0.84524  1.0000
  H   H3825     1.0  0.61208  0.17976  0.51653  1.0000
  H   H3826     1.0  0.73101  0.09988  0.70795  1.0000
  C   C4782     1.0  0.70583  0.01196  0.85919  1.0000
  C   C4783     1.0  0.69269  0.02580  0.85718  1.0000
  C   C4784     1.0  0.55566  0.22709  0.72613  1.0000
  C   C4785     1.0  0.70930  0.03987  0.88169  1.0000
  H   H3827     1.0  0.71478  0.11012  0.75044  1.0000
  C   C4786     1.0  0.61035  0.19435  0.75348  1.0000
  C   C4787     1.0  0.59593  0.22503  0.47831  1.0000
  H   H3828     1.0  0.62338  0.05549  0.73837  1.0000
  C   C4788     1.0  0.49572  0.19093  0.70646  1.0000
  C   C4789     1.0  0.64951  0.21674  0.65152  1.0000
  Fe  Fe324     1.0  0.67120  0.22672  0.74428  1.0000
  H   H3829     1.0  0.68852  0.11779  0.48942  1.0000
  H   H3830     1.0  0.58472  0.19166  0.50698  1.0000
  C   C4790     1.0  0.73595  0.21852  0.83734  1.0000
  S   S644      1.0  0.72706  0.12079  0.91676  1.0000
  H   H3831     1.0  0.51028  0.16561  0.62213  1.0000
  C   C4791     1.0  0.67881  0.21437  0.63917  1.0000
  C   C4792     1.0  0.53919  0.19698  0.55266  1.0000
  Fe  Fe325     1.0  0.72399  0.13176  0.89030  1.0000
  C   C4793     1.0  0.69780  0.20132  0.48727  1.0000
  H   H3832     1.0  0.65495  0.17541  0.92622  1.0000
  H   H3833     1.0  0.67017  0.03628  0.84824  1.0000
  H   H3834     1.0  0.70229  0.21396  0.78963  1.0000
  H   H3835     1.0  0.71776  0.04557  0.68853  1.0000
  H   H3836     1.0  0.71077  0.17571  0.66801  1.0000
  H   H3837     1.0  0.69235  0.03716  0.86044  1.0000
  C   C4794     1.0  0.51108  0.22091  0.72073  1.0000
  C   C4795     1.0  0.68387  0.17258  0.69461  1.0000
  C   C4796     1.0  0.59109  0.21184  0.51251  1.0000
  C   C4797     1.0  0.64600  0.99430  0.71292  1.0000
  H   H3838     1.0  0.73279  0.08293  0.74626  1.0000
  H   H3839     1.0  0.73707  0.18281  0.69997  1.0000
  C   C4798     1.0  0.49602  0.23095  0.66111  1.0000
  C   C4799     1.0  0.67043  0.14938  0.95890  1.0000
  C   C4800     1.0  0.73323  0.17698  0.71283  1.0000
  C   C4801     1.0  0.73060  0.12670  0.94515  1.0000
  P   P162      1.0  0.72549  0.07838  0.67439  1.0000
  H   H3840     1.0  0.64658  0.99202  0.78618  1.0000
  H   H3841     1.0  0.69935  0.20522  0.51033  1.0000
  H   H3842     1.0  0.69614  0.09249  0.65995  1.0000
  C   C4802     1.0  0.72400  0.15390  0.95164  1.0000
  C   C4803     1.0  0.58872  0.20328  0.50198  1.0000
  Fe  Fe326     1.0  0.65465  0.22856  0.50842  1.0000
  C   C4804     1.0  0.72639  0.10583  0.75443  1.0000
  C   C4805     1.0  0.61029  0.22771  0.56138  1.0000
  C   C4806     1.0  0.65005  0.00874  0.71357  1.0000
  C   C4807     1.0  0.64793  0.01273  0.72885  1.0000
  C   C4808     1.0  0.64205  0.00184  0.74345  1.0000
  P   P163      1.0  0.65419  0.03082  0.72972  1.0000
  C   C4809     1.0  0.67639  0.02609  0.72795  1.0000
  C   C4810     1.0  0.64892  0.04824  0.71328  1.0000
  C   C4811     1.0  0.65707  0.06140  0.70866  1.0000
  C   C4812     1.0  0.65194  0.07576  0.69726  1.0000
  C   C4813     1.0  0.63877  0.07705  0.69020  1.0000
  C   C4814     1.0  0.63055  0.06402  0.69471  1.0000
  C   C4815     1.0  0.63549  0.04972  0.70632  1.0000
  C   C4816     1.0  0.68339  0.03477  0.73481  1.0000
  C   C4817     1.0  0.70055  0.03133  0.73327  1.0000
  H   H3843     1.0  0.70961  0.06802  0.70935  1.0000
  H   H3844     1.0  0.69121  0.19149  0.49342  1.0000
  C   C4818     1.0  0.68692  0.01402  0.71937  1.0000
  C   C4819     1.0  0.64303  0.03719  0.74885  1.0000
  C   C4820     1.0  0.64886  0.02987  0.76345  1.0000
  C   C4821     1.0  0.64019  0.03492  0.77816  1.0000
  C   C4822     1.0  0.62551  0.04706  0.77850  1.0000
  C   C4823     1.0  0.61952  0.05427  0.76411  1.0000
  C   C4824     1.0  0.62823  0.04942  0.74934  1.0000
  H   H3845     1.0  0.63180  0.22476  0.54156  1.0000
  C   C4825     1.0  0.72193  0.03280  0.86973  1.0000
  H   H3846     1.0  0.71390  0.17415  0.93349  1.0000
  H   H3847     1.0  0.65501  0.01669  0.70217  1.0000
  H   H3848     1.0  0.64070  0.00424  0.75546  1.0000
  H   H3849     1.0  0.66713  0.06084  0.71413  1.0000
  H   H3850     1.0  0.65811  0.08599  0.69403  1.0000
  H   H3851     1.0  0.63480  0.08830  0.68146  1.0000
  H   H3852     1.0  0.62007  0.06522  0.68953  1.0000
  H   H3853     1.0  0.62846  0.04012  0.71026  1.0000
  H   H3854     1.0  0.67560  0.04419  0.74140  1.0000
  H   H3855     1.0  0.70576  0.03789  0.73887  1.0000
  H   H3856     1.0  0.71692  0.15910  0.75928  1.0000
  H   H3857     1.0  0.51325  0.22258  0.74447  1.0000
  H   H3858     1.0  0.67625  0.14801  0.49651  1.0000
  H   H3859     1.0  0.66010  0.02030  0.76349  1.0000
  H   H3860     1.0  0.64486  0.02959  0.78932  1.0000
  H   H3861     1.0  0.61893  0.05113  0.78984  1.0000
  H   H3862     1.0  0.60839  0.06407  0.76424  1.0000
  H   H3863     1.0  0.58720  0.22900  0.57938  1.0000
  C   C4826     1.0  0.73321  0.22007  0.89333  1.0000
  C   C4827     1.0  0.73008  0.11078  0.66437  1.0000
  H   H3864     1.0  0.73355  0.18052  0.75100  1.0000
  C   C4828     1.0  0.72964  0.16307  0.68234  1.0000
  H   H3865     1.0  0.73073  0.09555  0.63937  1.0000
  H   H3866     1.0  0.50863  0.23017  0.65429  1.0000
  C   C4829     1.0  0.55817  0.22959  0.65547  1.0000
  S   S645      1.0  0.73707  0.10404  0.84061  1.0000
  H   H3867     1.0  0.73460  0.22832  0.94138  1.0000
  P   P164      1.0  0.72268  0.01221  0.86770  1.0000
  H   H3868     1.0  0.69367  0.98640  0.84310  1.0000
  H   H3869     1.0  0.59459  0.23098  0.79303  1.0000
  C   C4830     1.0  0.68234  0.98351  0.79965  1.0000
  C   C4831     1.0  0.73091  0.19534  0.52933  1.0000
  H   H3870     1.0  0.71347  0.22844  0.49726  1.0000
  H   H3871     1.0  0.73373  0.22485  0.54692  1.0000
  C   C4832     1.0  0.73386  0.05705  0.86261  1.0000
  C   C4833     1.0  0.72162  0.99914  0.88818  1.0000
  C   C4834     1.0  0.73505  0.21852  0.53725  1.0000
  Fe  Fe327     1.0  0.73657  0.18538  0.58645  1.0000
  C   C4835     1.0  0.67081  0.12586  0.47384  1.0000
  H   H3872     1.0  0.55683  0.22626  0.75110  1.0000
  C   C4836     1.0  0.73195  0.99981  0.89791  1.0000
  H   H3873     1.0  0.70211  0.98794  0.88768  1.0000
  C   C4837     1.0  0.73425  0.04152  0.86024  1.0000
  C   C4838     1.0  0.73125  0.98990  0.91386  1.0000
  H   H3874     1.0  0.73615  0.14707  0.80224  1.0000
  C   C4839     1.0  0.67533  0.23004  0.62891  1.0000
  C   C4840     1.0  0.73842  0.18560  0.89923  1.0000
  H   H3875     1.0  0.48901  0.12672  0.68884  1.0000
  C   C4841     1.0  0.66294  0.19349  0.47348  1.0000
  C   C4842     1.0  0.66214  0.40049  0.32109  1.0000
  C   C4843     1.0  0.64802  0.46126  0.19571  1.0000
  P   P165      1.0  0.71416  0.39050  0.44773  1.0000
  Fe  Fe328     1.0  0.51509  0.32568  0.19396  1.0000
  H   H3876     1.0  0.56988  0.42257  0.22550  1.0000
  C   C4844     1.0  0.63351  0.23587  0.45423  1.0000
  Fe  Fe329     1.0  0.53972  0.32386  0.16120  1.0000
  S   S646      1.0  0.52917  0.35005  0.14946  1.0000
  S   S647      1.0  0.56476  0.30925  0.15095  1.0000
  Fe  Fe330     1.0  0.52921  0.35571  0.17335  1.0000
  S   S648      1.0  0.54179  0.37586  0.17254  1.0000
  Fe  Fe331     1.0  0.50425  0.34381  0.16226  1.0000
  S   S649      1.0  0.54086  0.32993  0.18439  1.0000
  S   S650      1.0  0.51494  0.31700  0.17190  1.0000
  Fe  Fe332     1.0  0.61612  0.41519  0.20782  1.0000
  S   S651      1.0  0.61210  0.39571  0.23124  1.0000
  Fe  Fe333     1.0  0.63173  0.38937  0.18675  1.0000
  S   S652      1.0  0.62989  0.36802  0.20856  1.0000
  S   S653      1.0  0.63996  0.38425  0.16124  1.0000
  Fe  Fe334     1.0  0.60422  0.38270  0.21633  1.0000
  S   S654      1.0  0.58285  0.36952  0.22541  1.0000
  Fe  Fe335     1.0  0.63809  0.38305  0.22113  1.0000
  S   S655      1.0  0.65775  0.37187  0.23631  1.0000
  S   S656      1.0  0.60570  0.40341  0.19393  1.0000
  S   S657      1.0  0.64251  0.40311  0.19833  1.0000
  S   S658      1.0  0.71427  0.39819  0.28472  1.0000
  S   S659      1.0  0.69616  0.43491  0.29354  1.0000
  Fe  Fe336     1.0  0.71672  0.41362  0.30063  1.0000
  C   C4845     1.0  0.61571  0.29461  0.23683  1.0000
  Fe  Fe337     1.0  0.69529  0.42035  0.27593  1.0000
  S   S660      1.0  0.66978  0.41965  0.27408  1.0000
  Fe  Fe338     1.0  0.72030  0.31291  0.37020  1.0000
  S   S661      1.0  0.70269  0.33248  0.35622  1.0000
  H   H3877     1.0  0.49723  0.23592  0.18850  1.0000
  S   S662      1.0  0.71666  0.25247  0.38950  1.0000
  S   S663      1.0  0.71057  0.29751  0.39457  1.0000
  H   H3878     1.0  0.62473  0.25273  0.41008  1.0000
  Fe  Fe339     1.0  0.60479  0.25588  0.09236  1.0000
  C   C4846     1.0  0.63691  0.24806  0.23360  1.0000
  S   S664      1.0  0.58050  0.27435  0.09120  1.0000
  H   H3879     1.0  0.57193  0.25248  0.32571  1.0000
  C   C4847     1.0  0.52695  0.27028  0.24748  1.0000
  H   H3880     1.0  0.52381  0.26252  0.25961  1.0000
  H   H3881     1.0  0.63205  0.28786  0.25370  1.0000
  C   C4848     1.0  0.50319  0.27410  0.18167  1.0000
  S   S665      1.0  0.64522  0.25304  0.12668  1.0000
  C   C4849     1.0  0.59013  0.41182  0.15824  1.0000
  S   S666      1.0  0.62930  0.26352  0.08347  1.0000
  Fe  Fe340     1.0  0.71734  0.32121  0.13562  1.0000
  S   S667      1.0  0.70382  0.30076  0.14175  1.0000
  S   S668      1.0  0.71126  0.33763  0.15356  1.0000
  Fe  Fe341     1.0  0.70550  0.30619  0.11442  1.0000
  S   S669      1.0  0.68513  0.30974  0.10144  1.0000
  S   S670      1.0  0.71667  0.32829  0.10882  1.0000
  C   C4850     1.0  0.65662  0.26852  0.11913  1.0000
  C   C4851     1.0  0.66805  0.26881  0.12775  1.0000
  C   C4852     1.0  0.67706  0.28134  0.12223  1.0000
  C   C4853     1.0  0.67443  0.29370  0.10822  1.0000
  C   C4854     1.0  0.66300  0.29341  0.09957  1.0000
  C   C4855     1.0  0.65410  0.28079  0.10500  1.0000
  H   H3882     1.0  0.66995  0.25926  0.13865  1.0000
  H   H3883     1.0  0.68596  0.28157  0.12880  1.0000
  H   H3884     1.0  0.66111  0.30295  0.08865  1.0000
  H   H3885     1.0  0.64516  0.28067  0.09843  1.0000
  C   C4856     1.0  0.71603  0.38306  0.33456  1.0000
  C   C4857     1.0  0.70834  0.35170  0.34789  1.0000
  C   C4858     1.0  0.70188  0.36233  0.33460  1.0000
  C   C4859     1.0  0.70581  0.37791  0.32787  1.0000
  H   H3886     1.0  0.69389  0.35851  0.32941  1.0000
  H   H3887     1.0  0.70042  0.38618  0.31790  1.0000
  C   C4860     1.0  0.66137  0.38550  0.24624  1.0000
  C   C4861     1.0  0.64860  0.39841  0.25130  1.0000
  C   C4862     1.0  0.65136  0.40866  0.25995  1.0000
  C   C4863     1.0  0.66702  0.40642  0.26318  1.0000
  C   C4864     1.0  0.67997  0.39386  0.25766  1.0000
  C   C4865     1.0  0.67707  0.38321  0.24949  1.0000
  H   H3888     1.0  0.63651  0.40036  0.24877  1.0000
  H   H3889     1.0  0.64137  0.41853  0.26395  1.0000
  H   H3890     1.0  0.69219  0.39234  0.25971  1.0000
  H   H3891     1.0  0.68706  0.37335  0.24548  1.0000
  C   C4866     1.0  0.65908  0.37011  0.15952  1.0000
  C   C4867     1.0  0.66587  0.36319  0.14555  1.0000
  C   C4868     1.0  0.68175  0.35270  0.14381  1.0000
  C   C4869     1.0  0.69087  0.34945  0.15590  1.0000
  C   C4870     1.0  0.68386  0.35617  0.16991  1.0000
  C   C4871     1.0  0.66798  0.36636  0.17182  1.0000
  H   H3892     1.0  0.65898  0.36609  0.13600  1.0000
  H   H3893     1.0  0.68708  0.34751  0.13294  1.0000
  H   H3894     1.0  0.69072  0.35361  0.17929  1.0000
  H   H3895     1.0  0.66289  0.37175  0.18256  1.0000
  C   C4872     1.0  0.56847  0.30071  0.13367  1.0000
  C   C4873     1.0  0.58460  0.29231  0.12796  1.0000
  C   C4874     1.0  0.58824  0.28451  0.11480  1.0000
  C   C4875     1.0  0.57572  0.28494  0.10723  1.0000
  C   C4876     1.0  0.55955  0.29376  0.11258  1.0000
  C   C4877     1.0  0.55591  0.30168  0.12584  1.0000
  H   H3896     1.0  0.59435  0.29166  0.13382  1.0000
  H   H3897     1.0  0.60084  0.27829  0.11042  1.0000
  H   H3898     1.0  0.54984  0.29422  0.10667  1.0000
  H   H3899     1.0  0.54340  0.30824  0.13016  1.0000
  C   C4878     1.0  0.55434  0.37153  0.18696  1.0000
  C   C4879     1.0  0.54879  0.36456  0.20364  1.0000
  C   C4880     1.0  0.55791  0.36345  0.21530  1.0000
  C   C4881     1.0  0.57266  0.36924  0.21034  1.0000
  C   C4882     1.0  0.57865  0.37533  0.19353  1.0000
  C   C4883     1.0  0.56944  0.37661  0.18193  1.0000
  H   H3900     1.0  0.53709  0.36072  0.20764  1.0000
  H   H3901     1.0  0.55321  0.35862  0.22825  1.0000
  H   H3902     1.0  0.59022  0.37935  0.18951  1.0000
  H   H3903     1.0  0.57391  0.38171  0.16901  1.0000
  H   H3904     1.0  0.66949  0.42345  0.31704  1.0000
  H   H3905     1.0  0.56349  0.32860  0.20859  1.0000
  C   C4884     1.0  0.70444  0.25145  0.37668  1.0000
  C   C4885     1.0  0.70335  0.26276  0.36161  1.0000
  C   C4886     1.0  0.56042  0.31977  0.22001  1.0000
  H   H3906     1.0  0.58199  0.35271  0.28402  1.0000
  C   C4887     1.0  0.54293  0.26690  0.23771  1.0000
  H   H3907     1.0  0.53441  0.33144  0.22347  1.0000
  C   C4888     1.0  0.53503  0.29044  0.21611  1.0000
  C   C4889     1.0  0.54693  0.27695  0.22203  1.0000
  H   H3908     1.0  0.53820  0.29807  0.20396  1.0000
  H   H3909     1.0  0.55924  0.27437  0.21449  1.0000
  C   C4890     1.0  0.62046  0.45536  0.20537  1.0000
  C   C4891     1.0  0.63970  0.30794  0.45540  1.0000
  H   H3910     1.0  0.71022  0.27247  0.35748  1.0000
  H   H3911     1.0  0.57283  0.30584  0.26740  1.0000
  C   C4892     1.0  0.57334  0.34528  0.26669  1.0000
  H   H3912     1.0  0.60327  0.23148  0.30310  1.0000
  C   C4893     1.0  0.69828  0.33741  0.46307  1.0000
  H   H3913     1.0  0.70224  0.31150  0.99273  1.0000
  C   C4894     1.0  0.70869  0.25706  0.22935  1.0000
  C   C4895     1.0  0.69729  0.25038  0.22580  1.0000
  H   H3914     1.0  0.51243  0.27010  0.20382  1.0000
  P   P166      1.0  0.68099  0.26341  0.21558  1.0000
  C   C4896     1.0  0.66192  0.25821  0.22883  1.0000
  C   C4897     1.0  0.68068  0.28520  0.21234  1.0000
  C   C4898     1.0  0.66744  0.29580  0.22064  1.0000
  C   C4899     1.0  0.66693  0.31282  0.21709  1.0000
  C   C4900     1.0  0.67957  0.31937  0.20518  1.0000
  C   C4901     1.0  0.69274  0.30893  0.19680  1.0000
  C   C4902     1.0  0.69330  0.29193  0.20035  1.0000
  C   C4903     1.0  0.65102  0.25306  0.22284  1.0000
  C   C4904     1.0  0.53117  0.27472  0.18212  1.0000
  C   C4905     1.0  0.63366  0.24799  0.25040  1.0000
  C   C4906     1.0  0.64449  0.25298  0.25648  1.0000
  C   C4907     1.0  0.65853  0.25811  0.24574  1.0000
  C   C4908     1.0  0.68461  0.25988  0.19510  1.0000
  C   C4909     1.0  0.69875  0.24859  0.18895  1.0000
  H   H3915     1.0  0.68964  0.48106  0.17785  1.0000
  C   C4910     1.0  0.69165  0.25696  0.16217  1.0000
  C   C4911     1.0  0.67762  0.26829  0.16813  1.0000
  C   C4912     1.0  0.67412  0.26981  0.18452  1.0000
  H   H3916     1.0  0.70523  0.26421  0.45824  1.0000
  C   C4913     1.0  0.72977  0.32803  0.26933  1.0000
  H   H3917     1.0  0.49853  0.27892  0.15720  1.0000
  H   H3918     1.0  0.70843  0.27022  0.22560  1.0000
  H   H3919     1.0  0.55905  0.23587  0.31534  1.0000
  H   H3920     1.0  0.65732  0.29111  0.22954  1.0000
  H   H3921     1.0  0.65661  0.32106  0.22330  1.0000
  H   H3922     1.0  0.67902  0.33259  0.20224  1.0000
  H   H3923     1.0  0.70238  0.31409  0.18728  1.0000
  H   H3924     1.0  0.70345  0.28408  0.19349  1.0000
  C   C4914     1.0  0.73002  0.36536  0.43013  1.0000
  C   C4915     1.0  0.61376  0.32248  0.46986  1.0000
  H   H3925     1.0  0.71333  0.23878  0.16771  1.0000
  H   H3926     1.0  0.64207  0.25273  0.26955  1.0000
  H   H3927     1.0  0.66691  0.26182  0.25063  1.0000
  Fe  Fe342     1.0  0.54719  0.23134  0.26524  1.0000
  H   H3928     1.0  0.64851  0.47486  0.23032  1.0000
  H   H3929     1.0  0.69471  0.25606  0.14935  1.0000
  H   H3930     1.0  0.66980  0.27625  0.15984  1.0000
  H   H3931     1.0  0.66354  0.27909  0.18878  1.0000
  C   C4916     1.0  0.69089  0.36141  0.28714  1.0000
  C   C4917     1.0  0.68775  0.34781  0.28367  1.0000
  C   C4918     1.0  0.67453  0.34079  0.29357  1.0000
  C   C4919     1.0  0.66420  0.34757  0.30679  1.0000
  C   C4920     1.0  0.66702  0.36148  0.31017  1.0000
  C   C4921     1.0  0.68046  0.36838  0.30022  1.0000
  P   P167      1.0  0.65211  0.37118  0.32592  1.0000
  C   C4922     1.0  0.64706  0.35453  0.34325  1.0000
  C   C4923     1.0  0.63065  0.35265  0.34995  1.0000
  C   C4924     1.0  0.62724  0.33942  0.36319  1.0000
  C   C4925     1.0  0.64015  0.32796  0.36975  1.0000
  C   C4926     1.0  0.65650  0.32963  0.36299  1.0000
  C   C4927     1.0  0.65993  0.34274  0.34970  1.0000
  C   C4928     1.0  0.66023  0.38529  0.33197  1.0000
  H   H3932     1.0  0.59310  0.24584  0.21722  1.0000
  C   C4929     1.0  0.66808  0.41178  0.32555  1.0000
  C   C4930     1.0  0.67242  0.40794  0.34079  1.0000
  C   C4931     1.0  0.67032  0.39297  0.35184  1.0000
  C   C4932     1.0  0.66408  0.38174  0.34755  1.0000
  H   H3933     1.0  0.70110  0.36691  0.27933  1.0000
  H   H3934     1.0  0.69529  0.34295  0.27308  1.0000
  H   H3935     1.0  0.67211  0.33030  0.29077  1.0000
  H   H3936     1.0  0.65376  0.34220  0.31411  1.0000
  H   H3937     1.0  0.68283  0.37927  0.30225  1.0000
  H   H3938     1.0  0.62050  0.36120  0.34493  1.0000
  H   H3939     1.0  0.61458  0.33800  0.36836  1.0000
  H   H3940     1.0  0.63751  0.31774  0.38003  1.0000
  H   H3941     1.0  0.66659  0.32079  0.36802  1.0000
  H   H3942     1.0  0.67267  0.34378  0.34451  1.0000
  H   H3943     1.0  0.67940  0.26029  0.08639  1.0000
  H   H3944     1.0  0.67136  0.39895  0.14505  1.0000
  H   H3945     1.0  0.67401  0.38989  0.36353  1.0000
  H   H3946     1.0  0.66272  0.37022  0.35629  1.0000
  C   C4933     1.0  0.69039  0.31017  0.32829  1.0000
  C   C4934     1.0  0.67715  0.30413  0.32769  1.0000
  C   C4935     1.0  0.67863  0.29631  0.31500  1.0000
  C   C4936     1.0  0.69346  0.29431  0.30308  1.0000
  C   C4937     1.0  0.51515  0.27278  0.19050  1.0000
  C   C4938     1.0  0.59182  0.27011  0.16745  1.0000
  H   H3947     1.0  0.68699  0.24467  0.29726  1.0000
  H   H3948     1.0  0.72826  0.25464  0.97775  1.0000
  C   C4939     1.0  0.73052  0.27714  0.28310  1.0000
  H   H3949     1.0  0.72620  0.46276  0.29603  1.0000
  C   C4940     1.0  0.69570  0.23878  0.38175  1.0000
  C   C4941     1.0  0.71759  0.25486  0.98799  1.0000
  H   H3950     1.0  0.65825  0.42935  0.22569  1.0000
  H   H3951     1.0  0.69126  0.41888  0.46081  1.0000
  S   S671      1.0  0.62656  0.24502  0.37248  1.0000
  C   C4942     1.0  0.63786  0.33471  0.46059  1.0000
  C   C4943     1.0  0.73629  0.33199  0.31971  1.0000
  C   C4944     1.0  0.67148  0.42584  0.22082  1.0000
  Fe  Fe343     1.0  0.73274  0.41110  0.26546  1.0000
  S   S672      1.0  0.65602  0.23677  0.05034  1.0000
  S   S673      1.0  0.50487  0.31210  0.21944  1.0000
  H   H3952     1.0  0.59692  0.44959  0.13554  1.0000
  H   H3953     1.0  0.67805  0.43539  0.23810  1.0000
  H   H3954     1.0  0.57574  0.27909  0.35914  1.0000
  C   C4945     1.0  0.55553  0.45025  0.13932  1.0000
  H   H3955     1.0  0.68936  0.31617  0.33813  1.0000
  H   H3956     1.0  0.66583  0.30534  0.33716  1.0000
  H   H3957     1.0  0.66841  0.29147  0.31468  1.0000
  H   H3958     1.0  0.50299  0.28713  0.24951  1.0000
  C   C4946     1.0  0.68899  0.37640  0.47095  1.0000
  H   H3959     1.0  0.52643  0.31196  0.24983  1.0000
  C   C4947     1.0  0.68910  0.28802  0.45282  1.0000
  C   C4948     1.0  0.71627  0.31274  0.25930  1.0000
  C   C4949     1.0  0.72407  0.31367  0.27118  1.0000
  C   C4950     1.0  0.64072  0.46452  0.29918  1.0000
  C   C4951     1.0  0.53937  0.31077  0.24355  1.0000
  S   S674      1.0  0.50322  0.35224  0.18505  1.0000
  H   H3960     1.0  0.62046  0.39724  0.28184  1.0000
  C   C4952     1.0  0.69739  0.27225  0.45007  1.0000
  C   C4953     1.0  0.63681  0.46322  0.31634  1.0000
  C   C4954     1.0  0.71456  0.32582  0.24558  1.0000
  C   C4955     1.0  0.62722  0.24797  0.42233  1.0000
  C   C4956     1.0  0.58776  0.42913  0.15349  1.0000
  C   C4957     1.0  0.71527  0.37676  0.43475  1.0000
  H   H3961     1.0  0.61984  0.43164  0.11973  1.0000
  H   H3962     1.0  0.70885  0.34320  0.45825  1.0000
  S   S675      1.0  0.71366  0.43211  0.25514  1.0000
  C   C4958     1.0  0.57265  0.36022  0.13619  1.0000
  H   H3963     1.0  0.54340  0.26326  0.29711  1.0000
  H   H3964     1.0  0.64338  0.45170  0.27989  1.0000
  C   C4959     1.0  0.70214  0.24709  0.17259  1.0000
  H   H3965     1.0  0.72384  0.37654  0.16814  1.0000
  H   H3966     1.0  0.52686  0.28234  0.14260  1.0000
  H   H3967     1.0  0.71937  0.34999  0.23294  1.0000
  H   H3968     1.0  0.62933  0.44800  0.34036  1.0000
  H   H3969     1.0  0.57011  0.35781  0.25958  1.0000
  C   C4960     1.0  0.58962  0.38053  0.12371  1.0000
  C   C4961     1.0  0.57983  0.45898  0.16649  1.0000
  C   C4962     1.0  0.60756  0.40498  0.30461  1.0000
  H   H3970     1.0  0.56561  0.33435  0.25131  1.0000
  C   C4963     1.0  0.64010  0.45128  0.29301  1.0000
  H   H3971     1.0  0.66820  0.25263  0.42994  1.0000
  C   C4964     1.0  0.57509  0.37613  0.13399  1.0000
  S   S676      1.0  0.72041  0.40287  0.32660  1.0000
  H   H3972     1.0  0.73566  0.41498  0.43512  1.0000
  C   C4965     1.0  0.71675  0.37130  0.17999  1.0000
  C   C4966     1.0  0.71039  0.34693  0.20053  1.0000
  C   C4967     1.0  0.63402  0.38544  0.30108  1.0000
  C   C4968     1.0  0.60188  0.32360  0.23123  1.0000
  C   C4969     1.0  0.71945  0.35405  0.18534  1.0000
  S   S677      1.0  0.60886  0.24269  0.11761  1.0000
  C   C4970     1.0  0.66032  0.34833  0.08323  1.0000
  C   C4971     1.0  0.65635  0.36109  0.06992  1.0000
  C   C4972     1.0  0.63991  0.36669  0.06818  1.0000
  C   C4973     1.0  0.62744  0.35959  0.07982  1.0000
  C   C4974     1.0  0.63130  0.34697  0.09340  1.0000
  C   C4975     1.0  0.64789  0.34120  0.09488  1.0000
  P   P168      1.0  0.61504  0.33769  0.10795  1.0000
  C   C4976     1.0  0.60775  0.32769  0.09635  1.0000
  C   C4977     1.0  0.62304  0.32284  0.12481  1.0000
  C   C4978     1.0  0.62276  0.30601  0.12794  1.0000
  C   C4979     1.0  0.62860  0.29481  0.14134  1.0000
  C   C4980     1.0  0.63505  0.30026  0.15152  1.0000
  C   C4981     1.0  0.63551  0.31697  0.14843  1.0000
  C   C4982     1.0  0.62941  0.32825  0.13520  1.0000
  C   C4983     1.0  0.61935  0.31677  0.08707  1.0000
  C   C4984     1.0  0.61419  0.30881  0.07796  1.0000
  C   C4985     1.0  0.59740  0.31167  0.07802  1.0000
  C   C4986     1.0  0.58578  0.32271  0.08699  1.0000
  C   C4987     1.0  0.59091  0.33082  0.09600  1.0000
  C   C4988     1.0  0.59912  0.35309  0.11741  1.0000
  H   H3973     1.0  0.67311  0.34375  0.08447  1.0000
  H   H3974     1.0  0.66608  0.36647  0.06088  1.0000
  H   H3975     1.0  0.63686  0.37642  0.05773  1.0000
  H   H3976     1.0  0.61477  0.36385  0.07824  1.0000
  H   H3977     1.0  0.65142  0.33105  0.10482  1.0000
  H   H3978     1.0  0.61820  0.30139  0.12003  1.0000
  H   H3979     1.0  0.62843  0.28182  0.14357  1.0000
  H   H3980     1.0  0.63986  0.29150  0.16166  1.0000
  H   H3981     1.0  0.64067  0.32121  0.15620  1.0000
  H   H3982     1.0  0.62983  0.34117  0.13296  1.0000
  H   H3983     1.0  0.63240  0.31425  0.08707  1.0000
  H   H3984     1.0  0.62317  0.30019  0.07106  1.0000
  H   H3985     1.0  0.59332  0.30502  0.07144  1.0000
  H   H3986     1.0  0.57272  0.32461  0.08729  1.0000
  H   H3987     1.0  0.58160  0.33935  0.10267  1.0000
  H   H3988     1.0  0.61300  0.37259  0.10801  1.0000
  H   H3989     1.0  0.70832  0.42640  0.22748  1.0000
  C   C4989     1.0  0.58467  0.23874  0.18249  1.0000
  C   C4990     1.0  0.73456  0.39017  0.44988  1.0000
  H   H3990     1.0  0.59727  0.41323  0.29950  1.0000
  C   C4991     1.0  0.52442  0.46204  0.15819  1.0000
  H   H3991     1.0  0.67727  0.27526  0.99731  1.0000
  C   C4992     1.0  0.70461  0.24422  0.01633  1.0000
  H   H3992     1.0  0.55241  0.40252  0.22952  1.0000
  H   H3993     1.0  0.72219  0.23854  0.29787  1.0000
  H   H3994     1.0  0.49614  0.32020  0.14372  1.0000
  C   C4993     1.0  0.72802  0.34254  0.30758  1.0000
  H   H3995     1.0  0.71085  0.43156  0.15619  1.0000
  C   C4994     1.0  0.68762  0.43860  0.43974  1.0000
  H   H3996     1.0  0.59441  0.28227  0.16164  1.0000
  Fe  Fe344     1.0  0.65159  0.23297  0.35928  1.0000
  H   H3997     1.0  0.65921  0.40357  0.30903  1.0000
  C   C4995     1.0  0.64039  0.27016  0.29988  1.0000
  H   H3998     1.0  0.62805  0.42485  0.32923  1.0000
  H   H3999     1.0  0.70534  0.43653  0.39968  1.0000
  Fe  Fe345     1.0  0.63864  0.23933  0.07508  1.0000
  C   C4996     1.0  0.62302  0.30876  0.46327  1.0000
  H   H4000     1.0  0.60520  0.38838  0.15336  1.0000
  Fe  Fe346     1.0  0.63406  0.24846  0.10816  1.0000
  C   C4997     1.0  0.67818  0.32508  0.45850  1.0000
  H   H4001     1.0  0.69686  0.33590  0.43925  1.0000
  C   C4998     1.0  0.72086  0.24665  0.23771  1.0000
  S   S678      1.0  0.67133  0.24761  0.34513  1.0000
  H   H4002     1.0  0.72023  0.30569  0.46116  1.0000
  C   C4999     1.0  0.68883  0.26656  0.99893  1.0000
  C   C5000     1.0  0.54387  0.32171  0.22861  1.0000
  H   H4003     1.0  0.64666  0.29699  0.45075  1.0000
  C   C5001     1.0  0.73495  0.46235  0.18278  1.0000
  H   H4004     1.0  0.68665  0.37276  0.46097  1.0000
  C   C5002     1.0  0.51924  0.29424  0.22607  1.0000
  C   C5003     1.0  0.70889  0.41643  0.42070  1.0000
  C   C5004     1.0  0.51516  0.28411  0.24173  1.0000
  C   C5005     1.0  0.57076  0.28648  0.34848  1.0000
  C   C5006     1.0  0.55489  0.29668  0.35059  1.0000
  C   C5007     1.0  0.54845  0.30589  0.33679  1.0000
  C   C5008     1.0  0.55781  0.30475  0.32089  1.0000
  C   C5009     1.0  0.57374  0.29440  0.31867  1.0000
  C   C5010     1.0  0.58019  0.28545  0.33261  1.0000
  P   P169      1.0  0.58529  0.29230  0.29808  1.0000
  C   C5011     1.0  0.57784  0.27833  0.29112  1.0000
  C   C5012     1.0  0.58171  0.31282  0.28506  1.0000
  C   C5013     1.0  0.58407  0.32624  0.28974  1.0000
  C   C5014     1.0  0.58834  0.26974  0.27907  1.0000
  C   C5015     1.0  0.58274  0.25865  0.27390  1.0000
  C   C5016     1.0  0.56663  0.25624  0.28056  1.0000
  C   C5017     1.0  0.56151  0.27613  0.29740  1.0000
  C   C5018     1.0  0.60704  0.28376  0.29814  1.0000
  C   C5019     1.0  0.61227  0.26682  0.30494  1.0000
  H   H4005     1.0  0.72431  0.38197  0.22019  1.0000
  C   C5020     1.0  0.61415  0.47147  0.20822  1.0000
  C   C5021     1.0  0.63541  0.28693  0.29268  1.0000
  C   C5022     1.0  0.61879  0.29374  0.29187  1.0000
  C   C5023     1.0  0.63438  0.38375  0.31766  1.0000
  H   H4006     1.0  0.73293  0.35191  0.25392  1.0000
  H   H4007     1.0  0.53611  0.31375  0.33843  1.0000
  H   H4008     1.0  0.55251  0.31177  0.31035  1.0000
  H   H4009     1.0  0.59242  0.27749  0.33144  1.0000
  H   H4010     1.0  0.58879  0.32423  0.30069  1.0000
  H   H4011     1.0  0.60084  0.27157  0.27373  1.0000
  H   H4012     1.0  0.59077  0.25191  0.26469  1.0000
  H   H4013     1.0  0.56238  0.24742  0.27683  1.0000
  H   H4014     1.0  0.55307  0.28258  0.30660  1.0000
  H   H4015     1.0  0.60338  0.25893  0.31013  1.0000
  C   C5024     1.0  0.61038  0.32689  0.24115  1.0000
  C   C5025     1.0  0.70275  0.26623  0.98585  1.0000
  H   H4016     1.0  0.64436  0.29476  0.28813  1.0000
  H   H4017     1.0  0.61516  0.30679  0.28659  1.0000
  C   C5026     1.0  0.63220  0.44897  0.32714  1.0000
  C   C5027     1.0  0.70558  0.41621  0.20867  1.0000
  H   H4018     1.0  0.57773  0.44020  0.19821  1.0000
  C   C5028     1.0  0.62132  0.39304  0.32752  1.0000
  C   C5029     1.0  0.59845  0.43625  0.13940  1.0000
  C   C5030     1.0  0.64729  0.32085  0.45410  1.0000
  H   H4019     1.0  0.62914  0.27157  0.42489  1.0000
  H   H4020     1.0  0.62413  0.40100  0.12877  1.0000
  H   H4021     1.0  0.69005  0.38696  0.43156  1.0000
  S   S679      1.0  0.55830  0.25070  0.24519  1.0000
  H   H4022     1.0  0.71883  0.41242  0.20436  1.0000
  C   C5031     1.0  0.72052  0.33993  0.24368  1.0000
  H   H4023     1.0  0.73845  0.29691  0.18852  1.0000
  H   H4024     1.0  0.62288  0.24381  0.25874  1.0000
  C   C5032     1.0  0.68737  0.41154  0.17022  1.0000
  C   C5033     1.0  0.66319  0.42297  0.15113  1.0000
  C   C5034     1.0  0.66556  0.43342  0.15968  1.0000
  C   C5035     1.0  0.67777  0.42783  0.16899  1.0000
  C   C5036     1.0  0.66834  0.23383  0.41792  1.0000
  H   H4025     1.0  0.60100  0.47550  0.21299  1.0000
  H   H4026     1.0  0.73071  0.48002  0.31259  1.0000
  C   C5037     1.0  0.59593  0.45563  0.16913  1.0000
  H   H4027     1.0  0.72518  0.44247  0.20071  1.0000
  H   H4028     1.0  0.65353  0.42709  0.14417  1.0000
  H   H4029     1.0  0.65776  0.44576  0.15932  1.0000
  H   H4030     1.0  0.67945  0.43610  0.17550  1.0000
  C   C5038     1.0  0.72247  0.37246  0.34795  1.0000
  C   C5039     1.0  0.69836  0.35709  0.21022  1.0000
  H   H4031     1.0  0.69438  0.28830  0.29330  1.0000
  H   H4032     1.0  0.72094  0.23716  0.46675  1.0000
  H   H4033     1.0  0.54914  0.23975  0.18697  1.0000
  C   C5040     1.0  0.67102  0.47881  0.30179  1.0000
  C   C5041     1.0  0.68530  0.23778  0.37232  1.0000
  C   C5042     1.0  0.70606  0.46087  0.18997  1.0000
  C   C5043     1.0  0.68407  0.24907  0.35731  1.0000
  H   H4034     1.0  0.65347  0.25258  0.20999  1.0000
  C   C5044     1.0  0.68327  0.23585  0.27776  1.0000
  C   C5045     1.0  0.58007  0.34238  0.28046  1.0000
  C   C5046     1.0  0.58465  0.34870  0.12806  1.0000
  C   C5047     1.0  0.60165  0.36904  0.11552  1.0000
  C   C5048     1.0  0.71860  0.24373  0.00321  1.0000
  Fe  Fe347     1.0  0.61629  0.23135  0.36010  1.0000
  H   H4035     1.0  0.56537  0.25143  0.19976  1.0000
  H   H4036     1.0  0.58276  0.33622  0.13037  1.0000
  C   C5049     1.0  0.68263  0.42926  0.22779  1.0000
  H   H4037     1.0  0.62862  0.24394  0.22897  1.0000
  H   H4038     1.0  0.68228  0.25304  0.05971  1.0000
  C   C5050     1.0  0.57503  0.31585  0.27114  1.0000
  C   C5051     1.0  0.73640  0.40002  0.17710  1.0000
  H   H4039     1.0  0.63726  0.47328  0.32135  1.0000
  C   C5052     1.0  0.64170  0.47734  0.19862  1.0000
  H   H4040     1.0  0.72973  0.25191  0.24018  1.0000
  C   C5053     1.0  0.63746  0.45029  0.19910  1.0000
  C   C5054     1.0  0.56528  0.42190  0.21528  1.0000
  H   H4041     1.0  0.69541  0.47062  0.24142  1.0000
  H   H4042     1.0  0.66115  0.45727  0.19091  1.0000
  H   H4043     1.0  0.72926  0.36253  0.28601  1.0000
  C   C5055     1.0  0.70147  0.37808  0.42840  1.0000
  P   P170      1.0  0.66907  0.31961  0.44482  1.0000
  C   C5056     1.0  0.68977  0.25557  0.01416  1.0000
  C   C5057     1.0  0.67909  0.29879  0.44218  1.0000
  C   C5058     1.0  0.63141  0.43596  0.32088  1.0000
  C   C5059     1.0  0.69584  0.26710  0.43671  1.0000
  C   C5060     1.0  0.68571  0.27765  0.42622  1.0000
  C   C5061     1.0  0.67730  0.29341  0.42896  1.0000
  H   H4044     1.0  0.60828  0.33947  0.24268  1.0000
  C   C5062     1.0  0.67213  0.33302  0.42447  1.0000
  C   C5063     1.0  0.65895  0.34506  0.41877  1.0000
  C   C5064     1.0  0.66147  0.35451  0.40255  1.0000
  C   C5065     1.0  0.67710  0.35194  0.39194  1.0000
  C   C5066     1.0  0.69023  0.34007  0.39759  1.0000
  C   C5067     1.0  0.68777  0.33067  0.41375  1.0000
  C   C5068     1.0  0.72163  0.40944  0.17235  1.0000
  C   C5069     1.0  0.55442  0.41945  0.18861  1.0000
  C   C5070     1.0  0.60153  0.25623  0.16133  1.0000
  H   H4045     1.0  0.55043  0.41799  0.17835  1.0000
  H   H4046     1.0  0.73051  0.32284  0.32920  1.0000
  H   H4047     1.0  0.68643  0.45620  0.41657  1.0000
  H   H4048     1.0  0.68476  0.27377  0.41567  1.0000
  H   H4049     1.0  0.66966  0.30151  0.42057  1.0000
  C   C5071     1.0  0.55540  0.41069  0.21756  1.0000
  H   H4050     1.0  0.64669  0.34695  0.42664  1.0000
  H   H4051     1.0  0.65123  0.36360  0.39810  1.0000
  H   H4052     1.0  0.67909  0.35888  0.37926  1.0000
  H   H4053     1.0  0.70226  0.33783  0.38931  1.0000
  H   H4054     1.0  0.69803  0.32127  0.41782  1.0000
  H   H4055     1.0  0.73455  0.28704  0.32181  1.0000
  C   C5072     1.0  0.62116  0.33549  0.46847  1.0000
  C   C5073     1.0  0.60305  0.40176  0.14920  1.0000
  C   C5074     1.0  0.69965  0.42419  0.22187  1.0000
  C   C5075     1.0  0.70494  0.41122  0.43799  1.0000
  H   H4056     1.0  0.59314  0.33369  0.22539  1.0000
  C   C5076     1.0  0.69340  0.26137  0.35181  1.0000
  C   C5077     1.0  0.71876  0.35671  0.35452  1.0000
  C   C5078     1.0  0.72430  0.26374  0.29417  1.0000
  H   H4057     1.0  0.65311  0.26501  0.30113  1.0000
  H   H4058     1.0  0.54237  0.40072  0.20596  1.0000
  H   H4059     1.0  0.51537  0.46648  0.13613  1.0000
  C   C5079     1.0  0.72234  0.45407  0.19195  1.0000
  C   C5080     1.0  0.73129  0.31034  0.45460  1.0000
  H   H4060     1.0  0.57989  0.30946  0.18681  1.0000
  H   H4061     1.0  0.58135  0.32994  0.16060  1.0000
  C   C5081     1.0  0.62965  0.25863  0.43077  1.0000
  C   C5082     1.0  0.57078  0.33204  0.26206  1.0000
  C   C5083     1.0  0.55146  0.29802  0.25004  1.0000
  C   C5084     1.0  0.56803  0.29608  0.24150  1.0000
  C   C5085     1.0  0.57261  0.30661  0.22615  1.0000
  H   H4062     1.0  0.67776  0.41641  0.34388  1.0000
  P   P171      1.0  0.59414  0.30381  0.21525  1.0000
  C   C5086     1.0  0.60253  0.28353  0.21031  1.0000
  C   C5087     1.0  0.59394  0.27063  0.21709  1.0000
  C   C5088     1.0  0.60009  0.25552  0.21213  1.0000
  C   C5089     1.0  0.61475  0.25318  0.20014  1.0000
  C   C5090     1.0  0.62350  0.26585  0.19339  1.0000
  C   C5091     1.0  0.61749  0.28092  0.19853  1.0000
  C   C5092     1.0  0.59632  0.31845  0.19557  1.0000
  C   C5093     1.0  0.60672  0.32974  0.19134  1.0000
  C   C5094     1.0  0.60745  0.34144  0.17638  1.0000
  C   C5095     1.0  0.59816  0.34168  0.16537  1.0000
  C   C5096     1.0  0.58847  0.32996  0.16912  1.0000
  C   C5097     1.0  0.58766  0.31831  0.18407  1.0000
  C   C5098     1.0  0.55593  0.26516  0.29207  1.0000
  H   H4063     1.0  0.54789  0.28931  0.26144  1.0000
  H   H4064     1.0  0.57722  0.28616  0.24675  1.0000
  C   C5099     1.0  0.61374  0.40890  0.13533  1.0000
  S   S680      1.0  0.53140  0.23228  0.29077  1.0000
  H   H4065     1.0  0.63471  0.26410  0.18388  1.0000
  H   H4066     1.0  0.62422  0.29075  0.19293  1.0000
  H   H4067     1.0  0.61428  0.32974  0.19942  1.0000
  H   H4068     1.0  0.61510  0.35044  0.17338  1.0000
  H   H4069     1.0  0.59860  0.35090  0.15391  1.0000
  H   H4070     1.0  0.64243  0.43797  0.19675  1.0000
  C   C5100     1.0  0.67318  0.40703  0.15171  1.0000
  Fe  Fe348     1.0  0.73338  0.29848  0.40180  1.0000
  P   P172      1.0  0.70210  0.40388  0.18346  1.0000
  H   H4071     1.0  0.68654  0.38198  0.21273  1.0000
  S   S681      1.0  0.72969  0.28798  0.10917  1.0000
  H   H4072     1.0  0.71571  0.34166  0.30761  1.0000
  P   P173      1.0  0.57154  0.44222  0.16557  1.0000
  H   H4073     1.0  0.69276  0.26996  0.34009  1.0000
  H   H4074     1.0  0.72744  0.39801  0.23868  1.0000
  H   H4075     1.0  0.72851  0.34617  0.17766  1.0000
  Fe  Fe349     1.0  0.71599  0.44495  0.27346  1.0000
  C   C5101     1.0  0.68517  0.40128  0.16127  1.0000
  H   H4076     1.0  0.73563  0.32918  0.27839  1.0000
  S   S682      1.0  0.71617  0.47213  0.26435  1.0000
  C   C5102     1.0  0.68200  0.47289  0.24489  1.0000
  H   H4077     1.0  0.73748  0.43964  0.14214  1.0000
  H   H4078     1.0  0.71788  0.34887  0.40512  1.0000
  C   C5103     1.0  0.69581  0.37434  0.20500  1.0000
  C   C5104     1.0  0.72815  0.34102  0.25552  1.0000
  C   C5105     1.0  0.56467  0.43049  0.18613  1.0000
  C   C5106     1.0  0.73754  0.38823  0.23469  1.0000
  H   H4079     1.0  0.56163  0.35667  0.14459  1.0000
  C   C5107     1.0  0.62060  0.39594  0.29466  1.0000
  C   C5108     1.0  0.70518  0.30817  0.31639  1.0000
  C   C5109     1.0  0.52359  0.27958  0.15599  1.0000
  H   H4080     1.0  0.62796  0.31668  0.25675  1.0000
  H   H4081     1.0  0.58222  0.27216  0.22583  1.0000
  H   H4082     1.0  0.61783  0.28208  0.23530  1.0000
  C   C5110     1.0  0.70513  0.38158  0.18996  1.0000
  C   C5111     1.0  0.56981  0.43187  0.19966  1.0000
  C   C5112     1.0  0.62379  0.29784  0.24722  1.0000
  H   H4083     1.0  0.57107  0.27925  0.18557  1.0000
  C   C5113     1.0  0.60489  0.30756  0.22856  1.0000
  C   C5114     1.0  0.54980  0.40962  0.20427  1.0000
  C   C5115     1.0  0.69447  0.41313  0.20130  1.0000
  H   H4084     1.0  0.56739  0.44562  0.13181  1.0000
  H   H4085     1.0  0.58240  0.40600  0.16921  1.0000
  C   C5116     1.0  0.62882  0.26011  0.30597  1.0000
  C   C5117     1.0  0.61139  0.42614  0.13037  1.0000
  C   C5118     1.0  0.69431  0.42245  0.44747  1.0000
  H   H4086     1.0  0.62162  0.39226  0.34017  1.0000
  C   C5119     1.0  0.60792  0.40355  0.32103  1.0000
  H   H4087     1.0  0.59788  0.41071  0.32867  1.0000
  H   H4088     1.0  0.64417  0.37901  0.29289  1.0000
  H   H4089     1.0  0.59162  0.39278  0.12227  1.0000
  H   H4090     1.0  0.69099  0.35170  0.22182  1.0000
  H   H4091     1.0  0.56580  0.38491  0.14052  1.0000
  H   H4092     1.0  0.69247  0.38874  0.16179  1.0000
  S   S683      1.0  0.59573  0.24338  0.34603  1.0000
  H   H4093     1.0  0.63526  0.42686  0.29889  1.0000
  S   S684      1.0  0.60660  0.44227  0.20907  1.0000
  P   P174      1.0  0.72638  0.29674  0.28883  1.0000
  C   C5120     1.0  0.62138  0.31403  0.24911  1.0000
  H   H4094     1.0  0.63250  0.24723  0.31206  1.0000
  H   H4095     1.0  0.69082  0.29177  0.46308  1.0000
  C   C5121     1.0  0.67738  0.41755  0.20782  1.0000
  C   C5122     1.0  0.55392  0.45018  0.15597  1.0000
  C   C5123     1.0  0.68765  0.23505  0.09885  1.0000
  H   H4096     1.0  0.66857  0.41466  0.20287  1.0000
  H   H4097     1.0  0.54757  0.29732  0.36293  1.0000
  C   C5124     1.0  0.57863  0.26836  0.18108  1.0000
  H   H4098     1.0  0.71256  0.33357  0.20456  1.0000
  C   C5125     1.0  0.50753  0.27771  0.16432  1.0000
  C   C5126     1.0  0.63542  0.43709  0.30383  1.0000
  H   H4099     1.0  0.70887  0.32492  0.23625  1.0000
  H   H4100     1.0  0.67234  0.46566  0.30308  1.0000
  C   C5127     1.0  0.52612  0.46203  0.14163  1.0000
  C   C5128     1.0  0.70710  0.29967  0.30406  1.0000
  H   H4101     1.0  0.66183  0.24248  0.40879  1.0000
  H   H4102     1.0  0.71733  0.26476  0.30654  1.0000
  C   C5129     1.0  0.72209  0.42390  0.15984  1.0000
  H   H4103     1.0  0.54295  0.45603  0.11939  1.0000
  C   C5130     1.0  0.70161  0.38489  0.46821  1.0000
  H   H4104     1.0  0.70761  0.24141  0.19640  1.0000
  Fe  Fe350     1.0  0.72617  0.27566  0.38436  1.0000
  H   H4105     1.0  0.53671  0.45612  0.17824  1.0000
  C   C5131     1.0  0.72410  0.47609  0.29181  1.0000
  C   C5132     1.0  0.59808  0.24057  0.16890  1.0000
  H   H4106     1.0  0.71517  0.31301  0.31705  1.0000
  H   H4107     1.0  0.67894  0.25572  0.02429  1.0000
  H   H4108     1.0  0.54025  0.27381  0.18900  1.0000
  H   H4109     1.0  0.61913  0.24165  0.19589  1.0000
  Fe  Fe351     1.0  0.72930  0.28487  0.13604  1.0000
  C   C5133     1.0  0.63285  0.25262  0.44671  1.0000
  S   S685      1.0  0.63616  0.26640  0.45664  1.0000
  H   H4110     1.0  0.60339  0.44308  0.17072  1.0000
  C   C5134     1.0  0.67388  0.47636  0.26038  1.0000
  C   C5135     1.0  0.69141  0.33324  0.45230  1.0000
  C   C5136     1.0  0.68385  0.24750  0.08521  1.0000
  H   H4111     1.0  0.73369  0.26154  0.46269  1.0000
  C   C5137     1.0  0.73718  0.42858  0.15190  1.0000
  C   C5138     1.0  0.70235  0.36799  0.41783  1.0000
  C   C5139     1.0  0.69154  0.44365  0.42253  1.0000
  S   S686      1.0  0.73398  0.29093  0.35928  1.0000
  H   H4112     1.0  0.54786  0.27950  0.15845  1.0000
  C   C5140     1.0  0.72716  0.24878  0.28935  1.0000
  H   H4113     1.0  0.69616  0.45464  0.19723  1.0000
  C   C5141     1.0  0.57525  0.25268  0.18881  1.0000
  C   C5142     1.0  0.71232  0.30667  0.98336  1.0000
  H   H4114     1.0  0.61739  0.29852  0.46453  1.0000
  H   H4115     1.0  0.69165  0.36891  0.41309  1.0000
  C   C5143     1.0  0.70218  0.43257  0.41302  1.0000
  H   H4116     1.0  0.70264  0.25507  0.43431  1.0000
  H   H4117     1.0  0.61167  0.25759  0.15061  1.0000
  H   H4118     1.0  0.71733  0.40807  0.41315  1.0000
  H   H4119     1.0  0.68120  0.47678  0.26852  1.0000
  C   C5144     1.0  0.71709  0.35673  0.41329  1.0000
  H   H4120     1.0  0.51235  0.46648  0.16554  1.0000
  C   C5145     1.0  0.53544  0.27797  0.16489  1.0000
  H   H4121     1.0  0.72373  0.34863  0.36485  1.0000
  H   H4122     1.0  0.73780  0.36527  0.46502  1.0000
  H   H4123     1.0  0.67909  0.46998  0.22191  1.0000
  H   H4124     1.0  0.67948  0.44724  0.44712  1.0000
  H   H4125     1.0  0.71172  0.30184  0.26050  1.0000
  C   C5146     1.0  0.53825  0.45614  0.16535  1.0000
  H   H4126     1.0  0.73632  0.38907  0.18703  1.0000
  C   C5147     1.0  0.54167  0.45616  0.13220  1.0000
  C   C5148     1.0  0.73091  0.35556  0.41931  1.0000
  S   S687      1.0  0.72737  0.30140  0.42827  1.0000
  H   H4127     1.0  0.73037  0.37643  0.35318  1.0000
  C   C5149     1.0  0.69840  0.23317  0.23054  1.0000
  C   C5150     1.0  0.73551  0.35446  0.29555  1.0000
  H   H4128     1.0  0.69031  0.24380  0.26796  1.0000
  C   C5151     1.0  0.57532  0.23910  0.32880  1.0000
  H   H4129     1.0  0.69101  0.47510  0.31382  1.0000
  H   H4130     1.0  0.52020  0.23829  0.20111  1.0000
  C   C5152     1.0  0.68143  0.23635  0.29422  1.0000
  C   C5153     1.0  0.68563  0.24345  0.07015  1.0000
  H   H4131     1.0  0.68626  0.23863  0.11028  1.0000
  H   H4132     1.0  0.72493  0.28814  0.00100  1.0000
  H   H4133     1.0  0.73234  0.29165  0.16440  1.0000
  C   C5154     1.0  0.67221  0.23959  0.42965  1.0000
  C   C5155     1.0  0.73656  0.28130  0.17375  1.0000
  H   H4134     1.0  0.70498  0.23586  0.02824  1.0000
  H   H4135     1.0  0.68245  0.23331  0.45092  1.0000
  C   C5156     1.0  0.73673  0.24694  0.27372  1.0000
  S   S688      1.0  0.73684  0.26101  0.15396  1.0000
  C   C5157     1.0  0.73581  0.37923  0.22418  1.0000
  H   H4136     1.0  0.64354  0.34473  0.45985  1.0000
  C   C5158     1.0  0.67287  0.47244  0.23401  1.0000
  C   C5159     1.0  0.65560  0.47524  0.23873  1.0000
  C   C5160     1.0  0.64744  0.47869  0.25423  1.0000
  C   C5161     1.0  0.65653  0.47931  0.26517  1.0000
  H   H4137     1.0  0.55770  0.47815  0.16345  1.0000
  C   C5162     1.0  0.57021  0.47524  0.16527  1.0000
  C   C5163     1.0  0.70241  0.47590  0.17875  1.0000
  H   H4138     1.0  0.61469  0.46559  0.17269  1.0000
  C   C5164     1.0  0.60238  0.46837  0.17032  1.0000
  H   H4139     1.0  0.73314  0.47497  0.14029  1.0000
  C   C5165     1.0  0.73134  0.47737  0.17152  1.0000
  S   S689      1.0  0.61371  0.23265  0.08226  1.0000
  S   S690      1.0  0.73671  0.42496  0.28195  1.0000
  C   C5166     1.0  0.72513  0.29355  0.98803  1.0000
  C   C5167     1.0  0.73787  0.30956  0.43797  1.0000
  H   H4140     1.0  0.63404  0.48084  0.25767  1.0000
  H   H4141     1.0  0.73819  0.25566  0.02036  1.0000
  C   C5168     1.0  0.73809  0.28725  0.97596  1.0000
  H   H4142     1.0  0.70206  0.27474  0.97405  1.0000
  S   S691      1.0  0.52202  0.25856  0.63857  1.0000
  S   S692      1.0  0.51512  0.24792  0.60026  1.0000
  Fe  Fe352     1.0  0.67120  0.25785  0.49776  1.0000
  S   S693      1.0  0.69580  0.26470  0.49324  1.0000
  S   S694      1.0  0.64790  0.27624  0.49295  1.0000
  S   S695      1.0  0.69911  0.31780  0.52983  1.0000
  C   C5169     1.0  0.73657  0.33434  0.71334  1.0000
  H   H4143     1.0  0.52495  0.32683  0.67111  1.0000
  C   C5170     1.0  0.50389  0.32426  0.66417  1.0000
  H   H4144     1.0  0.72171  0.47422  0.64035  1.0000
  H   H4145     1.0  0.71814  0.45310  0.62837  1.0000
  Fe  Fe353     1.0  0.64428  0.25761  0.48107  1.0000
  S   S696      1.0  0.67988  0.23316  0.76340  1.0000
  Fe  Fe354     1.0  0.57026  0.29849  0.67304  1.0000
  S   S697      1.0  0.55635  0.28571  0.69704  1.0000
  S   S698      1.0  0.57492  0.29123  0.64863  1.0000
  Fe  Fe355     1.0  0.57767  0.32251  0.68899  1.0000
  S   S699      1.0  0.56359  0.31214  0.71415  1.0000
  S   S700      1.0  0.59305  0.34205  0.68148  1.0000
  Fe  Fe356     1.0  0.57644  0.28739  0.70797  1.0000
  S   S701      1.0  0.58584  0.26671  0.72802  1.0000
  S   S702      1.0  0.59164  0.29770  0.68353  1.0000
  S   S703      1.0  0.55738  0.32423  0.67638  1.0000
  Fe  Fe357     1.0  0.64878  0.40857  0.68699  1.0000
  S   S704      1.0  0.62260  0.41747  0.70023  1.0000
  S   S705      1.0  0.65763  0.41117  0.65949  1.0000
  Fe  Fe358     1.0  0.66146  0.39613  0.71842  1.0000
  S   S706      1.0  0.63652  0.40364  0.73446  1.0000
  S   S707      1.0  0.68556  0.38436  0.72631  1.0000
  Fe  Fe359     1.0  0.62715  0.39313  0.71850  1.0000
  S   S708      1.0  0.60941  0.37574  0.73020  1.0000
  Fe  Fe360     1.0  0.63430  0.42726  0.71490  1.0000
  S   S709      1.0  0.65250  0.38360  0.70415  1.0000
  S   S710      1.0  0.65999  0.42035  0.69998  1.0000
  H   H4146     1.0  0.65750  0.23617  0.82806  1.0000
  C   C5171     1.0  0.49376  0.24484  0.70646  1.0000
  C   C5172     1.0  0.62593  0.25162  0.77652  1.0000
  Fe  Fe361     1.0  0.71587  0.27998  0.80493  1.0000
  S   S711      1.0  0.70873  0.29895  0.82034  1.0000
  S   S712      1.0  0.70643  0.25665  0.81422  1.0000
  Fe  Fe362     1.0  0.70423  0.31728  0.79706  1.0000
  S   S713      1.0  0.68121  0.33755  0.79732  1.0000
  S   S714      1.0  0.54697  0.25633  0.55819  1.0000
  P   P175      1.0  0.62448  0.24365  0.64177  1.0000
  S   S715      1.0  0.70891  0.29807  0.78249  1.0000
  C   C5173     1.0  0.73812  0.23907  0.94241  1.0000
  H   H4147     1.0  0.73192  0.46257  0.56597  1.0000
  C   C5174     1.0  0.67930  0.37227  0.48683  1.0000
  H   H4148     1.0  0.49906  0.35133  0.69724  1.0000
  C   C5175     1.0  0.50327  0.30901  0.70735  1.0000
  H   H4149     1.0  0.71662  0.36449  0.77658  1.0000
  H   H4150     1.0  0.67864  0.45907  0.72362  1.0000
  C   C5176     1.0  0.71332  0.24424  0.79959  1.0000
  C   C5177     1.0  0.61799  0.23834  0.78343  1.0000
  C   C5178     1.0  0.71527  0.30287  0.61794  1.0000
  H   H4151     1.0  0.67469  0.37330  0.51240  1.0000
  S   S716      1.0  0.66867  0.24041  0.48391  1.0000
  C   C5179     1.0  0.69988  0.45249  0.67490  1.0000
  C   C5180     1.0  0.57349  0.26385  0.56416  1.0000
  C   C5181     1.0  0.72333  0.46692  0.71861  1.0000
  H   H4152     1.0  0.66982  0.36540  0.48894  1.0000
  C   C5182     1.0  0.49028  0.25242  0.71977  1.0000
  C   C5183     1.0  0.54163  0.24916  0.74096  1.0000
  C   C5184     1.0  0.64584  0.23251  0.64123  1.0000
  C   C5185     1.0  0.70715  0.37425  0.78151  1.0000
  H   H4153     1.0  0.60549  0.24805  0.75138  1.0000
  C   C5186     1.0  0.67895  0.32525  0.48636  1.0000
  H   H4154     1.0  0.61580  0.23347  0.56756  1.0000
  C   C5187     1.0  0.69216  0.33327  0.48011  1.0000
  H   H4155     1.0  0.66237  0.31407  0.48085  1.0000
  H   H4156     1.0  0.67139  0.25548  0.79714  1.0000
  H   H4157     1.0  0.54710  0.32206  0.57268  1.0000
  H   H4158     1.0  0.63229  0.41196  0.76786  1.0000
  C   C5188     1.0  0.63804  0.46335  0.72381  1.0000
  H   H4159     1.0  0.65998  0.44466  0.71837  1.0000
  C   C5189     1.0  0.59780  0.23388  0.48875  1.0000
  C   C5190     1.0  0.68406  0.37158  0.74613  1.0000
  C   C5191     1.0  0.69759  0.35880  0.74964  1.0000
  C   C5192     1.0  0.69651  0.34805  0.76521  1.0000
  C   C5193     1.0  0.68219  0.35055  0.77760  1.0000
  C   C5194     1.0  0.66877  0.36358  0.77423  1.0000
  C   C5195     1.0  0.66960  0.37393  0.75839  1.0000
  H   H4160     1.0  0.70880  0.35693  0.74020  1.0000
  H   H4161     1.0  0.70685  0.33794  0.76762  1.0000
  H   H4162     1.0  0.65772  0.36559  0.78381  1.0000
  H   H4163     1.0  0.65912  0.38374  0.75570  1.0000
  C   C5196     1.0  0.60746  0.26117  0.72605  1.0000
  C   C5197     1.0  0.61836  0.26567  0.71102  1.0000
  C   C5198     1.0  0.63558  0.26060  0.70978  1.0000
  C   C5199     1.0  0.64193  0.25107  0.72358  1.0000
  C   C5200     1.0  0.49853  0.29028  0.69360  1.0000
  C   C5201     1.0  0.61386  0.25154  0.73974  1.0000
  H   H4164     1.0  0.61359  0.27286  0.70031  1.0000
  H   H4165     1.0  0.64396  0.26422  0.69817  1.0000
  C   C5202     1.0  0.59135  0.25756  0.78554  1.0000
  H   H4166     1.0  0.69976  0.23546  0.89901  1.0000
  C   C5203     1.0  0.59789  0.35059  0.69551  1.0000
  C   C5204     1.0  0.59146  0.34663  0.71255  1.0000
  C   C5205     1.0  0.59522  0.35423  0.72315  1.0000
  C   C5206     1.0  0.60540  0.36582  0.71679  1.0000
  C   C5207     1.0  0.61211  0.36946  0.69981  1.0000
  C   C5208     1.0  0.60834  0.36190  0.68924  1.0000
  H   H4167     1.0  0.58334  0.33800  0.71750  1.0000
  H   H4168     1.0  0.58995  0.35137  0.73626  1.0000
  H   H4169     1.0  0.61994  0.37838  0.69477  1.0000
  H   H4170     1.0  0.61333  0.36506  0.67608  1.0000
  C   C5209     1.0  0.71398  0.39478  0.64621  1.0000
  C   C5210     1.0  0.70542  0.39162  0.66269  1.0000
  C   C5211     1.0  0.68813  0.39674  0.66678  1.0000
  C   C5212     1.0  0.67930  0.40486  0.65436  1.0000
  C   C5213     1.0  0.68788  0.40798  0.63783  1.0000
  C   C5214     1.0  0.70525  0.40307  0.63375  1.0000
  H   H4171     1.0  0.71218  0.38524  0.67230  1.0000
  H   H4172     1.0  0.68164  0.39432  0.67956  1.0000
  H   H4173     1.0  0.68110  0.41437  0.62821  1.0000
  H   H4174     1.0  0.71184  0.40558  0.62101  1.0000
  C   C5215     1.0  0.63419  0.31830  0.81650  1.0000
  C   C5216     1.0  0.66358  0.25677  0.83295  1.0000
  H   H4175     1.0  0.69860  0.47791  0.75707  1.0000
  C   C5217     1.0  0.73735  0.41403  0.54850  1.0000
  C   C5218     1.0  0.69615  0.27980  0.50328  1.0000
  C   C5219     1.0  0.68312  0.28444  0.51618  1.0000
  C   C5220     1.0  0.68406  0.29609  0.52436  1.0000
  C   C5221     1.0  0.69798  0.30320  0.51958  1.0000
  C   C5222     1.0  0.71086  0.29866  0.50659  1.0000
  C   C5223     1.0  0.70993  0.28706  0.49846  1.0000
  H   H4176     1.0  0.67241  0.27892  0.51997  1.0000
  H   H4177     1.0  0.67401  0.29957  0.53438  1.0000
  H   H4178     1.0  0.72157  0.30410  0.50276  1.0000
  H   H4179     1.0  0.71989  0.28384  0.48832  1.0000
  C   C5224     1.0  0.53626  0.26893  0.64028  1.0000
  C   C5225     1.0  0.53309  0.27533  0.65437  1.0000
  C   C5226     1.0  0.54484  0.28224  0.65703  1.0000
  C   C5227     1.0  0.55963  0.28330  0.64530  1.0000
  C   C5228     1.0  0.56244  0.27772  0.63076  1.0000
  C   C5229     1.0  0.55087  0.27036  0.62833  1.0000
  H   H4180     1.0  0.52184  0.27421  0.66360  1.0000
  H   H4181     1.0  0.54243  0.28674  0.66814  1.0000
  H   H4182     1.0  0.57361  0.27903  0.62138  1.0000
  H   H4183     1.0  0.55324  0.26588  0.61722  1.0000
  S   S717      1.0  0.73178  0.33721  0.53686  1.0000
  C   C5230     1.0  0.72150  0.27969  0.54861  1.0000
  H   H4184     1.0  0.57794  0.25986  0.78853  1.0000
  H   H4185     1.0  0.70306  0.43135  0.64583  1.0000
  P   P176      1.0  0.50052  0.31577  0.62105  1.0000
  H   H4186     1.0  0.68977  0.32101  0.64971  1.0000
  H   H4187     1.0  0.57228  0.25476  0.68284  1.0000
  H   H4188     1.0  0.56862  0.30281  0.87429  1.0000
  Fe  Fe363     1.0  0.63557  0.26141  0.51671  1.0000
  C   C5231     1.0  0.73519  0.45889  0.68757  1.0000
  H   H4189     1.0  0.57369  0.32616  0.85044  1.0000
  H   H4190     1.0  0.58577  0.24700  0.70646  1.0000
  H   H4191     1.0  0.60182  0.32656  0.83360  1.0000
  C   C5232     1.0  0.63811  0.31375  0.80125  1.0000
  H   H4192     1.0  0.62794  0.33894  0.82847  1.0000
  H   H4193     1.0  0.59432  0.27017  0.56834  1.0000
  C   C5233     1.0  0.55182  0.23341  0.74042  1.0000
  C   C5234     1.0  0.63352  0.34277  0.78725  1.0000
  Fe  Fe364     1.0  0.73507  0.30149  0.81061  1.0000
  H   H4194     1.0  0.71441  0.33223  0.57480  1.0000
  C   C5235     1.0  0.70384  0.39015  0.77156  1.0000
  H   H4195     1.0  0.60093  0.32288  0.47622  1.0000
  C   C5236     1.0  0.73178  0.35148  0.70803  1.0000
  Fe  Fe365     1.0  0.73529  0.30053  0.77579  1.0000
  H   H4196     1.0  0.64154  0.30084  0.80049  1.0000
  Fe  Fe366     1.0  0.54032  0.24134  0.58399  1.0000
  H   H4197     1.0  0.52723  0.27092  0.72769  1.0000
  C   C5237     1.0  0.72917  0.25497  0.93688  1.0000
  H   H4198     1.0  0.56653  0.26350  0.57670  1.0000
  H   H4199     1.0  0.73177  0.24633  0.49175  1.0000
  C   C5238     1.0  0.61236  0.24336  0.66259  1.0000
  C   C5239     1.0  0.63001  0.34735  0.80233  1.0000
  H   H4200     1.0  0.60125  0.24580  0.48361  1.0000
  C   C5240     1.0  0.49070  0.36816  0.65908  1.0000
  C   C5241     1.0  0.71679  0.34999  0.65675  1.0000
  C   C5242     1.0  0.70450  0.44070  0.65119  1.0000
  C   C5243     1.0  0.53491  0.23541  0.67801  1.0000
  S   S718      1.0  0.73555  0.38790  0.64156  1.0000
  C   C5244     1.0  0.70116  0.30676  0.67006  1.0000
  C   C5245     1.0  0.71342  0.42239  0.71087  1.0000
  H   H4201     1.0  0.70775  0.25877  0.84713  1.0000
  H   H4202     1.0  0.68321  0.26209  0.90568  1.0000
  H   H4203     1.0  0.49469  0.25045  0.74362  1.0000
  H   H4204     1.0  0.50342  0.28103  0.68622  1.0000
  H   H4205     1.0  0.62716  0.36035  0.80268  1.0000
  C   C5246     1.0  0.58918  0.26774  0.55939  1.0000
  C   C5247     1.0  0.63104  0.24635  0.73845  1.0000
  C   C5248     1.0  0.71469  0.46518  0.64820  1.0000
  H   H4206     1.0  0.52834  0.24316  0.68674  1.0000
  H   H4207     1.0  0.69789  0.33591  0.48852  1.0000
  S   S719      1.0  0.62989  0.24441  0.50451  1.0000
  C   C5249     1.0  0.68606  0.27540  0.88027  1.0000
  H   H4208     1.0  0.62967  0.25160  0.82384  1.0000
  C   C5250     1.0  0.49813  0.32094  0.65214  1.0000
  H   H4209     1.0  0.72509  0.31220  0.94162  1.0000
  C   C5251     1.0  0.60157  0.24474  0.62389  1.0000
  C   C5252     1.0  0.65503  0.45646  0.72190  1.0000
  C   C5253     1.0  0.63206  0.27430  0.82821  1.0000
  C   C5254     1.0  0.65323  0.24895  0.82933  1.0000
  H   H4210     1.0  0.55526  0.24787  0.66915  1.0000
  H   H4211     1.0  0.68859  0.33212  0.59653  1.0000
  H   H4212     1.0  0.69606  0.42316  0.79529  1.0000
  H   H4213     1.0  0.70396  0.44454  0.80358  1.0000
  H   H4214     1.0  0.59857  0.26573  0.51897  1.0000
  C   C5255     1.0  0.69776  0.37068  0.79758  1.0000
  C   C5256     1.0  0.70018  0.32428  0.59923  1.0000
  H   H4215     1.0  0.69651  0.38888  0.50763  1.0000
  H   H4216     1.0  0.64794  0.31240  0.88391  1.0000
  C   C5257     1.0  0.70269  0.30613  0.68594  1.0000
  C   C5258     1.0  0.69395  0.31922  0.69387  1.0000
  C   C5259     1.0  0.68437  0.33327  0.68534  1.0000
  P   P177      1.0  0.69517  0.31849  0.71461  1.0000
  C   C5260     1.0  0.67481  0.32748  0.72515  1.0000
  C   C5261     1.0  0.69955  0.29743  0.72646  1.0000
  C   C5262     1.0  0.69291  0.28533  0.72401  1.0000
  C   C5263     1.0  0.69613  0.26900  0.73306  1.0000
  C   C5264     1.0  0.70581  0.26466  0.74480  1.0000
  C   C5265     1.0  0.71187  0.27674  0.74784  1.0000
  C   C5266     1.0  0.70840  0.29315  0.73902  1.0000
  C   C5267     1.0  0.67304  0.33633  0.73712  1.0000
  C   C5268     1.0  0.65730  0.34409  0.74460  1.0000
  C   C5269     1.0  0.64322  0.34292  0.74036  1.0000
  C   C5270     1.0  0.64484  0.33378  0.72872  1.0000
  C   C5271     1.0  0.66057  0.32585  0.72133  1.0000
  C   C5272     1.0  0.70959  0.33119  0.71254  1.0000
  C   C5273     1.0  0.70194  0.46253  0.78083  1.0000
  H   H4217     1.0  0.73472  0.31049  0.68457  1.0000
  C   C5274     1.0  0.62001  0.23932  0.67603  1.0000
  C   C5275     1.0  0.71600  0.35853  0.70484  1.0000
  C   C5276     1.0  0.70490  0.34848  0.70719  1.0000
  H   H4218     1.0  0.63929  0.24897  0.77228  1.0000
  C   C5277     1.0  0.53497  0.25861  0.72737  1.0000
  H   H4219     1.0  0.53364  0.25987  0.70257  1.0000
  H   H4220     1.0  0.71047  0.29533  0.69207  1.0000
  H   H4221     1.0  0.67784  0.34376  0.69098  1.0000
  H   H4222     1.0  0.68511  0.28848  0.71520  1.0000
  H   H4223     1.0  0.69102  0.25970  0.73107  1.0000
  H   H4224     1.0  0.70831  0.25200  0.75180  1.0000
  H   H4225     1.0  0.71899  0.27345  0.75729  1.0000
  H   H4226     1.0  0.71237  0.30240  0.74239  1.0000
  H   H4227     1.0  0.68381  0.33752  0.74047  1.0000
  H   H4228     1.0  0.65608  0.35131  0.75344  1.0000
  H   H4229     1.0  0.63107  0.34925  0.74596  1.0000
  H   H4230     1.0  0.63391  0.33316  0.72519  1.0000
  H   H4231     1.0  0.66156  0.31882  0.71236  1.0000
  H   H4232     1.0  0.67321  0.32258  0.86729  1.0000
  H   H4233     1.0  0.67750  0.38007  0.81607  1.0000
  H   H4234     1.0  0.61567  0.27486  0.65352  1.0000
  H   H4235     1.0  0.71214  0.37186  0.70102  1.0000
  H   H4236     1.0  0.69256  0.35435  0.70506  1.0000
  H   H4237     1.0  0.71997  0.41890  0.51607  1.0000
  H   H4238     1.0  0.71503  0.29402  0.62965  1.0000
  C   C5278     1.0  0.73220  0.39536  0.52875  1.0000
  H   H4239     1.0  0.66181  0.45535  0.76379  1.0000
  C   C5279     1.0  0.72269  0.25864  0.53440  1.0000
  C   C5280     1.0  0.71360  0.26970  0.54454  1.0000
  H   H4240     1.0  0.62044  0.27988  0.86459  1.0000
  C   C5281     1.0  0.50946  0.29682  0.69806  1.0000
  C   C5282     1.0  0.59839  0.26810  0.54316  1.0000
  C   C5283     1.0  0.70044  0.31359  0.61470  1.0000
  C   C5284     1.0  0.73423  0.26883  0.93748  1.0000
  Fe  Fe367     1.0  0.72319  0.32648  0.52064  1.0000
  H   H4241     1.0  0.61977  0.28088  0.82647  1.0000
  H   H4242     1.0  0.70031  0.27102  0.54871  1.0000
  H   H4243     1.0  0.71870  0.47015  0.73057  1.0000
  H   H4244     1.0  0.61304  0.30397  0.63885  1.0000
  H   H4245     1.0  0.69013  0.42116  0.70729  1.0000
  C   C5285     1.0  0.71607  0.34644  0.64218  1.0000
  C   C5286     1.0  0.53864  0.25237  0.71317  1.0000
  H   H4246     1.0  0.63115  0.25997  0.60671  1.0000
  C   C5287     1.0  0.69666  0.42202  0.71594  1.0000
  C   C5288     1.0  0.69821  0.24632  0.88910  1.0000
  H   H4247     1.0  0.71877  0.25653  0.93143  1.0000
  C   C5289     1.0  0.70482  0.23210  0.80094  1.0000
  H   H4248     1.0  0.67168  0.40835  0.79872  1.0000
  C   C5290     1.0  0.63873  0.42130  0.76741  1.0000
  H   H4249     1.0  0.67586  0.25000  0.83463  1.0000
  C   C5291     1.0  0.52049  0.32479  0.66145  1.0000
  H   H4250     1.0  0.73499  0.37219  0.61590  1.0000
  H   H4251     1.0  0.63115  0.30340  0.87059  1.0000
  H   H4252     1.0  0.71432  0.28871  0.55594  1.0000
  C   C5292     1.0  0.69681  0.42298  0.74369  1.0000
  C   C5293     1.0  0.72565  0.32422  0.71538  1.0000
  C   C5294     1.0  0.72542  0.30712  0.95452  1.0000
  H   H4253     1.0  0.72408  0.29010  0.84926  1.0000
  Fe  Fe368     1.0  0.54451  0.31135  0.70117  1.0000
  C   C5295     1.0  0.69812  0.44034  0.66799  1.0000
  C   C5296     1.0  0.66146  0.31351  0.83694  1.0000
  C   C5297     1.0  0.69123  0.40271  0.77774  1.0000
  H   H4254     1.0  0.57046  0.25979  0.52713  1.0000
  H   H4255     1.0  0.72272  0.27168  0.87724  1.0000
  C   C5298     1.0  0.69667  0.43496  0.78676  1.0000
  H   H4256     1.0  0.66543  0.31394  0.82379  1.0000
  H   H4257     1.0  0.67874  0.28705  0.88325  1.0000
  C   C5299     1.0  0.70778  0.46529  0.66496  1.0000
  H   H4258     1.0  0.49684  0.37272  0.64649  1.0000
  S   S720      1.0  0.61822  0.27244  0.53764  1.0000
  C   C5300     1.0  0.56675  0.26085  0.55258  1.0000
  C   C5301     1.0  0.72645  0.41257  0.52593  1.0000
  H   H4259     1.0  0.67429  0.32193  0.49957  1.0000
  C   C5302     1.0  0.50872  0.31875  0.63693  1.0000
  S   S721      1.0  0.62433  0.45271  0.72127  1.0000
  C   C5303     1.0  0.69107  0.32054  0.66194  1.0000
  C   C5304     1.0  0.65822  0.27335  0.83426  1.0000
  H   H4260     1.0  0.68899  0.31312  0.62393  1.0000
  C   C5305     1.0  0.72207  0.42261  0.72225  1.0000
  S   S722      1.0  0.65926  0.24444  0.52247  1.0000
  C   C5306     1.0  0.65557  0.41686  0.76770  1.0000
  C   C5307     1.0  0.64701  0.30800  0.84614  1.0000
  C   C5308     1.0  0.59928  0.27088  0.77900  1.0000
  C   C5309     1.0  0.61668  0.26802  0.77493  1.0000
  C   C5310     1.0  0.67077  0.31887  0.84454  1.0000
  P   P178      1.0  0.62676  0.28536  0.76646  1.0000
  C   C5311     1.0  0.61419  0.30277  0.77528  1.0000
  C   C5312     1.0  0.64659  0.28185  0.77172  1.0000
  C   C5313     1.0  0.65666  0.29338  0.76385  1.0000
  C   C5314     1.0  0.67163  0.29148  0.76826  1.0000
  C   C5315     1.0  0.67699  0.27770  0.78013  1.0000
  C   C5316     1.0  0.66708  0.26622  0.78805  1.0000
  C   C5317     1.0  0.65170  0.26854  0.78431  1.0000
  C   C5318     1.0  0.60734  0.30027  0.79232  1.0000
  C   C5319     1.0  0.59785  0.31367  0.79938  1.0000
  C   C5320     1.0  0.59525  0.32968  0.78948  1.0000
  C   C5321     1.0  0.60219  0.33230  0.77254  1.0000
  C   C5322     1.0  0.61170  0.31893  0.76547  1.0000
  C   C5323     1.0  0.62848  0.29053  0.74438  1.0000
  C   C5324     1.0  0.61425  0.29824  0.73789  1.0000
  C   C5325     1.0  0.61559  0.30328  0.72081  1.0000
  C   C5326     1.0  0.63105  0.30031  0.71008  1.0000
  C   C5327     1.0  0.64515  0.29196  0.71643  1.0000
  C   C5328     1.0  0.64388  0.28698  0.73352  1.0000
  H   H4261     1.0  0.58398  0.24592  0.60989  1.0000
  H   H4262     1.0  0.69076  0.28516  0.85398  1.0000
  C   C5329     1.0  0.68202  0.37672  0.50006  1.0000
  H   H4263     1.0  0.59181  0.28337  0.77697  1.0000
  H   H4264     1.0  0.58884  0.25265  0.65504  1.0000
  H   H4265     1.0  0.65281  0.30400  0.75446  1.0000
  H   H4266     1.0  0.67914  0.30063  0.76243  1.0000
  H   H4267     1.0  0.68881  0.27581  0.78328  1.0000
  H   H4268     1.0  0.68168  0.32348  0.83719  1.0000
  H   H4269     1.0  0.56115  0.23390  0.53479  1.0000
  H   H4270     1.0  0.60933  0.28793  0.80010  1.0000
  H   H4271     1.0  0.59250  0.31165  0.81251  1.0000
  H   H4272     1.0  0.58790  0.34009  0.79490  1.0000
  H   H4273     1.0  0.60023  0.34474  0.76482  1.0000
  H   H4274     1.0  0.61709  0.32133  0.75238  1.0000
  H   H4275     1.0  0.60212  0.30049  0.74599  1.0000
  H   H4276     1.0  0.60458  0.30925  0.71584  1.0000
  H   H4277     1.0  0.63192  0.30396  0.69686  1.0000
  H   H4278     1.0  0.65696  0.28877  0.70811  1.0000
  H   H4279     1.0  0.65485  0.28005  0.73816  1.0000
  C   C5330     1.0  0.67224  0.35401  0.56725  1.0000
  C   C5331     1.0  0.68151  0.35452  0.55109  1.0000
  C   C5332     1.0  0.69344  0.36415  0.54471  1.0000
  C   C5333     1.0  0.69643  0.37290  0.55460  1.0000
  C   C5334     1.0  0.68762  0.37198  0.57106  1.0000
  C   C5335     1.0  0.67515  0.36282  0.57718  1.0000
  P   P179      1.0  0.69234  0.38283  0.58382  1.0000
  C   C5336     1.0  0.67780  0.38211  0.60357  1.0000
  C   C5337     1.0  0.71263  0.37343  0.58841  1.0000
  C   C5338     1.0  0.71641  0.37634  0.60201  1.0000
  H   H4280     1.0  0.52523  0.33153  0.59569  1.0000
  C   C5339     1.0  0.63033  0.43789  0.76587  1.0000
  H   H4281     1.0  0.70003  0.35819  0.80506  1.0000
  C   C5340     1.0  0.72477  0.36325  0.57866  1.0000
  C   C5341     1.0  0.66775  0.39671  0.60831  1.0000
  C   C5342     1.0  0.65730  0.39595  0.62402  1.0000
  C   C5343     1.0  0.65659  0.38068  0.63501  1.0000
  C   C5344     1.0  0.66640  0.36610  0.63033  1.0000
  C   C5345     1.0  0.67723  0.36682  0.61482  1.0000
  C   C5346     1.0  0.69139  0.40426  0.57313  1.0000
  C   C5347     1.0  0.68146  0.41163  0.56143  1.0000
  C   C5348     1.0  0.68015  0.42839  0.55364  1.0000
  C   C5349     1.0  0.68844  0.43801  0.55771  1.0000
  C   C5350     1.0  0.69804  0.43087  0.56957  1.0000
  C   C5351     1.0  0.69967  0.41404  0.57714  1.0000
  H   H4282     1.0  0.66280  0.34674  0.57206  1.0000
  H   H4283     1.0  0.67948  0.34746  0.54348  1.0000
  H   H4284     1.0  0.70060  0.36464  0.53214  1.0000
  H   H4285     1.0  0.70575  0.38029  0.54943  1.0000
  H   H4286     1.0  0.66759  0.36242  0.58952  1.0000
  H   H4287     1.0  0.70729  0.38404  0.60981  1.0000
  C   C5352     1.0  0.69839  0.46581  0.76527  1.0000
  S   S723      1.0  0.66345  0.24566  0.72227  1.0000
  P   P180      1.0  0.68634  0.42318  0.76488  1.0000
  H   H4288     1.0  0.72242  0.36072  0.56808  1.0000
  H   H4289     1.0  0.66808  0.40874  0.60013  1.0000
  H   H4290     1.0  0.64991  0.40726  0.62786  1.0000
  H   H4291     1.0  0.64850  0.38026  0.64721  1.0000
  H   H4292     1.0  0.66558  0.35427  0.63874  1.0000
  H   H4293     1.0  0.68514  0.35549  0.61154  1.0000
  H   H4294     1.0  0.67468  0.40450  0.55830  1.0000
  H   H4295     1.0  0.67272  0.43391  0.54442  1.0000
  H   H4296     1.0  0.68757  0.45095  0.55159  1.0000
  H   H4297     1.0  0.70465  0.43827  0.57259  1.0000
  H   H4298     1.0  0.70745  0.40881  0.58604  1.0000
  H   H4299     1.0  0.70652  0.35843  0.66277  1.0000
  H   H4300     1.0  0.49004  0.23651  0.58492  1.0000
  C   C5353     1.0  0.68503  0.38302  0.80375  1.0000
  C   C5354     1.0  0.66555  0.46466  0.72491  1.0000
  Fe  Fe369     1.0  0.52948  0.24252  0.61991  1.0000
  C   C5355     1.0  0.73090  0.34302  0.66337  1.0000
  C   C5356     1.0  0.61458  0.23475  0.63143  1.0000
  S   S724      1.0  0.51679  0.31870  0.71157  1.0000
  C   C5357     1.0  0.61040  0.24026  0.69188  1.0000
  C   C5358     1.0  0.66416  0.42897  0.76651  1.0000
  C   C5359     1.0  0.60002  0.31633  0.84403  1.0000
  H   H4301     1.0  0.72877  0.26324  0.61402  1.0000
  H   H4302     1.0  0.53909  0.25419  0.75182  1.0000
  H   H4303     1.0  0.59204  0.27970  0.88126  1.0000
  H   H4304     1.0  0.69166  0.43070  0.67557  1.0000
  H   H4305     1.0  0.67503  0.34463  0.66336  1.0000
  H   H4306     1.0  0.69482  0.45208  0.68796  1.0000
  H   H4307     1.0  0.67548  0.42134  0.73599  1.0000
  C   C5360     1.0  0.70266  0.25939  0.85997  1.0000
  H   H4308     1.0  0.64086  0.32253  0.77493  1.0000
  C   C5361     1.0  0.68275  0.33381  0.66957  1.0000
  C   C5362     1.0  0.71474  0.32434  0.58698  1.0000
  C   C5363     1.0  0.63870  0.44998  0.76498  1.0000
  H   H4309     1.0  0.66653  0.27908  0.83705  1.0000
  C   C5364     1.0  0.71284  0.45306  0.64133  1.0000
  H   H4310     1.0  0.72056  0.42349  0.74725  1.0000
  C   C5365     1.0  0.69291  0.27437  0.86381  1.0000
  H   H4311     1.0  0.52264  0.29282  0.69381  1.0000
  C   C5366     1.0  0.70567  0.24534  0.87262  1.0000
  H   H4312     1.0  0.61747  0.44145  0.76489  1.0000
  C   C5367     1.0  0.66592  0.31844  0.86145  1.0000
  C   C5368     1.0  0.53133  0.32216  0.64656  1.0000
  C   C5369     1.0  0.52551  0.31911  0.63433  1.0000
  C   C5370     1.0  0.51702  0.30838  0.60485  1.0000
  C   C5371     1.0  0.51959  0.29231  0.60242  1.0000
  C   C5372     1.0  0.53191  0.28712  0.58928  1.0000
  C   C5373     1.0  0.54173  0.29787  0.57854  1.0000
  C   C5374     1.0  0.53936  0.31381  0.58096  1.0000
  C   C5375     1.0  0.52701  0.31909  0.59402  1.0000
  H   H4313     1.0  0.72999  0.31103  0.71919  1.0000
  C   C5376     1.0  0.68176  0.39898  0.79388  1.0000
  P   P181      1.0  0.63423  0.30295  0.83564  1.0000
  C   C5377     1.0  0.71375  0.42318  0.73856  1.0000
  S   S725      1.0  0.55455  0.23790  0.60324  1.0000
  C   C5378     1.0  0.58554  0.24999  0.68102  1.0000
  C   C5379     1.0  0.60071  0.24130  0.78796  1.0000
  H   H4314     1.0  0.54438  0.32196  0.64469  1.0000
  H   H4315     1.0  0.53429  0.31661  0.62316  1.0000
  H   H4316     1.0  0.51210  0.28378  0.61057  1.0000
  H   H4317     1.0  0.53385  0.27476  0.58732  1.0000
  H   H4318     1.0  0.55115  0.29383  0.56829  1.0000
  C   C5380     1.0  0.69434  0.38543  0.49739  1.0000
  C   C5381     1.0  0.69294  0.43823  0.77118  1.0000
  H   H4319     1.0  0.65665  0.25111  0.62171  1.0000
  C   C5382     1.0  0.63780  0.32600  0.78669  1.0000
  C   C5383     1.0  0.59503  0.24873  0.66524  1.0000
  C   C5384     1.0  0.73151  0.23719  0.77421  1.0000
  C   C5385     1.0  0.73742  0.26311  0.60221  1.0000
  S   S726      1.0  0.72791  0.38491  0.51587  1.0000
  H   H4320     1.0  0.64400  0.25987  0.79138  1.0000
  C   C5386     1.0  0.65171  0.31269  0.87079  1.0000
  C   C5387     1.0  0.68838  0.42212  0.73231  1.0000
  C   C5388     1.0  0.61035  0.29013  0.86145  1.0000
  C   C5389     1.0  0.61339  0.30336  0.84798  1.0000
  C   C5390     1.0  0.58395  0.31612  0.85353  1.0000
  C   C5391     1.0  0.64231  0.28219  0.83209  1.0000
  S   S727      1.0  0.73663  0.42763  0.60576  1.0000
  C   C5392     1.0  0.64224  0.30752  0.86317  1.0000
  H   H4321     1.0  0.69130  0.45645  0.74831  1.0000
  C   C5393     1.0  0.69413  0.45365  0.76038  1.0000
  H   H4322     1.0  0.71966  0.42232  0.69816  1.0000
  C   C5394     1.0  0.63047  0.33518  0.81688  1.0000
  C   C5395     1.0  0.73213  0.36961  0.60552  1.0000
  H   H4323     1.0  0.59732  0.25773  0.62428  1.0000
  H   H4324     1.0  0.70525  0.35221  0.63691  1.0000
  C   C5396     1.0  0.68864  0.26136  0.89291  1.0000
  H   H4325     1.0  0.63309  0.35226  0.77600  1.0000
  C   C5397     1.0  0.59319  0.24574  0.69433  1.0000
  H   H4326     1.0  0.71384  0.39593  0.47992  1.0000
  C   C5398     1.0  0.73506  0.28534  0.85429  1.0000
  H   H4327     1.0  0.66202  0.40404  0.76838  1.0000
  H   H4328     1.0  0.63228  0.46289  0.76343  1.0000
  C   C5399     1.0  0.59166  0.26510  0.53158  1.0000
  C   C5400     1.0  0.59393  0.23806  0.61575  1.0000
  C   C5401     1.0  0.63752  0.25773  0.82687  1.0000
  H   H4329     1.0  0.70763  0.29647  0.66415  1.0000
  C   C5402     1.0  0.59428  0.28996  0.87090  1.0000
  C   C5403     1.0  0.62376  0.26512  0.63122  1.0000
  C   C5404     1.0  0.62746  0.26945  0.61386  1.0000
  C   C5405     1.0  0.62610  0.28608  0.60560  1.0000
  C   C5406     1.0  0.62101  0.29853  0.61459  1.0000
  C   C5407     1.0  0.61745  0.29432  0.63184  1.0000
  C   C5408     1.0  0.61889  0.27770  0.64015  1.0000
  H   H4330     1.0  0.71090  0.39235  0.75897  1.0000
  C   C5409     1.0  0.57574  0.26176  0.53622  1.0000
  C   C5410     1.0  0.65557  0.44560  0.76519  1.0000
  C   C5411     1.0  0.58108  0.30296  0.86696  1.0000
  C   C5412     1.0  0.72010  0.47033  0.69075  1.0000
  H   H4331     1.0  0.73521  0.42226  0.71846  1.0000
  H   H4332     1.0  0.73143  0.41306  0.66850  1.0000
  C   C5413     1.0  0.70418  0.38941  0.48159  1.0000
  H   H4333     1.0  0.62869  0.28934  0.59221  1.0000
  H   H4334     1.0  0.61954  0.31144  0.60821  1.0000
  H   H4335     1.0  0.72759  0.24529  0.59661  1.0000
  C   C5414     1.0  0.49728  0.24439  0.73346  1.0000
  H   H4336     1.0  0.71619  0.25164  0.53070  1.0000
  H   H4337     1.0  0.73135  0.34616  0.67451  1.0000
  C   C5415     1.0  0.72959  0.31366  0.59018  1.0000
  H   H4338     1.0  0.49381  0.32972  0.58791  1.0000
  C   C5416     1.0  0.72676  0.24672  0.78627  1.0000
  C   C5417     1.0  0.49969  0.36249  0.67152  1.0000
  C   C5418     1.0  0.70120  0.44707  0.79152  1.0000
  C   C5419     1.0  0.72939  0.33570  0.63433  1.0000
  C   C5420     1.0  0.73001  0.30298  0.60576  1.0000
  S   S728      1.0  0.73011  0.32157  0.78840  1.0000
  H   H4339     1.0  0.63588  0.23883  0.74899  1.0000
  C   C5421     1.0  0.71413  0.47417  0.70640  1.0000
  Fe  Fe370     1.0  0.73623  0.35773  0.51481  1.0000
  S   S729      1.0  0.72536  0.34819  0.49929  1.0000
  C   C5422     1.0  0.49195  0.35618  0.68769  1.0000
  H   H4340     1.0  0.49866  0.28835  0.65039  1.0000
  C   C5423     1.0  0.65895  0.23907  0.62990  1.0000
  H   H4341     1.0  0.61630  0.23708  0.70226  1.0000
  C   C5424     1.0  0.73657  0.25308  0.59237  1.0000
  C   C5425     1.0  0.54905  0.23674  0.71251  1.0000
  H   H4342     1.0  0.73274  0.47153  0.59061  1.0000
  H   H4343     1.0  0.59601  0.23486  0.51368  1.0000
  H   H4344     1.0  0.53071  0.23915  0.54386  1.0000
  C   C5426     1.0  0.72912  0.42180  0.53559  1.0000
  C   C5427     1.0  0.55011  0.23828  0.66791  1.0000
  H   H4345     1.0  0.63335  0.23586  0.67435  1.0000
  H   H4346     1.0  0.68536  0.23508  0.62003  1.0000
  H   H4347     1.0  0.72884  0.33308  0.62296  1.0000
  H   H4348     1.0  0.72470  0.43513  0.53304  1.0000
  C   C5428     1.0  0.67213  0.32094  0.47567  1.0000
  H   H4349     1.0  0.73316  0.28502  0.70672  1.0000
  H   H4350     1.0  0.67459  0.47737  0.68115  1.0000
  H   H4351     1.0  0.73336  0.25611  0.78515  1.0000
  H   H4352     1.0  0.49554  0.32603  0.67580  1.0000
  C   C5429     1.0  0.63177  0.47883  0.72825  1.0000
  H   H4353     1.0  0.70512  0.47206  0.78459  1.0000
  C   C5430     1.0  0.73428  0.27500  0.87013  1.0000
  H   H4354     1.0  0.51277  0.36261  0.66862  1.0000
  H   H4355     1.0  0.56956  0.23236  0.64720  1.0000
  C   C5431     1.0  0.65923  0.47988  0.72979  1.0000
  H   H4356     1.0  0.61403  0.34604  0.47375  1.0000
  C   C5432     1.0  0.71243  0.31340  0.96661  1.0000
  H   H4357     1.0  0.72741  0.28108  0.93273  1.0000
  C   C5433     1.0  0.73855  0.29424  0.95915  1.0000
  H   H4358     1.0  0.73159  0.23338  0.89101  1.0000
  H   H4359     1.0  0.70236  0.32342  0.96301  1.0000
  H   H4360     1.0  0.73350  0.31787  0.47559  1.0000
  H   H4361     1.0  0.73801  0.29845  0.63985  1.0000
  P   P182      1.0  0.70961  0.48101  0.67415  1.0000
  H   H4362     1.0  0.55205  0.23226  0.70134  1.0000
  C   C5434     1.0  0.73851  0.45579  0.71529  1.0000
  C   C5435     1.0  0.73852  0.27856  0.54259  1.0000
  C   C5436     1.0  0.73399  0.62881  0.24316  1.0000
  Fe  Fe371     1.0  0.61908  0.54161  0.21725  1.0000
  S   S730      1.0  0.62886  0.53805  0.19118  1.0000
  S   S731      1.0  0.59268  0.55104  0.22959  1.0000
  Fe  Fe372     1.0  0.65318  0.53317  0.22461  1.0000
  S   S732      1.0  0.66609  0.52906  0.19921  1.0000
  S   S733      1.0  0.66634  0.52866  0.24511  1.0000
  Fe  Fe373     1.0  0.64770  0.55191  0.19058  1.0000
  S   S734      1.0  0.65375  0.57254  0.16875  1.0000
  Fe  Fe374     1.0  0.64633  0.51538  0.20198  1.0000
  C   C5437     1.0  0.54464  0.71981  0.15896  1.0000
  S   S735      1.0  0.63656  0.55715  0.21581  1.0000
  S   S736      1.0  0.63482  0.51772  0.22814  1.0000
  Fe  Fe375     1.0  0.51876  0.66482  0.21126  1.0000
  S   S737      1.0  0.52829  0.63855  0.22331  1.0000
  H   H4363     1.0  0.63616  0.72582  0.18766  1.0000
  Fe  Fe376     1.0  0.55222  0.67382  0.20489  1.0000
  S   S738      1.0  0.56442  0.64822  0.21633  1.0000
  S   S739      1.0  0.56658  0.69392  0.19663  1.0000
  Fe  Fe377     1.0  0.55070  0.63996  0.20268  1.0000
  S   S740      1.0  0.56335  0.62064  0.18771  1.0000
  Fe  Fe378     1.0  0.54093  0.64945  0.23589  1.0000
  S   S741      1.0  0.54112  0.63904  0.26277  1.0000
  S   S742      1.0  0.54031  0.66557  0.18951  1.0000
  S   S743      1.0  0.52964  0.67570  0.22552  1.0000
  S   S744      1.0  0.69326  0.58444  0.25768  1.0000
  C   C5438     1.0  0.53234  0.70683  0.09253  1.0000
  C   C5439     1.0  0.49586  0.67832  0.16370  1.0000
  C   C5440     1.0  0.50711  0.69555  0.29749  1.0000
  S   S745      1.0  0.54253  0.71125  0.32612  1.0000
  H   H4364     1.0  0.59769  0.49423  0.17045  1.0000
  S   S746      1.0  0.71093  0.65119  0.40455  1.0000
  C   C5441     1.0  0.72179  0.70721  0.25655  1.0000
  C   C5442     1.0  0.60932  0.65474  0.25107  1.0000
  C   C5443     1.0  0.61181  0.49685  0.29426  1.0000
  H   H4365     1.0  0.65892  0.65623  0.45787  1.0000
  C   C5444     1.0  0.68219  0.60459  0.29564  1.0000
  C   C5445     1.0  0.69109  0.61441  0.28230  1.0000
  C   C5446     1.0  0.52322  0.71096  0.18210  1.0000
  H   H4366     1.0  0.68352  0.66268  0.46182  1.0000
  H   H4367     1.0  0.62764  0.68901  0.27553  1.0000
  H   H4368     1.0  0.70900  0.48365  0.20845  1.0000
  C   C5447     1.0  0.69908  0.66692  0.09600  1.0000
  C   C5448     1.0  0.52813  0.72414  0.08941  1.0000
  C   C5449     1.0  0.70447  0.68781  0.10646  1.0000
  C   C5450     1.0  0.69104  0.69923  0.10090  1.0000
  C   C5451     1.0  0.68183  0.69468  0.09254  1.0000
  C   C5452     1.0  0.68612  0.67859  0.08977  1.0000
  H   H4369     1.0  0.70703  0.66668  0.43276  1.0000
  C   C5453     1.0  0.65837  0.50742  0.29143  1.0000
  C   C5454     1.0  0.73494  0.55087  0.21096  1.0000
  H   H4370     1.0  0.57120  0.65947  0.24402  1.0000
  H   H4371     1.0  0.61105  0.48617  0.30438  1.0000
  H   H4372     1.0  0.61754  0.66550  0.11783  1.0000
  C   C5455     1.0  0.59353  0.66260  0.24817  1.0000
  C   C5456     1.0  0.70695  0.67255  0.39593  1.0000
  C   C5457     1.0  0.71911  0.67946  0.38364  1.0000
  C   C5458     1.0  0.71587  0.69635  0.37627  1.0000
  C   C5459     1.0  0.70052  0.70657  0.38128  1.0000
  C   C5460     1.0  0.68856  0.69980  0.39408  1.0000
  C   C5461     1.0  0.69169  0.68277  0.40130  1.0000
  H   H4373     1.0  0.73107  0.67185  0.37967  1.0000
  H   H4374     1.0  0.72543  0.70146  0.36683  1.0000
  H   H4375     1.0  0.67698  0.70761  0.39859  1.0000
  H   H4376     1.0  0.68234  0.67756  0.41106  1.0000
  C   C5462     1.0  0.49130  0.70546  0.29686  1.0000
  H   H4377     1.0  0.55256  0.71491  0.25511  1.0000
  H   H4378     1.0  0.71715  0.61216  0.34210  1.0000
  C   C5463     1.0  0.54488  0.71085  0.23514  1.0000
  C   C5464     1.0  0.54710  0.64995  0.27385  1.0000
  C   C5465     1.0  0.55395  0.64074  0.28737  1.0000
  C   C5466     1.0  0.55939  0.64852  0.29640  1.0000
  C   C5467     1.0  0.55772  0.66572  0.29232  1.0000
  C   C5468     1.0  0.55050  0.67520  0.27899  1.0000
  C   C5469     1.0  0.54527  0.66726  0.26966  1.0000
  H   H4379     1.0  0.55519  0.62747  0.29083  1.0000
  H   H4380     1.0  0.56491  0.64115  0.30669  1.0000
  C   C5470     1.0  0.72659  0.62700  0.06197  1.0000
  H   H4381     1.0  0.53986  0.67443  0.25929  1.0000
  C   C5471     1.0  0.57746  0.69681  0.17592  1.0000
  C   C5472     1.0  0.57798  0.68628  0.16596  1.0000
  C   C5473     1.0  0.58693  0.68872  0.14947  1.0000
  H   H4382     1.0  0.61732  0.66199  0.25208  1.0000
  C   C5474     1.0  0.68666  0.68410  0.23855  1.0000
  H   H4383     1.0  0.57155  0.67623  0.17098  1.0000
  H   H4384     1.0  0.58733  0.68058  0.14176  1.0000
  H   H4385     1.0  0.55016  0.69764  0.23748  1.0000
  C   C5475     1.0  0.67390  0.54444  0.24795  1.0000
  C   C5476     1.0  0.67030  0.56081  0.23905  1.0000
  C   C5477     1.0  0.67616  0.57309  0.24222  1.0000
  C   C5478     1.0  0.68585  0.56901  0.25399  1.0000
  C   C5479     1.0  0.68959  0.55262  0.26269  1.0000
  C   C5480     1.0  0.68362  0.54040  0.25968  1.0000
  H   H4386     1.0  0.66283  0.56402  0.22996  1.0000
  H   H4387     1.0  0.69686  0.54941  0.27195  1.0000
  H   H4388     1.0  0.68652  0.52774  0.26650  1.0000
  C   C5481     1.0  0.52954  0.58478  0.24532  1.0000
  C   C5482     1.0  0.69659  0.66865  0.24383  1.0000
  S   S747      1.0  0.69694  0.72774  0.37165  1.0000
  H   H4389     1.0  0.61976  0.49477  0.20726  1.0000
  H   H4390     1.0  0.66724  0.65064  0.08977  1.0000
  C   C5483     1.0  0.72408  0.67121  0.46206  1.0000
  H   H4391     1.0  0.50756  0.65277  0.33111  1.0000
  P   P183      1.0  0.71088  0.50338  0.15425  1.0000
  C   C5484     1.0  0.73130  0.48571  0.13036  1.0000
  H   H4392     1.0  0.59917  0.68392  0.28582  1.0000
  C   C5485     1.0  0.67289  0.57723  0.16677  1.0000
  C   C5486     1.0  0.68205  0.56982  0.17900  1.0000
  C   C5487     1.0  0.69477  0.59171  0.15052  1.0000
  C   C5488     1.0  0.67914  0.58836  0.15267  1.0000
  H   H4393     1.0  0.67719  0.56142  0.19004  1.0000
  H   H4394     1.0  0.70149  0.60157  0.10637  1.0000
  H   H4395     1.0  0.67200  0.59410  0.14327  1.0000
  C   C5489     1.0  0.58472  0.57054  0.21804  1.0000
  C   C5490     1.0  0.59088  0.57478  0.20099  1.0000
  C   C5491     1.0  0.58397  0.59004  0.19170  1.0000
  C   C5492     1.0  0.57143  0.60145  0.19954  1.0000
  C   C5493     1.0  0.56557  0.59745  0.21666  1.0000
  C   C5494     1.0  0.57203  0.58188  0.22584  1.0000
  H   H4396     1.0  0.60066  0.56611  0.19488  1.0000
  H   H4397     1.0  0.58851  0.59309  0.17846  1.0000
  H   H4398     1.0  0.55590  0.60622  0.22279  1.0000
  H   H4399     1.0  0.56728  0.57868  0.23900  1.0000
  H   H4400     1.0  0.71910  0.69205  0.41853  1.0000
  H   H4401     1.0  0.54214  0.58529  0.26340  1.0000
  C   C5495     1.0  0.73177  0.71300  0.26293  1.0000
  C   C5496     1.0  0.50386  0.63779  0.29416  1.0000
  P   P184      1.0  0.64593  0.48331  0.28536  1.0000
  C   C5497     1.0  0.70901  0.51352  0.22710  1.0000
  S   S748      1.0  0.73369  0.60523  0.11182  1.0000
  C   C5498     1.0  0.67880  0.61851  0.11425  1.0000
  H   H4402     1.0  0.51505  0.69134  0.28664  1.0000
  P   P185      1.0  0.52115  0.69375  0.14315  1.0000
  C   C5499     1.0  0.71181  0.66067  0.35191  1.0000
  C   C5500     1.0  0.71131  0.64814  0.34487  1.0000
  C   C5501     1.0  0.71255  0.65112  0.32786  1.0000
  C   C5502     1.0  0.71365  0.66690  0.31794  1.0000
  C   C5503     1.0  0.71342  0.67983  0.32506  1.0000
  C   C5504     1.0  0.71312  0.67634  0.34204  1.0000
  P   P186      1.0  0.71332  0.70084  0.31308  1.0000
  C   C5505     1.0  0.71727  0.70272  0.29092  1.0000
  C   C5506     1.0  0.50799  0.62996  0.17637  1.0000
  H   H4403     1.0  0.51516  0.69457  0.25226  1.0000
  H   H4404     1.0  0.72553  0.71373  0.39401  1.0000
  C   C5507     1.0  0.68055  0.50102  0.30589  1.0000
  H   H4405     1.0  0.71858  0.71631  0.08301  1.0000
  C   C5508     1.0  0.73663  0.49770  0.10096  1.0000
  H   H4406     1.0  0.71988  0.58970  0.19230  1.0000
  C   C5509     1.0  0.69309  0.71417  0.31865  1.0000
  C   C5510     1.0  0.62307  0.70439  0.25211  1.0000
  C   C5511     1.0  0.53985  0.71236  0.14912  1.0000
  C   C5512     1.0  0.70677  0.69764  0.28435  1.0000
  C   C5513     1.0  0.72910  0.70679  0.31882  1.0000
  C   C5514     1.0  0.62473  0.48240  0.20496  1.0000
  C   C5515     1.0  0.52124  0.60581  0.26148  1.0000
  C   C5516     1.0  0.72666  0.48587  0.30114  1.0000
  C   C5517     1.0  0.53028  0.69755  0.10879  1.0000
  C   C5518     1.0  0.50632  0.64835  0.32104  1.0000
  H   H4407     1.0  0.71117  0.65824  0.36508  1.0000
  H   H4408     1.0  0.71020  0.63606  0.35267  1.0000
  H   H4409     1.0  0.71277  0.64114  0.32238  1.0000
  H   H4410     1.0  0.71484  0.66875  0.30483  1.0000
  H   H4411     1.0  0.71359  0.68579  0.34785  1.0000
  C   C5519     1.0  0.49300  0.65609  0.31332  1.0000
  C   C5520     1.0  0.51274  0.69121  0.31211  1.0000
  C   C5521     1.0  0.71508  0.48411  0.16916  1.0000
  C   C5522     1.0  0.66711  0.72092  0.33837  1.0000
  H   H4412     1.0  0.68717  0.70104  0.34430  1.0000
  H   H4413     1.0  0.50369  0.63418  0.28319  1.0000
  H   H4414     1.0  0.71467  0.55733  0.23095  1.0000
  H   H4415     1.0  0.50823  0.69716  0.17772  1.0000
  C   C5523     1.0  0.72802  0.64992  0.44132  1.0000
  H   H4416     1.0  0.69666  0.69217  0.29245  1.0000
  H   H4417     1.0  0.49647  0.61438  0.23451  1.0000
  C   C5524     1.0  0.67379  0.69160  0.24990  1.0000
  H   H4418     1.0  0.72972  0.54166  0.20909  1.0000
  C   C5525     1.0  0.71471  0.69535  0.05129  1.0000
  C   C5526     1.0  0.72982  0.60520  0.34045  1.0000
  H   H4419     1.0  0.70115  0.69560  0.26228  1.0000
  S   S749      1.0  0.60713  0.70421  0.12255  1.0000
  H   H4420     1.0  0.57328  0.53654  0.20578  1.0000
  H   H4421     1.0  0.68745  0.66638  0.15109  1.0000
  H   H4422     1.0  0.72663  0.62125  0.29202  1.0000
  C   C5527     1.0  0.67796  0.68850  0.44920  1.0000
  C   C5528     1.0  0.59419  0.58110  0.25837  1.0000
  S   S750      1.0  0.72135  0.59323  0.31841  1.0000
  H   H4423     1.0  0.67151  0.70357  0.08812  1.0000
  C   C5529     1.0  0.59499  0.71209  0.15300  1.0000
  C   C5530     1.0  0.56932  0.59206  0.28416  1.0000
  H   H4424     1.0  0.53725  0.70058  0.08232  1.0000
  C   C5531     1.0  0.59556  0.70156  0.14301  1.0000
  H   H4425     1.0  0.72390  0.64592  0.19151  1.0000
  H   H4426     1.0  0.69493  0.61077  0.27063  1.0000
  C   C5532     1.0  0.72932  0.71110  0.27997  1.0000
  H   H4427     1.0  0.55973  0.59629  0.29419  1.0000
  C   C5533     1.0  0.58583  0.70981  0.16936  1.0000
  H   H4428     1.0  0.60384  0.57645  0.24859  1.0000
  C   C5534     1.0  0.72889  0.54106  0.17015  1.0000
  C   C5535     1.0  0.64603  0.57176  0.27653  1.0000
  C   C5536     1.0  0.63457  0.63626  0.18588  1.0000
  C   C5537     1.0  0.61924  0.64294  0.19512  1.0000
  C   C5538     1.0  0.61860  0.65041  0.20774  1.0000
  C   C5539     1.0  0.63326  0.65119  0.21119  1.0000
  C   C5540     1.0  0.64868  0.64384  0.20246  1.0000
  C   C5541     1.0  0.64923  0.63659  0.18959  1.0000
  P   P187      1.0  0.66757  0.64440  0.20727  1.0000
  C   C5542     1.0  0.68375  0.62726  0.20102  1.0000
  C   C5543     1.0  0.67376  0.66373  0.19661  1.0000
  C   C5544     1.0  0.66661  0.67429  0.18360  1.0000
  C   C5545     1.0  0.67234  0.68866  0.17475  1.0000
  C   C5546     1.0  0.68513  0.69262  0.17888  1.0000
  C   C5547     1.0  0.69217  0.68226  0.19193  1.0000
  C   C5548     1.0  0.68651  0.66788  0.20079  1.0000
  C   C5549     1.0  0.68115  0.61105  0.20650  1.0000
  C   C5550     1.0  0.72961  0.71903  0.08439  1.0000
  S   S751      1.0  0.58217  0.70783  0.31069  1.0000
  H   H4429     1.0  0.50713  0.69302  0.33733  1.0000
  C   C5551     1.0  0.69905  0.62984  0.19071  1.0000
  C   C5552     1.0  0.66347  0.64274  0.22941  1.0000
  C   C5553     1.0  0.65786  0.65721  0.23574  1.0000
  C   C5554     1.0  0.65413  0.65616  0.25279  1.0000
  C   C5555     1.0  0.65593  0.64069  0.26371  1.0000
  C   C5556     1.0  0.66127  0.62625  0.25759  1.0000
  C   C5557     1.0  0.66499  0.62724  0.24057  1.0000
  H   H4430     1.0  0.63514  0.63041  0.17609  1.0000
  H   H4431     1.0  0.60782  0.64226  0.19264  1.0000
  H   H4432     1.0  0.60669  0.65566  0.21478  1.0000
  H   H4433     1.0  0.63251  0.65744  0.22069  1.0000
  H   H4434     1.0  0.66094  0.63099  0.18254  1.0000
  H   H4435     1.0  0.65692  0.67130  0.17993  1.0000
  H   H4436     1.0  0.66717  0.69654  0.16438  1.0000
  H   H4437     1.0  0.68983  0.70352  0.17171  1.0000
  H   H4438     1.0  0.70245  0.68505  0.19481  1.0000
  H   H4439     1.0  0.69252  0.65969  0.21051  1.0000
  H   H4440     1.0  0.66912  0.60886  0.21336  1.0000
  C   C5558     1.0  0.71206  0.52087  0.17627  1.0000
  C   C5559     1.0  0.49783  0.67984  0.26814  1.0000
  C   C5560     1.0  0.68821  0.60501  0.10733  1.0000
  H   H4441     1.0  0.70108  0.64219  0.18510  1.0000
  H   H4442     1.0  0.65623  0.66934  0.22754  1.0000
  H   H4443     1.0  0.64987  0.66736  0.25754  1.0000
  H   H4444     1.0  0.65327  0.63986  0.27691  1.0000
  H   H4445     1.0  0.66290  0.61418  0.26598  1.0000
  H   H4446     1.0  0.66938  0.61576  0.23646  1.0000
  C   C5561     1.0  0.70292  0.50401  0.22044  1.0000
  C   C5562     1.0  0.63675  0.72975  0.21870  1.0000
  H   H4447     1.0  0.53563  0.71064  0.21455  1.0000
  C   C5563     1.0  0.73082  0.69429  0.04141  1.0000
  C   C5564     1.0  0.52658  0.70424  0.15567  1.0000
  C   C5565     1.0  0.62307  0.67868  0.09292  1.0000
  H   H4448     1.0  0.65750  0.59404  0.09791  1.0000
  C   C5566     1.0  0.65242  0.69718  0.43922  1.0000
  H   H4449     1.0  0.62737  0.63181  0.25393  1.0000
  H   H4450     1.0  0.59996  0.69893  0.22106  1.0000
  H   H4451     1.0  0.51466  0.72941  0.12890  1.0000
  H   H4452     1.0  0.65940  0.71849  0.35071  1.0000
  H   H4453     1.0  0.65801  0.49720  0.14742  1.0000
  C   C5567     1.0  0.58471  0.72680  0.37185  1.0000
  C   C5568     1.0  0.71892  0.48366  0.27696  1.0000
  C   C5569     1.0  0.69944  0.71206  0.47151  1.0000
  Fe  Fe379     1.0  0.65797  0.72808  0.10878  1.0000
  C   C5570     1.0  0.62702  0.49883  0.28336  1.0000
  C   C5571     1.0  0.49106  0.70434  0.38560  1.0000
  C   C5572     1.0  0.59722  0.50864  0.29199  1.0000
  C   C5573     1.0  0.59770  0.52246  0.27884  1.0000
  C   C5574     1.0  0.61278  0.52460  0.26806  1.0000
  C   C5575     1.0  0.62735  0.51283  0.27031  1.0000
  C   C5576     1.0  0.72330  0.65585  0.04749  1.0000
  H   H4454     1.0  0.58020  0.62918  0.24765  1.0000
  C   C5577     1.0  0.58170  0.57235  0.26654  1.0000
  C   C5578     1.0  0.60984  0.69302  0.19738  1.0000
  C   C5579     1.0  0.50006  0.71925  0.35220  1.0000
  C   C5580     1.0  0.62067  0.69614  0.18205  1.0000
  C   C5581     1.0  0.59275  0.48450  0.16912  1.0000
  H   H4455     1.0  0.71105  0.68453  0.05999  1.0000
  C   C5582     1.0  0.57669  0.48794  0.16656  1.0000
  H   H4456     1.0  0.65993  0.67182  0.06556  1.0000
  H   H4457     1.0  0.64991  0.51669  0.28461  1.0000
  C   C5583     1.0  0.69547  0.62812  0.28437  1.0000
  H   H4458     1.0  0.51322  0.70970  0.38805  1.0000
  C   C5584     1.0  0.56174  0.54557  0.20810  1.0000
  H   H4459     1.0  0.71645  0.66652  0.04021  1.0000
  H   H4460     1.0  0.71175  0.50685  0.26049  1.0000
  H   H4461     1.0  0.52341  0.61112  0.27047  1.0000
  H   H4462     1.0  0.58551  0.50696  0.30030  1.0000
  H   H4463     1.0  0.58639  0.53142  0.27686  1.0000
  H   H4464     1.0  0.61316  0.53523  0.25774  1.0000
  H   H4465     1.0  0.63892  0.51449  0.26174  1.0000
  H   H4466     1.0  0.53827  0.57377  0.24223  1.0000
  H   H4467     1.0  0.63185  0.69026  0.06759  1.0000
  H   H4468     1.0  0.63851  0.60099  0.29880  1.0000
  H   H4469     1.0  0.52530  0.55074  0.23635  1.0000
  H   H4470     1.0  0.70605  0.61656  0.22240  1.0000
  H   H4471     1.0  0.68904  0.50510  0.31033  1.0000
  C   C5585     1.0  0.71376  0.49102  0.21358  1.0000
  Fe  Fe380     1.0  0.56112  0.70093  0.30546  1.0000
  H   H4472     1.0  0.55116  0.52977  0.23033  1.0000
  C   C5586     1.0  0.49590  0.57682  0.22629  1.0000
  C   C5587     1.0  0.73671  0.66552  0.18609  1.0000
  C   C5588     1.0  0.68912  0.51030  0.15396  1.0000
  H   H4473     1.0  0.68780  0.48809  0.14769  1.0000
  H   H4474     1.0  0.64371  0.70685  0.43293  1.0000
  C   C5589     1.0  0.68299  0.71102  0.33461  1.0000
  C   C5590     1.0  0.63215  0.63575  0.13996  1.0000
  H   H4475     1.0  0.59477  0.60850  0.22733  1.0000
  C   C5591     1.0  0.73069  0.65411  0.18186  1.0000
  C   C5592     1.0  0.53471  0.67336  0.14401  1.0000
  C   C5593     1.0  0.55027  0.67011  0.14788  1.0000
  C   C5594     1.0  0.56022  0.65408  0.14956  1.0000
  C   C5595     1.0  0.55486  0.64123  0.14711  1.0000
  C   C5596     1.0  0.53968  0.64446  0.14265  1.0000
  C   C5597     1.0  0.52965  0.66047  0.14105  1.0000
  C   C5598     1.0  0.64971  0.68109  0.44518  1.0000
  Fe  Fe381     1.0  0.73219  0.60652  0.13771  1.0000
  C   C5599     1.0  0.61840  0.71315  0.20634  1.0000
  C   C5600     1.0  0.73032  0.63302  0.28694  1.0000
  C   C5601     1.0  0.69109  0.63156  0.30021  1.0000
  C   C5602     1.0  0.72313  0.64491  0.27463  1.0000
  C   C5603     1.0  0.60872  0.70141  0.20951  1.0000
  C   C5604     1.0  0.49809  0.61839  0.18050  1.0000
  C   C5605     1.0  0.70331  0.71060  0.05035  1.0000
  C   C5606     1.0  0.69374  0.66046  0.26055  1.0000
  H   H4476     1.0  0.50678  0.55757  0.21227  1.0000
  H   H4477     1.0  0.69224  0.58501  0.20816  1.0000
  C   C5607     1.0  0.63488  0.68060  0.07810  1.0000
  C   C5608     1.0  0.49154  0.65074  0.29992  1.0000
  C   C5609     1.0  0.72980  0.52698  0.14912  1.0000
  C   C5610     1.0  0.73085  0.61810  0.22131  1.0000
  H   H4478     1.0  0.55464  0.67977  0.15004  1.0000
  H   H4479     1.0  0.57193  0.65151  0.15316  1.0000
  H   H4480     1.0  0.56242  0.62874  0.14889  1.0000
  H   H4481     1.0  0.53557  0.63447  0.14072  1.0000
  H   H4482     1.0  0.52506  0.68359  0.31258  1.0000
  H   H4483     1.0  0.56926  0.56415  0.18682  1.0000
  C   C5611     1.0  0.71814  0.51819  0.16018  1.0000
  C   C5612     1.0  0.71744  0.53223  0.18125  1.0000
  S   S752      1.0  0.73344  0.66636  0.20680  1.0000
  C   C5613     1.0  0.68112  0.50016  0.15008  1.0000
  C   C5614     1.0  0.69416  0.59755  0.20349  1.0000
  H   H4484     1.0  0.70475  0.56733  0.18628  1.0000
  C   C5615     1.0  0.72641  0.55977  0.22321  1.0000
  H   H4485     1.0  0.49768  0.64003  0.21366  1.0000
  H   H4486     1.0  0.67832  0.71505  0.20613  1.0000
  H   H4487     1.0  0.68608  0.53443  0.15916  1.0000
  S   S753      1.0  0.56593  0.71871  0.35532  1.0000
  C   C5616     1.0  0.73061  0.48733  0.21375  1.0000
  C   C5617     1.0  0.73693  0.65702  0.46218  1.0000
  H   H4488     1.0  0.71158  0.69127  0.11300  1.0000
  C   C5618     1.0  0.68053  0.59610  0.10158  1.0000
  H   H4489     1.0  0.71233  0.53453  0.19357  1.0000
  H   H4490     1.0  0.66893  0.62592  0.14860  1.0000
  S   S754      1.0  0.73269  0.55111  0.26751  1.0000
  H   H4491     1.0  0.64040  0.60906  0.14197  1.0000
  H   H4492     1.0  0.58923  0.67587  0.24694  1.0000
  C   C5619     1.0  0.68162  0.48410  0.30791  1.0000
  C   C5620     1.0  0.71521  0.66409  0.44114  1.0000
  H   H4493     1.0  0.50366  0.72516  0.33928  1.0000
  Fe  Fe382     1.0  0.72852  0.54217  0.29496  1.0000
  C   C5621     1.0  0.66345  0.60085  0.10251  1.0000
  C   C5622     1.0  0.66927  0.63895  0.14472  1.0000
  C   C5623     1.0  0.71682  0.63132  0.24969  1.0000
  H   H4494     1.0  0.65327  0.55938  0.27579  1.0000
  C   C5624     1.0  0.70830  0.67160  0.10424  1.0000
  C   C5625     1.0  0.68024  0.52607  0.15660  1.0000
  S   S755      1.0  0.65535  0.49078  0.19404  1.0000
  H   H4495     1.0  0.66628  0.70372  0.24584  1.0000
  C   C5626     1.0  0.73315  0.57167  0.22567  1.0000
  H   H4496     1.0  0.66098  0.68947  0.27543  1.0000
  C   C5627     1.0  0.73059  0.72079  0.09967  1.0000
  C   C5628     1.0  0.73587  0.72354  0.43739  1.0000
  C   C5629     1.0  0.65545  0.52088  0.15275  1.0000
  C   C5630     1.0  0.70417  0.58387  0.16249  1.0000
  C   C5631     1.0  0.66086  0.64945  0.13258  1.0000
  H   H4497     1.0  0.50526  0.66981  0.16995  1.0000
  C   C5632     1.0  0.62702  0.66649  0.10666  1.0000
  H   H4498     1.0  0.57837  0.69695  0.26875  1.0000
  C   C5633     1.0  0.69765  0.57317  0.17685  1.0000
  H   H4499     1.0  0.71677  0.52390  0.27654  1.0000
  C   C5634     1.0  0.64299  0.65622  0.10575  1.0000
  H   H4500     1.0  0.67111  0.68546  0.13108  1.0000
  H   H4501     1.0  0.67962  0.62394  0.32588  1.0000
  C   C5635     1.0  0.72472  0.71562  0.33135  1.0000
  C   C5636     1.0  0.60561  0.62756  0.16578  1.0000
  C   C5637     1.0  0.58328  0.65333  0.24666  1.0000
  C   C5638     1.0  0.50020  0.60460  0.19353  1.0000
  C   C5639     1.0  0.59508  0.70927  0.24845  1.0000
  H   H4502     1.0  0.70621  0.64057  0.05037  1.0000
  H   H4503     1.0  0.72209  0.61564  0.06643  1.0000
  C   C5640     1.0  0.51824  0.70366  0.17223  1.0000
  C   C5641     1.0  0.67085  0.68358  0.26657  1.0000
  H   H4504     1.0  0.73558  0.67515  0.07806  1.0000
  C   C5642     1.0  0.63014  0.70792  0.17875  1.0000
  C   C5643     1.0  0.66893  0.51266  0.29766  1.0000
  C   C5644     1.0  0.66160  0.62319  0.11550  1.0000
  H   H4505     1.0  0.64798  0.72938  0.46973  1.0000
  C   C5645     1.0  0.66645  0.70088  0.44121  1.0000
  Fe  Fe383     1.0  0.71303  0.57345  0.27276  1.0000
  Fe  Fe384     1.0  0.72709  0.57637  0.30042  1.0000
  H   H4506     1.0  0.64085  0.61821  0.10965  1.0000
  H   H4507     1.0  0.72394  0.61823  0.17984  1.0000
  H   H4508     1.0  0.64500  0.59784  0.23354  1.0000
  H   H4509     1.0  0.50041  0.62548  0.25605  1.0000
  C   C5646     1.0  0.50993  0.71813  0.36303  1.0000
  C   C5647     1.0  0.67051  0.67248  0.13499  1.0000
  H   H4510     1.0  0.56919  0.50043  0.16577  1.0000
  H   H4511     1.0  0.69970  0.60007  0.13948  1.0000
  H   H4512     1.0  0.71190  0.71929  0.33753  1.0000
  C   C5648     1.0  0.70680  0.62749  0.24160  1.0000
  S   S756      1.0  0.49252  0.67574  0.20799  1.0000
  C   C5649     1.0  0.68077  0.66809  0.27189  1.0000
  H   H4513     1.0  0.73603  0.61498  0.35797  1.0000
  H   H4514     1.0  0.63895  0.67821  0.44338  1.0000
  C   C5650     1.0  0.51826  0.63518  0.31549  1.0000
  C   C5651     1.0  0.51698  0.62986  0.30211  1.0000
  H   H4515     1.0  0.58567  0.71522  0.24127  1.0000
  C   C5652     1.0  0.63771  0.59521  0.28947  1.0000
  H   H4516     1.0  0.65463  0.67485  0.11890  1.0000
  H   H4517     1.0  0.71065  0.52615  0.12231  1.0000
  C   C5653     1.0  0.62901  0.71641  0.19077  1.0000
  H   H4518     1.0  0.71839  0.66280  0.10901  1.0000
  H   H4519     1.0  0.72390  0.70851  0.24332  1.0000
  H   H4520     1.0  0.52878  0.62943  0.32124  1.0000
  H   H4521     1.0  0.52659  0.62010  0.29738  1.0000
  C   C5654     1.0  0.67495  0.67243  0.45548  1.0000
  H   H4522     1.0  0.68922  0.69030  0.22566  1.0000
  C   C5655     1.0  0.56927  0.57781  0.27944  1.0000
  P   P188      1.0  0.61702  0.72434  0.22176  1.0000
  H   H4523     1.0  0.73677  0.71651  0.28431  1.0000
  C   C5656     1.0  0.70909  0.69980  0.26725  1.0000
  H   H4524     1.0  0.70671  0.66327  0.23486  1.0000
  H   H4525     1.0  0.49219  0.59597  0.19660  1.0000
  C   C5657     1.0  0.63098  0.61909  0.14644  1.0000
  H   H4526     1.0  0.66822  0.71342  0.43636  1.0000
  C   C5658     1.0  0.67956  0.66178  0.14640  1.0000
  C   C5659     1.0  0.54636  0.72059  0.24494  1.0000
  H   H4527     1.0  0.57664  0.72168  0.38304  1.0000
  H   H4528     1.0  0.68510  0.62531  0.11840  1.0000
  H   H4529     1.0  0.59536  0.62444  0.17570  1.0000
  S   S757      1.0  0.70351  0.64642  0.09396  1.0000
  H   H4530     1.0  0.54907  0.68851  0.27587  1.0000
  S   S758      1.0  0.71928  0.63331  0.13477  1.0000
  C   C5660     1.0  0.53671  0.71820  0.22216  1.0000
  H   H4531     1.0  0.52114  0.72296  0.35845  1.0000
  C   C5661     1.0  0.72575  0.50975  0.22749  1.0000
  S   S759      1.0  0.56545  0.67420  0.30420  1.0000
  H   H4532     1.0  0.59787  0.65366  0.16536  1.0000
  H   H4533     1.0  0.60179  0.68458  0.19961  1.0000
  C   C5662     1.0  0.66429  0.50535  0.14971  1.0000
  C   C5663     1.0  0.71619  0.50093  0.27166  1.0000
  H   H4534     1.0  0.67933  0.67519  0.08296  1.0000
  C   C5664     1.0  0.67875  0.64507  0.15145  1.0000
  C   C5665     1.0  0.60702  0.64405  0.15990  1.0000
  H   H4535     1.0  0.69356  0.62990  0.24606  1.0000
  C   C5666     1.0  0.65404  0.61447  0.10925  1.0000
  C   C5667     1.0  0.50256  0.69682  0.32608  1.0000
  C   C5668     1.0  0.65474  0.65819  0.09074  1.0000
  C   C5669     1.0  0.61871  0.69435  0.26775  1.0000
  C   C5670     1.0  0.50547  0.71063  0.37971  1.0000
  H   H4536     1.0  0.68975  0.50659  0.22087  1.0000
  H   H4537     1.0  0.67312  0.58576  0.23568  1.0000
  C   C5671     1.0  0.71719  0.71712  0.40511  1.0000
  P   P189      1.0  0.70732  0.64085  0.26728  1.0000
  H   H4538     1.0  0.54685  0.71254  0.13654  1.0000
  C   C5672     1.0  0.66687  0.72337  0.21041  1.0000
  P   P190      1.0  0.51427  0.58533  0.22027  1.0000
  C   C5673     1.0  0.53251  0.56957  0.21490  1.0000
  C   C5674     1.0  0.51205  0.60249  0.20275  1.0000
  C   C5675     1.0  0.52205  0.61408  0.19839  1.0000
  C   C5676     1.0  0.52009  0.62772  0.18519  1.0000
  C   C5677     1.0  0.71864  0.51439  0.12016  1.0000
  H   H4539     1.0  0.51786  0.66272  0.13771  1.0000
  H   H4540     1.0  0.73482  0.52516  0.13666  1.0000
  C   C5678     1.0  0.54503  0.57319  0.20088  1.0000
  C   C5679     1.0  0.53469  0.55371  0.22534  1.0000
  C   C5680     1.0  0.51662  0.59286  0.23696  1.0000
  H   H4541     1.0  0.72446  0.52328  0.09375  1.0000
  H   H4542     1.0  0.73018  0.64356  0.16205  1.0000
  C   C5681     1.0  0.72433  0.72412  0.03079  1.0000
  C   C5682     1.0  0.50826  0.61384  0.25341  1.0000
  C   C5683     1.0  0.50608  0.60750  0.24111  1.0000
  S   S760      1.0  0.64124  0.71837  0.13221  1.0000
  C   C5684     1.0  0.66122  0.66637  0.12802  1.0000
  Fe  Fe385     1.0  0.62249  0.72329  0.11702  1.0000
  H   H4543     1.0  0.60541  0.60399  0.19906  1.0000
  H   H4544     1.0  0.53137  0.61255  0.20522  1.0000
  H   H4545     1.0  0.52784  0.63664  0.18198  1.0000
  C   C5685     1.0  0.69464  0.72585  0.43321  1.0000
  H   H4546     1.0  0.65535  0.59281  0.20511  1.0000
  H   H4547     1.0  0.70726  0.71821  0.46084  1.0000
  H   H4548     1.0  0.54395  0.58534  0.19272  1.0000
  H   H4549     1.0  0.68553  0.72942  0.44381  1.0000
  H   H4550     1.0  0.69465  0.73089  0.29449  1.0000
  C   C5686     1.0  0.49983  0.69163  0.15072  1.0000
  H   H4551     1.0  0.64235  0.52480  0.15276  1.0000
  H   H4552     1.0  0.67835  0.66228  0.28486  1.0000
  C   C5687     1.0  0.65066  0.67024  0.07697  1.0000
  H   H4553     1.0  0.73321  0.72620  0.34625  1.0000
  H   H4554     1.0  0.69088  0.71141  0.05800  1.0000
  H   H4555     1.0  0.69484  0.64164  0.30237  1.0000
  C   C5688     1.0  0.53183  0.59128  0.25746  1.0000
  H   H4556     1.0  0.62177  0.66090  0.14351  1.0000
  H   H4557     1.0  0.68786  0.58560  0.09630  1.0000
  H   H4558     1.0  0.53362  0.68416  0.11090  1.0000
  S   S761      1.0  0.55577  0.72374  0.28574  1.0000
  H   H4559     1.0  0.72440  0.66844  0.25732  1.0000
  S   S762      1.0  0.70745  0.56368  0.30020  1.0000
  C   C5689     1.0  0.59418  0.59558  0.26289  1.0000
  C   C5690     1.0  0.64753  0.57951  0.28808  1.0000
  C   C5691     1.0  0.66095  0.66873  0.45335  1.0000
  C   C5692     1.0  0.61130  0.71187  0.24228  1.0000
  H   H4560     1.0  0.61692  0.60216  0.16419  1.0000
  C   C5693     1.0  0.67793  0.60811  0.31131  1.0000
  H   H4561     1.0  0.49337  0.71848  0.24309  1.0000
  H   H4562     1.0  0.58170  0.56137  0.26273  1.0000
  C   C5694     1.0  0.52411  0.70556  0.12208  1.0000
  H   H4563     1.0  0.70288  0.51439  0.18488  1.0000
  C   C5695     1.0  0.70972  0.60018  0.19443  1.0000
  H   H4564     1.0  0.51717  0.70990  0.19504  1.0000
  C   C5696     1.0  0.71382  0.62036  0.22788  1.0000
  C   C5697     1.0  0.66348  0.53130  0.15596  1.0000
  Fe  Fe386     1.0  0.56313  0.72036  0.32954  1.0000
  C   C5698     1.0  0.73439  0.65267  0.16534  1.0000
  H   H4565     1.0  0.66846  0.52576  0.29571  1.0000
  C   C5699     1.0  0.60265  0.69157  0.27363  1.0000
  C   C5700     1.0  0.72429  0.50318  0.29553  1.0000
  H   H4566     1.0  0.68591  0.63672  0.16016  1.0000
  C   C5701     1.0  0.72640  0.51280  0.10397  1.0000
  S   S763      1.0  0.72431  0.58673  0.15957  1.0000
  H   H4567     1.0  0.62118  0.68996  0.17250  1.0000
  H   H4568     1.0  0.72024  0.71930  0.11013  1.0000
  C   C5702     1.0  0.71203  0.61631  0.18756  1.0000
  C   C5703     1.0  0.72900  0.65954  0.26753  1.0000
  H   H4569     1.0  0.50754  0.66943  0.27181  1.0000
  H   H4570     1.0  0.67171  0.60005  0.32180  1.0000
  C   C5704     1.0  0.71894  0.51064  0.28081  1.0000
  C   C5705     1.0  0.59085  0.69902  0.26399  1.0000
  P   P191      1.0  0.64930  0.64120  0.12348  1.0000
  C   C5706     1.0  0.61770  0.61505  0.15924  1.0000
  C   C5707     1.0  0.54929  0.54181  0.22199  1.0000
  C   C5708     1.0  0.65173  0.71863  0.21401  1.0000
  C   C5709     1.0  0.71349  0.70483  0.41915  1.0000
  C   C5710     1.0  0.49000  0.70745  0.25167  1.0000
  C   C5711     1.0  0.49573  0.56350  0.21995  1.0000
  H   H4571     1.0  0.55964  0.57097  0.28579  1.0000
  H   H4572     1.0  0.61092  0.68695  0.09396  1.0000
  H   H4573     1.0  0.67921  0.59385  0.29390  1.0000
  C   C5712     1.0  0.68238  0.62160  0.31360  1.0000
  C   C5713     1.0  0.71307  0.67482  0.45155  1.0000
  C   C5714     1.0  0.51968  0.72297  0.11883  1.0000
  Fe  Fe387     1.0  0.72315  0.63256  0.10819  1.0000
  C   C5715     1.0  0.55950  0.56117  0.19745  1.0000
  H   H4574     1.0  0.63560  0.59620  0.18787  1.0000
  Fe  Fe388     1.0  0.73775  0.64075  0.39483  1.0000
  S   S764      1.0  0.64050  0.72989  0.09302  1.0000
  S   S765      1.0  0.68539  0.71885  0.10524  1.0000
  H   H4575     1.0  0.72666  0.57840  0.23536  1.0000
  C   C5716     1.0  0.70236  0.70910  0.43345  1.0000
  C   C5717     1.0  0.65912  0.49042  0.29370  1.0000
  P   P192      1.0  0.69645  0.69316  0.45118  1.0000
  H   H4576     1.0  0.70066  0.52352  0.23248  1.0000
  C   C5718     1.0  0.71763  0.64108  0.05296  1.0000
  H   H4577     1.0  0.65616  0.57320  0.29609  1.0000
  H   H4578     1.0  0.65664  0.54339  0.15815  1.0000
  H   H4579     1.0  0.72996  0.51697  0.23329  1.0000
  C   C5719     1.0  0.72123  0.50094  0.13350  1.0000
  C   C5720     1.0  0.50225  0.69398  0.25689  1.0000
  C   C5721     1.0  0.62047  0.64811  0.14735  1.0000
  H   H4580     1.0  0.50615  0.64072  0.16643  1.0000
  C   C5722     1.0  0.58185  0.60082  0.27605  1.0000
  P   P193      1.0  0.61117  0.60592  0.25359  1.0000
  C   C5723     1.0  0.60425  0.62807  0.25180  1.0000
  C   C5724     1.0  0.62585  0.59602  0.26670  1.0000
  C   C5725     1.0  0.62665  0.60331  0.27906  1.0000
  C   C5726     1.0  0.63530  0.57997  0.26583  1.0000
  C   C5727     1.0  0.58850  0.63613  0.24864  1.0000
  C   C5728     1.0  0.61485  0.63759  0.25243  1.0000
  C   C5729     1.0  0.61915  0.60321  0.23265  1.0000
  C   C5730     1.0  0.60805  0.60526  0.22265  1.0000
  C   C5731     1.0  0.61401  0.60275  0.20656  1.0000
  C   C5732     1.0  0.63104  0.59835  0.20028  1.0000
  C   C5733     1.0  0.64217  0.59657  0.21003  1.0000
  C   C5734     1.0  0.63627  0.59918  0.22614  1.0000
  H   H4581     1.0  0.58199  0.61160  0.28008  1.0000
  H   H4582     1.0  0.61857  0.61507  0.28094  1.0000
  H   H4583     1.0  0.63431  0.57368  0.25700  1.0000
  H   H4584     1.0  0.58545  0.71802  0.17701  1.0000
  C   C5735     1.0  0.58231  0.72669  0.35642  1.0000
  H   H4585     1.0  0.63549  0.70654  0.24789  1.0000
  H   H4586     1.0  0.72283  0.67926  0.47018  1.0000
  S   S766      1.0  0.73101  0.58785  0.27316  1.0000
  S   S767      1.0  0.72789  0.51526  0.30714  1.0000
  C   C5736     1.0  0.53638  0.71906  0.17545  1.0000
  H   H4587     1.0  0.73627  0.61311  0.21031  1.0000
  H   H4588     1.0  0.65166  0.70653  0.21260  1.0000
  H   H4589     1.0  0.63799  0.71097  0.16668  1.0000
  C   C5737     1.0  0.70805  0.72491  0.03991  1.0000
  H   H4590     1.0  0.60164  0.72199  0.14816  1.0000
  C   C5738     1.0  0.73663  0.49642  0.22114  1.0000
  H   H4591     1.0  0.55520  0.72564  0.15396  1.0000
  C   C5739     1.0  0.73531  0.59439  0.32955  1.0000
  C   C5740     1.0  0.73498  0.53851  0.15407  1.0000
  C   C5741     1.0  0.68708  0.72778  0.30675  1.0000
  H   H4592     1.0  0.73273  0.55023  0.17383  1.0000
  H   H4593     1.0  0.54059  0.72430  0.18318  1.0000
  H   H4594     1.0  0.72898  0.72861  0.42775  1.0000
  H   H4595     1.0  0.72958  0.64173  0.43319  1.0000
  C   C5742     1.0  0.73573  0.70889  0.03163  1.0000
  C   C5743     1.0  0.73777  0.65671  0.05139  1.0000
  C   C5744     1.0  0.69231  0.69967  0.47041  1.0000
  C   C5745     1.0  0.73693  0.71957  0.33639  1.0000
  H   H4596     1.0  0.48973  0.71332  0.13355  1.0000
  H   H4597     1.0  0.71181  0.73082  0.17448  1.0000
  H   H4598     1.0  0.52981  0.73131  0.07680  1.0000
  H   H4599     1.0  0.63104  0.63253  0.75913  1.0000
  C   C5746     1.0  0.68266  0.69160  0.48474  1.0000
  Fe  Fe389     1.0  0.53764  0.64672  0.76097  1.0000
  S   S768      1.0  0.54794  0.65762  0.73456  1.0000
  H   H4600     1.0  0.69909  0.65711  0.86917  1.0000
  Fe  Fe390     1.0  0.56301  0.65717  0.77334  1.0000
  S   S769      1.0  0.57454  0.66913  0.74778  1.0000
  S   S770      1.0  0.57644  0.65511  0.79316  1.0000
  Fe  Fe391     1.0  0.54840  0.67894  0.74443  1.0000
  S   S771      1.0  0.53653  0.70508  0.73387  1.0000
  Fe  Fe392     1.0  0.57308  0.64641  0.74088  1.0000
  S   S772      1.0  0.59557  0.63319  0.72475  1.0000
  S   S773      1.0  0.53682  0.66878  0.77065  1.0000
  S   S774      1.0  0.56267  0.63382  0.76665  1.0000
  Fe  Fe393     1.0  0.66931  0.51474  0.73854  1.0000
  S   S775      1.0  0.65696  0.53967  0.72529  1.0000
  C   C5747     1.0  0.55349  0.70313  0.62390  1.0000
  Fe  Fe394     1.0  0.68689  0.53056  0.75503  1.0000
  S   S776      1.0  0.67616  0.55654  0.74304  1.0000
  S   S777      1.0  0.70547  0.52195  0.77134  1.0000
  Fe  Fe395     1.0  0.65259  0.54753  0.74920  1.0000
  S   S778      1.0  0.62909  0.56256  0.76207  1.0000
  Fe  Fe396     1.0  0.68159  0.54650  0.72027  1.0000
  S   S779      1.0  0.69368  0.55928  0.69507  1.0000
  S   S780      1.0  0.66297  0.52199  0.76300  1.0000
  S   S781      1.0  0.69419  0.52118  0.73175  1.0000
  C   C5748     1.0  0.59835  0.71277  0.72264  1.0000
  S   S782      1.0  0.63071  0.70533  0.81842  1.0000
  S   S783      1.0  0.66326  0.70168  0.77582  1.0000
  C   C5749     1.0  0.57814  0.72524  0.54252  1.0000
  C   C5750     1.0  0.70045  0.71945  0.72484  1.0000
  H   H4601     1.0  0.55610  0.60022  0.80473  1.0000
  Fe  Fe397     1.0  0.72441  0.58731  0.80985  1.0000
  S   S784      1.0  0.71318  0.60687  0.79049  1.0000
  H   H4602     1.0  0.70159  0.72662  0.48717  1.0000
  Fe  Fe398     1.0  0.69682  0.61759  0.81179  1.0000
  S   S785      1.0  0.66958  0.62719  0.81285  1.0000
  S   S786      1.0  0.70660  0.59696  0.83131  1.0000
  C   C5751     1.0  0.66441  0.68062  0.78433  1.0000
  C   C5752     1.0  0.67968  0.66948  0.78191  1.0000
  C   C5753     1.0  0.68107  0.65289  0.79030  1.0000
  C   C5754     1.0  0.66718  0.64741  0.80090  1.0000
  C   C5755     1.0  0.65168  0.65836  0.80249  1.0000
  C   C5756     1.0  0.65031  0.67502  0.79426  1.0000
  H   H4603     1.0  0.69058  0.67380  0.77417  1.0000
  H   H4604     1.0  0.69295  0.64438  0.78859  1.0000
  H   H4605     1.0  0.64082  0.65423  0.81046  1.0000
  H   H4606     1.0  0.63838  0.68355  0.79570  1.0000
  C   C5757     1.0  0.71149  0.53386  0.78144  1.0000
  C   C5758     1.0  0.72356  0.52551  0.79062  1.0000
  C   C5759     1.0  0.63629  0.71970  0.50914  1.0000
  C   C5760     1.0  0.72282  0.55084  0.79831  1.0000
  C   C5761     1.0  0.71070  0.55943  0.78907  1.0000
  C   C5762     1.0  0.70500  0.55092  0.78061  1.0000
  C   C5763     1.0  0.49671  0.68965  0.73775  1.0000
  H   H4607     1.0  0.67743  0.68169  0.48434  1.0000
  H   H4608     1.0  0.70584  0.57256  0.78838  1.0000
  H   H4609     1.0  0.69572  0.55750  0.77345  1.0000
  C   C5764     1.0  0.72501  0.55369  0.67531  1.0000
  C   C5765     1.0  0.56495  0.70610  0.70963  1.0000
  C   C5766     1.0  0.58340  0.52865  0.75014  1.0000
  C   C5767     1.0  0.61864  0.57870  0.86677  1.0000
  C   C5768     1.0  0.55641  0.63547  0.87238  1.0000
  H   H4610     1.0  0.58903  0.72446  0.53251  1.0000
  H   H4611     1.0  0.57017  0.69399  0.71630  1.0000
  C   C5769     1.0  0.62205  0.65670  0.76463  1.0000
  C   C5770     1.0  0.57356  0.62968  0.86756  1.0000
  H   H4612     1.0  0.56473  0.69401  0.62583  1.0000
  C   C5771     1.0  0.57913  0.67335  0.79669  1.0000
  C   C5772     1.0  0.56634  0.68756  0.79670  1.0000
  C   C5773     1.0  0.56782  0.70110  0.80191  1.0000
  C   C5774     1.0  0.58228  0.70073  0.80663  1.0000
  C   C5775     1.0  0.59542  0.68686  0.80580  1.0000
  C   C5776     1.0  0.59371  0.67309  0.80117  1.0000
  H   H4613     1.0  0.55499  0.68780  0.79347  1.0000
  C   C5777     1.0  0.71536  0.65705  0.90065  1.0000
  H   H4614     1.0  0.60660  0.68642  0.80946  1.0000
  H   H4615     1.0  0.60360  0.66207  0.80136  1.0000
  C   C5778     1.0  0.60594  0.61398  0.73503  1.0000
  C   C5779     1.0  0.60345  0.60992  0.75225  1.0000
  C   C5780     1.0  0.61091  0.59423  0.76035  1.0000
  C   C5781     1.0  0.62132  0.58261  0.75131  1.0000
  C   C5782     1.0  0.62459  0.58690  0.73403  1.0000
  C   C5783     1.0  0.61676  0.60252  0.72592  1.0000
  H   H4616     1.0  0.59579  0.61887  0.75937  1.0000
  H   H4617     1.0  0.60853  0.59104  0.77369  1.0000
  H   H4618     1.0  0.63266  0.57800  0.72695  1.0000
  H   H4619     1.0  0.61884  0.60561  0.71259  1.0000
  H   H4620     1.0  0.56240  0.72151  0.52900  1.0000
  C   C5784     1.0  0.69261  0.66406  0.54234  1.0000
  C   C5785     1.0  0.67970  0.67729  0.54658  1.0000
  C   C5786     1.0  0.68304  0.69269  0.54518  1.0000
  H   H4621     1.0  0.58533  0.57280  0.76813  1.0000
  H   H4622     1.0  0.72407  0.62832  0.71285  1.0000
  H   H4623     1.0  0.68991  0.65226  0.54324  1.0000
  H   H4624     1.0  0.66706  0.67566  0.55069  1.0000
  C   C5787     1.0  0.72132  0.49558  0.65975  1.0000
  H   H4625     1.0  0.67266  0.68973  0.51090  1.0000
  C   C5788     1.0  0.57440  0.71367  0.69485  1.0000
  C   C5789     1.0  0.71531  0.55179  0.69146  1.0000
  C   C5790     1.0  0.72291  0.54358  0.70473  1.0000
  Fe  Fe399     1.0  0.63484  0.72693  0.82547  1.0000
  H   H4626     1.0  0.51922  0.72563  0.64507  1.0000
  H   H4627     1.0  0.63011  0.72190  0.75297  1.0000
  H   H4628     1.0  0.71570  0.54267  0.71723  1.0000
  C   C5791     1.0  0.52469  0.72694  0.61888  1.0000
  C   C5792     1.0  0.69944  0.69469  0.53996  1.0000
  C   C5793     1.0  0.51406  0.62803  0.74023  1.0000
  C   C5794     1.0  0.62694  0.72516  0.53659  1.0000
  H   H4629     1.0  0.52632  0.63058  0.73534  1.0000
  H   H4630     1.0  0.51347  0.62055  0.71857  1.0000
  H   H4631     1.0  0.55955  0.65171  0.65081  1.0000
  C   C5795     1.0  0.70898  0.66607  0.53695  1.0000
  C   C5796     1.0  0.52222  0.70300  0.58033  1.0000
  C   C5797     1.0  0.59655  0.70269  0.73852  1.0000
  H   H4632     1.0  0.64968  0.71748  0.70253  1.0000
  C   C5798     1.0  0.49306  0.67948  0.75340  1.0000
  H   H4633     1.0  0.69564  0.62467  0.71794  1.0000
  C   C5799     1.0  0.58301  0.59924  0.69918  1.0000
  C   C5800     1.0  0.57780  0.61619  0.69887  1.0000
  C   C5801     1.0  0.56780  0.62161  0.71296  1.0000
  C   C5802     1.0  0.56340  0.61014  0.72756  1.0000
  C   C5803     1.0  0.56885  0.59308  0.72807  1.0000
  C   C5804     1.0  0.57837  0.58772  0.71364  1.0000
  S   S787      1.0  0.71354  0.63364  0.81126  1.0000
  H   H4634     1.0  0.59075  0.59501  0.68825  1.0000
  H   H4635     1.0  0.58166  0.62516  0.68782  1.0000
  H   H4636     1.0  0.56398  0.63475  0.71272  1.0000
  H   H4637     1.0  0.55588  0.61464  0.73842  1.0000
  H   H4638     1.0  0.58226  0.57465  0.71353  1.0000
  H   H4639     1.0  0.61868  0.54313  0.74048  1.0000
  H   H4640     1.0  0.59826  0.56969  0.73995  1.0000
  C   C5805     1.0  0.54908  0.72464  0.55349  1.0000
  H   H4641     1.0  0.53424  0.65084  0.86459  1.0000
  H   H4642     1.0  0.53342  0.61930  0.69056  1.0000
  H   H4643     1.0  0.60121  0.68938  0.74023  1.0000
  H   H4644     1.0  0.49660  0.57512  0.74694  1.0000
  H   H4645     1.0  0.55868  0.54354  0.75292  1.0000
  H   H4646     1.0  0.53551  0.60040  0.76491  1.0000
  H   H4647     1.0  0.73265  0.63799  0.73315  1.0000
  C   C5806     1.0  0.55573  0.65145  0.84457  1.0000
  H   H4648     1.0  0.71921  0.56022  0.66502  1.0000
  H   H4649     1.0  0.50719  0.56450  0.77274  1.0000
  H   H4650     1.0  0.68420  0.71250  0.51223  1.0000
  H   H4651     1.0  0.50950  0.69015  0.73174  1.0000
  C   C5807     1.0  0.72501  0.59082  0.75127  1.0000
  H   H4652     1.0  0.50895  0.64211  0.69360  1.0000
  C   C5808     1.0  0.72453  0.64466  0.57312  1.0000
  H   H4653     1.0  0.70410  0.48816  0.85916  1.0000
  C   C5809     1.0  0.66741  0.60326  0.71203  1.0000
  H   H4654     1.0  0.64537  0.68518  0.75705  1.0000
  C   C5810     1.0  0.54750  0.64634  0.86088  1.0000
  H   H4655     1.0  0.73646  0.70692  0.92122  1.0000
  H   H4656     1.0  0.73595  0.70584  0.82128  1.0000
  C   C5811     1.0  0.57371  0.58061  0.77279  1.0000
  H   H4657     1.0  0.55759  0.71175  0.80259  1.0000
  H   H4658     1.0  0.51470  0.68241  0.57704  1.0000
  H   H4659     1.0  0.64500  0.70356  0.53047  1.0000
  S   S788      1.0  0.72741  0.61846  0.85205  1.0000
  C   C5812     1.0  0.67992  0.69611  0.49980  1.0000
  C   C5813     1.0  0.63672  0.71493  0.52587  1.0000
  H   H4660     1.0  0.71956  0.52499  0.62403  1.0000
  C   C5814     1.0  0.67152  0.59383  0.78958  1.0000
  C   C5815     1.0  0.50929  0.57502  0.74674  1.0000
  H   H4661     1.0  0.55882  0.62392  0.66928  1.0000
  S   S789      1.0  0.51452  0.63601  0.76919  1.0000
  C   C5816     1.0  0.63437  0.64387  0.75880  1.0000
  C   C5817     1.0  0.72971  0.62822  0.57126  1.0000
  C   C5818     1.0  0.71486  0.57493  0.73864  1.0000
  C   C5819     1.0  0.71197  0.58779  0.74671  1.0000
  C   C5820     1.0  0.69236  0.63823  0.75246  1.0000
  H   H4662     1.0  0.73819  0.54054  0.59247  1.0000
  H   H4663     1.0  0.61997  0.56667  0.86429  1.0000
  C   C5821     1.0  0.57901  0.72822  0.55731  1.0000
  H   H4664     1.0  0.68366  0.64130  0.76347  1.0000
  H   H4665     1.0  0.67402  0.59152  0.70864  1.0000
  H   H4666     1.0  0.71662  0.73083  0.70301  1.0000
  C   C5822     1.0  0.65920  0.51392  0.69325  1.0000
  C   C5823     1.0  0.73722  0.66783  0.81901  1.0000
  H   H4667     1.0  0.70532  0.50305  0.64239  1.0000
  C   C5824     1.0  0.70801  0.65087  0.58012  1.0000
  Fe  Fe400     1.0  0.64373  0.71598  0.79289  1.0000
  H   H4668     1.0  0.60936  0.51677  0.74673  1.0000
  H   H4669     1.0  0.72605  0.66938  0.81484  1.0000
  H   H4670     1.0  0.70488  0.57272  0.73478  1.0000
  H   H4671     1.0  0.69966  0.59541  0.74940  1.0000
  H   H4672     1.0  0.55907  0.70427  0.59787  1.0000
  Fe  Fe401     1.0  0.72488  0.61218  0.82919  1.0000
  H   H4673     1.0  0.71150  0.55655  0.63827  1.0000
  H   H4674     1.0  0.67987  0.61598  0.77706  1.0000
  H   H4675     1.0  0.70043  0.51274  0.68386  1.0000
  H   H4676     1.0  0.50302  0.67207  0.75947  1.0000
  C   C5825     1.0  0.56753  0.72917  0.68598  1.0000
  H   H4677     1.0  0.53577  0.56525  0.77244  1.0000
  C   C5826     1.0  0.57170  0.54368  0.75015  1.0000
  C   C5827     1.0  0.65960  0.49893  0.68966  1.0000
  H   H4678     1.0  0.70214  0.70645  0.53919  1.0000
  C   C5828     1.0  0.65465  0.61330  0.70436  1.0000
  C   C5829     1.0  0.65084  0.64565  0.75259  1.0000
  H   H4679     1.0  0.72183  0.72609  0.89641  1.0000
  C   C5830     1.0  0.70640  0.66058  0.87543  1.0000
  C   C5831     1.0  0.64233  0.48709  0.73123  1.0000
  C   C5832     1.0  0.54813  0.63409  0.67064  1.0000
  H   H4680     1.0  0.65132  0.60932  0.69510  1.0000
  C   C5833     1.0  0.49078  0.61903  0.73688  1.0000
  C   C5834     1.0  0.68969  0.49369  0.68155  1.0000
  S   S790      1.0  0.67288  0.48874  0.73485  1.0000
  C   C5835     1.0  0.59395  0.55830  0.74283  1.0000
  H   H4681     1.0  0.68730  0.70125  0.95085  1.0000
  H   H4682     1.0  0.67377  0.53051  0.69360  1.0000
  H   H4683     1.0  0.67759  0.59182  0.79965  1.0000
  H   H4684     1.0  0.54328  0.58697  0.72013  1.0000
  C   C5836     1.0  0.53572  0.58179  0.73167  1.0000
  C   C5837     1.0  0.69678  0.60816  0.53832  1.0000
  C   C5838     1.0  0.69648  0.59252  0.53676  1.0000
  C   C5839     1.0  0.70442  0.57825  0.54645  1.0000
  C   C5840     1.0  0.71256  0.57961  0.55779  1.0000
  C   C5841     1.0  0.71243  0.59528  0.55983  1.0000
  C   C5842     1.0  0.70483  0.60956  0.54970  1.0000
  P   P194      1.0  0.72428  0.59693  0.57332  1.0000
  C   C5843     1.0  0.71835  0.61787  0.57647  1.0000
  C   C5844     1.0  0.72010  0.58384  0.59376  1.0000
  C   C5845     1.0  0.70710  0.57539  0.59890  1.0000
  C   C5846     1.0  0.70410  0.56548  0.61486  1.0000
  C   C5847     1.0  0.71391  0.56410  0.62585  1.0000
  H   H4685     1.0  0.53531  0.69744  0.57721  1.0000
  H   H4686     1.0  0.54495  0.70477  0.64947  1.0000
  C   C5848     1.0  0.65062  0.72095  0.71332  1.0000
  H   H4687     1.0  0.62775  0.71446  0.72819  1.0000
  H   H4688     1.0  0.64747  0.52155  0.69807  1.0000
  H   H4689     1.0  0.61001  0.59210  0.84472  1.0000
  C   C5849     1.0  0.70185  0.62409  0.58389  1.0000
  H   H4690     1.0  0.69109  0.61927  0.53047  1.0000
  H   H4691     1.0  0.69037  0.59149  0.52780  1.0000
  H   H4692     1.0  0.70452  0.56613  0.54494  1.0000
  H   H4693     1.0  0.71916  0.56847  0.56481  1.0000
  H   H4694     1.0  0.70546  0.62182  0.55019  1.0000
  H   H4695     1.0  0.69905  0.57664  0.59079  1.0000
  H   H4696     1.0  0.69401  0.55905  0.61883  1.0000
  H   H4697     1.0  0.72289  0.60104  0.75714  1.0000
  C   C5850     1.0  0.71520  0.63109  0.72392  1.0000
  H   H4698     1.0  0.68385  0.64546  0.59088  1.0000
  H   H4699     1.0  0.72507  0.68277  0.53215  1.0000
  C   C5851     1.0  0.73679  0.52114  0.63933  1.0000
  P   P195      1.0  0.66672  0.62833  0.74628  1.0000
  H   H4700     1.0  0.69288  0.61631  0.58796  1.0000
  C   C5852     1.0  0.70261  0.50134  0.85388  1.0000
  C   C5853     1.0  0.71657  0.50828  0.84732  1.0000
  C   C5854     1.0  0.71470  0.52522  0.84030  1.0000
  C   C5855     1.0  0.69891  0.53525  0.83971  1.0000
  C   C5856     1.0  0.68478  0.52849  0.84678  1.0000
  C   C5857     1.0  0.68676  0.51139  0.85360  1.0000
  P   P196      1.0  0.66433  0.54148  0.84639  1.0000
  C   C5858     1.0  0.66432  0.56215  0.84754  1.0000
  C   C5859     1.0  0.65822  0.54204  0.82784  1.0000
  C   C5860     1.0  0.64145  0.54774  0.82686  1.0000
  C   C5861     1.0  0.63654  0.54802  0.81265  1.0000
  C   C5862     1.0  0.64828  0.54252  0.79939  1.0000
  C   C5863     1.0  0.66495  0.53694  0.80023  1.0000
  C   C5864     1.0  0.66998  0.53674  0.81435  1.0000
  C   C5865     1.0  0.67315  0.56437  0.85793  1.0000
  C   C5866     1.0  0.67343  0.58032  0.85865  1.0000
  C   C5867     1.0  0.66500  0.59416  0.84894  1.0000
  C   C5868     1.0  0.65621  0.59206  0.83859  1.0000
  C   C5869     1.0  0.65584  0.57617  0.83788  1.0000
  C   C5870     1.0  0.64985  0.53285  0.86417  1.0000
  C   C5871     1.0  0.64158  0.52141  0.86294  1.0000
  C   C5872     1.0  0.63047  0.51460  0.87667  1.0000
  C   C5873     1.0  0.62766  0.51898  0.89178  1.0000
  C   C5874     1.0  0.63604  0.53011  0.89319  1.0000
  C   C5875     1.0  0.64713  0.53699  0.87948  1.0000
  H   H4701     1.0  0.64416  0.71199  0.50071  1.0000
  H   H4702     1.0  0.66616  0.70397  0.82338  1.0000
  C   C5876     1.0  0.52783  0.72087  0.63475  1.0000
  H   H4703     1.0  0.69786  0.54828  0.83373  1.0000
  H   H4704     1.0  0.67613  0.50575  0.85869  1.0000
  H   H4705     1.0  0.63219  0.55200  0.83707  1.0000
  H   H4706     1.0  0.62364  0.55246  0.81184  1.0000
  H   H4707     1.0  0.64447  0.54263  0.78842  1.0000
  H   H4708     1.0  0.67400  0.53280  0.78986  1.0000
  H   H4709     1.0  0.68303  0.53247  0.81458  1.0000
  H   H4710     1.0  0.68010  0.55379  0.86526  1.0000
  H   H4711     1.0  0.68062  0.58199  0.86634  1.0000
  H   H4712     1.0  0.66573  0.60652  0.84903  1.0000
  H   H4713     1.0  0.65004  0.60277  0.83076  1.0000
  H   H4714     1.0  0.64912  0.57504  0.82955  1.0000
  H   H4715     1.0  0.64382  0.51758  0.85143  1.0000
  H   H4716     1.0  0.62412  0.50582  0.87561  1.0000
  H   H4717     1.0  0.61911  0.51362  0.90243  1.0000
  H   H4718     1.0  0.63404  0.53330  0.90499  1.0000
  H   H4719     1.0  0.65361  0.54540  0.88095  1.0000
  C   C5877     1.0  0.62077  0.59524  0.88430  1.0000
  C   C5878     1.0  0.62259  0.57974  0.88103  1.0000
  C   C5879     1.0  0.61300  0.59316  0.85569  1.0000
  C   C5880     1.0  0.61138  0.60879  0.85878  1.0000
  C   C5881     1.0  0.61507  0.60971  0.87331  1.0000
  P   P197      1.0  0.60401  0.62758  0.84464  1.0000
  C   C5882     1.0  0.60884  0.62321  0.82433  1.0000
  C   C5883     1.0  0.58187  0.63472  0.85116  1.0000
  C   C5884     1.0  0.57283  0.64570  0.83976  1.0000
  C   C5885     1.0  0.62426  0.62452  0.81367  1.0000
  C   C5886     1.0  0.62822  0.62050  0.79826  1.0000
  C   C5887     1.0  0.61684  0.61513  0.79331  1.0000
  C   C5888     1.0  0.60143  0.61383  0.80379  1.0000
  C   C5889     1.0  0.59747  0.61773  0.81930  1.0000
  C   C5890     1.0  0.61452  0.64325  0.84426  1.0000
  C   C5891     1.0  0.63127  0.63880  0.84526  1.0000
  C   C5892     1.0  0.63924  0.65063  0.84591  1.0000
  C   C5893     1.0  0.63054  0.66700  0.84564  1.0000
  C   C5894     1.0  0.61397  0.67163  0.84434  1.0000
  C   C5895     1.0  0.60599  0.65985  0.84357  1.0000
  H   H4720     1.0  0.62377  0.59606  0.89539  1.0000
  H   H4721     1.0  0.62696  0.56857  0.88961  1.0000
  H   H4722     1.0  0.61358  0.62162  0.87612  1.0000
  H   H4723     1.0  0.57902  0.64986  0.82712  1.0000
  H   H4724     1.0  0.63331  0.62862  0.81715  1.0000
  H   H4725     1.0  0.64008  0.62180  0.79013  1.0000
  H   H4726     1.0  0.61984  0.61215  0.78130  1.0000
  H   H4727     1.0  0.59241  0.61018  0.79973  1.0000
  H   H4728     1.0  0.58546  0.61661  0.82724  1.0000
  H   H4729     1.0  0.63825  0.62621  0.84541  1.0000
  H   H4730     1.0  0.65223  0.64714  0.84641  1.0000
  H   H4731     1.0  0.63671  0.67615  0.84627  1.0000
  H   H4732     1.0  0.60728  0.68442  0.84381  1.0000
  H   H4733     1.0  0.59320  0.66383  0.84246  1.0000
  C   C5896     1.0  0.69843  0.70437  0.73597  1.0000
  C   C5897     1.0  0.73068  0.56474  0.73564  1.0000
  C   C5898     1.0  0.71092  0.69000  0.73506  1.0000
  H   H4734     1.0  0.69714  0.70606  0.86553  1.0000
  H   H4735     1.0  0.73855  0.70556  0.70170  1.0000
  H   H4736     1.0  0.73363  0.70827  0.52339  1.0000
  C   C5899     1.0  0.70594  0.65306  0.89210  1.0000
  C   C5900     1.0  0.65001  0.63327  0.72108  1.0000
  C   C5901     1.0  0.55002  0.72715  0.56856  1.0000
  C   C5902     1.0  0.71584  0.50516  0.64543  1.0000
  C   C5903     1.0  0.72546  0.67637  0.87598  1.0000
  H   H4737     1.0  0.70392  0.66379  0.58093  1.0000
  H   H4738     1.0  0.73317  0.65280  0.56848  1.0000
  H   H4739     1.0  0.69848  0.64392  0.89830  1.0000
  C   C5904     1.0  0.68662  0.70880  0.50063  1.0000
  H   H4740     1.0  0.58240  0.58209  0.79329  1.0000
  C   C5905     1.0  0.73671  0.67281  0.83338  1.0000
  C   C5906     1.0  0.51059  0.69441  0.58031  1.0000
  C   C5907     1.0  0.49506  0.68279  0.65794  1.0000
  H   H4741     1.0  0.73378  0.63350  0.87464  1.0000
  S   S791      1.0  0.58304  0.71717  0.81471  1.0000
  H   H4742     1.0  0.68719  0.70371  0.74546  1.0000
  H   H4743     1.0  0.49761  0.70843  0.65029  1.0000
  H   H4744     1.0  0.60424  0.70724  0.71202  1.0000
  C   C5908     1.0  0.72950  0.73081  0.88471  1.0000
  H   H4745     1.0  0.66916  0.72284  0.93394  1.0000
  C   C5909     1.0  0.65458  0.66090  0.75145  1.0000
  C   C5910     1.0  0.72683  0.72880  0.82935  1.0000
  H   H4746     1.0  0.62783  0.72174  0.54943  1.0000
  C   C5911     1.0  0.70578  0.71567  0.94537  1.0000
  C   C5912     1.0  0.54230  0.70909  0.63724  1.0000
  C   C5913     1.0  0.51524  0.56914  0.76126  1.0000
  C   C5914     1.0  0.68913  0.50878  0.68523  1.0000
  C   C5915     1.0  0.72373  0.51774  0.63514  1.0000
  H   H4747     1.0  0.59049  0.72988  0.55880  1.0000
  C   C5916     1.0  0.60558  0.54326  0.74301  1.0000
  C   C5917     1.0  0.55731  0.59600  0.79367  1.0000
  C   C5918     1.0  0.66237  0.58271  0.78970  1.0000
  C   C5919     1.0  0.54854  0.64975  0.66026  1.0000
  C   C5920     1.0  0.71242  0.68133  0.53597  1.0000
  H   H4748     1.0  0.53276  0.60914  0.79046  1.0000
  C   C5921     1.0  0.48977  0.62641  0.76240  1.0000
  H   H4749     1.0  0.63738  0.49882  0.73494  1.0000
  H   H4750     1.0  0.63570  0.63581  0.70328  1.0000
  H   H4751     1.0  0.58022  0.62135  0.87666  1.0000
  C   C5922     1.0  0.70855  0.64030  0.74946  1.0000
  C   C5923     1.0  0.58830  0.70970  0.75218  1.0000
  C   C5924     1.0  0.54171  0.57618  0.74628  1.0000
  H   H4752     1.0  0.67406  0.72775  0.70180  1.0000
  C   C5925     1.0  0.51958  0.58116  0.73194  1.0000
  H   H4753     1.0  0.54893  0.65991  0.83556  1.0000
  C   C5926     1.0  0.69669  0.64056  0.58562  1.0000
  C   C5927     1.0  0.54579  0.59601  0.77109  1.0000
  H   H4754     1.0  0.64696  0.57703  0.77712  1.0000
  C   C5928     1.0  0.53142  0.56962  0.76103  1.0000
  S   S792      1.0  0.66640  0.70920  0.54981  1.0000
  C   C5929     1.0  0.65536  0.59946  0.76397  1.0000
  H   H4755     1.0  0.64292  0.64482  0.72447  1.0000
  C   C5930     1.0  0.66270  0.62317  0.72901  1.0000
  C   C5931     1.0  0.72003  0.63661  0.73526  1.0000
  C   C5932     1.0  0.57690  0.55864  0.74655  1.0000
  C   C5933     1.0  0.68069  0.72499  0.93479  1.0000
  Fe  Fe402     1.0  0.73092  0.62099  0.79172  1.0000
  C   C5934     1.0  0.71492  0.71970  0.71227  1.0000
  H   H4756     1.0  0.73418  0.57187  0.62945  1.0000
  C   C5935     1.0  0.71063  0.73064  0.93680  1.0000
  C   C5936     1.0  0.49128  0.66694  0.71013  1.0000
  Fe  Fe403     1.0  0.60804  0.72294  0.81090  1.0000
  H   H4757     1.0  0.53512  0.67490  0.65383  1.0000
  C   C5937     1.0  0.50672  0.62242  0.73070  1.0000
  C   C5938     1.0  0.55036  0.70917  0.60800  1.0000
  H   H4758     1.0  0.71518  0.65107  0.91350  1.0000
  C   C5939     1.0  0.49036  0.67048  0.65359  1.0000
  C   C5940     1.0  0.72922  0.53392  0.79889  1.0000
  C   C5941     1.0  0.65421  0.58558  0.77697  1.0000
  C   C5942     1.0  0.59214  0.72991  0.72039  1.0000
  S   S793      1.0  0.72489  0.64933  0.53156  1.0000
  C   C5943     1.0  0.53614  0.72150  0.60532  1.0000
  C   C5944     1.0  0.72661  0.57276  0.62093  1.0000
  H   H4759     1.0  0.71211  0.72360  0.97201  1.0000
  C   C5945     1.0  0.72543  0.69047  0.72281  1.0000
  H   H4760     1.0  0.72872  0.51241  0.79126  1.0000
  C   C5946     1.0  0.50563  0.62991  0.75622  1.0000
  H   H4761     1.0  0.61658  0.68131  0.76903  1.0000
  C   C5947     1.0  0.50055  0.72340  0.68322  1.0000
  C   C5948     1.0  0.72505  0.66875  0.89260  1.0000
  C   C5949     1.0  0.53472  0.66286  0.66204  1.0000
  C   C5950     1.0  0.52049  0.66046  0.67440  1.0000
  H   H4762     1.0  0.55003  0.63158  0.88504  1.0000
  P   P198      1.0  0.50284  0.67761  0.67652  1.0000
  C   C5951     1.0  0.56050  0.58553  0.76465  1.0000
  C   C5952     1.0  0.50832  0.69488  0.68012  1.0000
  C   C5953     1.0  0.52399  0.69347  0.68300  1.0000
  C   C5954     1.0  0.52804  0.70715  0.68542  1.0000
  C   C5955     1.0  0.51641  0.72218  0.68525  1.0000
  C   C5956     1.0  0.54207  0.72987  0.70700  1.0000
  C   C5957     1.0  0.49644  0.70977  0.68082  1.0000
  C   C5958     1.0  0.60032  0.52843  0.74663  1.0000
  H   H4763     1.0  0.66157  0.57193  0.79969  1.0000
  H   H4764     1.0  0.68437  0.65129  0.83098  1.0000
  C   C5959     1.0  0.62776  0.73040  0.59808  1.0000
  C   C5960     1.0  0.67287  0.60762  0.77652  1.0000
  C   C5961     1.0  0.67137  0.60811  0.72436  1.0000
  H   H4765     1.0  0.70760  0.65359  0.84120  1.0000
  H   H4766     1.0  0.66405  0.67645  0.82146  1.0000
  H   H4767     1.0  0.64861  0.60147  0.75445  1.0000
  H   H4768     1.0  0.60942  0.65508  0.76972  1.0000
  H   H4769     1.0  0.68093  0.59991  0.73053  1.0000
  H   H4770     1.0  0.71226  0.64461  0.75827  1.0000
  C   C5962     1.0  0.67397  0.51890  0.69088  1.0000
  H   H4771     1.0  0.53313  0.68190  0.68347  1.0000
  H   H4772     1.0  0.54023  0.70613  0.68741  1.0000
  S   S794      1.0  0.73065  0.56012  0.80954  1.0000
  H   H4773     1.0  0.65401  0.72670  0.58775  1.0000
  C   C5963     1.0  0.69645  0.71672  0.48651  1.0000
  H   H4774     1.0  0.50358  0.66662  0.71134  1.0000
  C   C5964     1.0  0.51999  0.64457  0.68445  1.0000
  H   H4775     1.0  0.70252  0.48293  0.70920  1.0000
  C   C5965     1.0  0.53384  0.63149  0.68266  1.0000
  C   C5966     1.0  0.57210  0.58585  0.78720  1.0000
  C   C5967     1.0  0.64594  0.62827  0.70890  1.0000
  C   C5968     1.0  0.70550  0.71227  0.85538  1.0000
  H   H4776     1.0  0.73513  0.67932  0.72218  1.0000
  C   C5969     1.0  0.54416  0.60103  0.78563  1.0000
  C   C5970     1.0  0.68744  0.63225  0.74143  1.0000
  C   C5971     1.0  0.62605  0.67152  0.76414  1.0000
  C   C5972     1.0  0.51690  0.71863  0.58438  1.0000
  P   P199      1.0  0.56202  0.57823  0.74641  1.0000
  C   C5973     1.0  0.63823  0.71928  0.72773  1.0000
  H   H4777     1.0  0.66693  0.66306  0.74612  1.0000
  C   C5974     1.0  0.66509  0.61044  0.76335  1.0000
  H   H4778     1.0  0.58649  0.70181  0.76447  1.0000
  C   C5975     1.0  0.64226  0.67368  0.75739  1.0000
  H   H4779     1.0  0.70932  0.67852  0.74392  1.0000
  C   C5976     1.0  0.54877  0.71422  0.71567  1.0000
  H   H4780     1.0  0.58690  0.70737  0.69011  1.0000
  C   C5977     1.0  0.72738  0.70528  0.71135  1.0000
  H   H4781     1.0  0.69491  0.72192  0.75821  1.0000
  C   C5978     1.0  0.69898  0.62897  0.72693  1.0000
  H   H4782     1.0  0.57935  0.51713  0.75288  1.0000
  H   H4783     1.0  0.72552  0.53062  0.83512  1.0000
  C   C5979     1.0  0.65322  0.72948  0.74131  1.0000
  H   H4784     1.0  0.72887  0.50055  0.84753  1.0000
  C   C5980     1.0  0.71674  0.70369  0.84367  1.0000
  H   H4785     1.0  0.68853  0.70662  0.83418  1.0000
  P   P200      1.0  0.71719  0.68211  0.84552  1.0000
  C   C5981     1.0  0.69988  0.68027  0.83857  1.0000
  C   C5982     1.0  0.69847  0.66468  0.83759  1.0000
  C   C5983     1.0  0.68544  0.66332  0.83169  1.0000
  C   C5984     1.0  0.67391  0.67748  0.82639  1.0000
  C   C5985     1.0  0.67517  0.69299  0.82736  1.0000
  C   C5986     1.0  0.68800  0.69442  0.83351  1.0000
  C   C5987     1.0  0.71634  0.67218  0.86712  1.0000
  C   C5988     1.0  0.72728  0.71213  0.83052  1.0000
  C   C5989     1.0  0.70509  0.72893  0.85415  1.0000
  H   H4786     1.0  0.73286  0.68563  0.87014  1.0000
  C   C5990     1.0  0.63954  0.72352  0.74171  1.0000
  P   P201      1.0  0.53177  0.72951  0.58496  1.0000
  C   C5991     1.0  0.58183  0.72680  0.74995  1.0000
  C   C5992     1.0  0.66436  0.72682  0.71292  1.0000
  C   C5993     1.0  0.49363  0.70127  0.58460  1.0000
  C   C5994     1.0  0.72952  0.58277  0.60506  1.0000
  C   C5995     1.0  0.67476  0.48885  0.68378  1.0000
  C   C5996     1.0  0.73708  0.71976  0.51621  1.0000
  H   H4787     1.0  0.73230  0.67197  0.89921  1.0000
  H   H4788     1.0  0.71358  0.70609  0.95274  1.0000
  S   S795      1.0  0.64559  0.72454  0.84723  1.0000
  H   H4789     1.0  0.51478  0.58595  0.72078  1.0000
  C   C5997     1.0  0.56499  0.72933  0.57021  1.0000
  H   H4790     1.0  0.49145  0.65804  0.66122  1.0000
  C   C5998     1.0  0.73449  0.49909  0.66384  1.0000
  C   C5999     1.0  0.69090  0.71286  0.94433  1.0000
  C   C6000     1.0  0.56315  0.72354  0.54057  1.0000
  H   H4791     1.0  0.62576  0.72278  0.59104  1.0000
  H   H4792     1.0  0.53747  0.72372  0.55161  1.0000
  H   H4793     1.0  0.64816  0.49491  0.69177  1.0000
  H   H4794     1.0  0.73384  0.72936  0.53770  1.0000
  C   C6001     1.0  0.49989  0.72502  0.58945  1.0000
  H   H4795     1.0  0.73273  0.55493  0.72925  1.0000
  C   C6002     1.0  0.49365  0.69877  0.64768  1.0000
  H   H4796     1.0  0.61864  0.48428  0.72966  1.0000
  C   C6003     1.0  0.54877  0.78114  0.32827  1.0000
  H   H4797     1.0  0.64068  0.82094  0.27724  1.0000
  C   C6004     1.0  0.70092  0.75764  0.33360  1.0000
  H   H4798     1.0  0.65845  0.78156  0.14344  1.0000
  H   H4799     1.0  0.70382  0.78793  0.46487  1.0000
  H   H4800     1.0  0.59180  0.83437  0.26784  1.0000
  H   H4801     1.0  0.73303  0.74722  0.44244  1.0000
  C   C6005     1.0  0.62769  0.82685  0.28055  1.0000
  H   H4802     1.0  0.67918  0.82721  0.18245  1.0000
  C   C6006     1.0  0.59690  0.83737  0.00137  1.0000
  C   C6007     1.0  0.65125  0.84628  0.29381  1.0000
  H   H4803     1.0  0.68910  0.75252  0.16379  1.0000
  Fe  Fe404     1.0  0.65214  0.77815  0.37981  1.0000
  S   S796      1.0  0.65230  0.80539  0.37143  1.0000
  S   S797      1.0  0.62844  0.77028  0.39415  1.0000
  Fe  Fe405     1.0  0.71777  0.82748  0.01780  1.0000
  C   C6008     1.0  0.61343  0.85814  0.35107  1.0000
  S   S798      1.0  0.70984  0.84811  0.03205  1.0000
  C   C6009     1.0  0.70888  0.74311  0.17697  1.0000
  Fe  Fe406     1.0  0.71288  0.79371  0.01830  1.0000
  S   S799      1.0  0.70372  0.77064  0.03226  1.0000
  S   S800      1.0  0.69849  0.81949  0.01037  1.0000
  C   C6010     1.0  0.65888  0.80301  0.99358  1.0000
  C   C6011     1.0  0.69225  0.77108  0.17429  1.0000
  Fe  Fe407     1.0  0.70268  0.89194  0.12004  1.0000
  S   S801      1.0  0.71888  0.86682  0.12639  1.0000
  S   S802      1.0  0.67499  0.89643  0.12270  1.0000
  H   H4804     1.0  0.73169  0.79870  0.07931  1.0000
  S   S803      1.0  0.73072  0.80157  0.02759  1.0000
  C   C6012     1.0  0.63727  0.74530  0.22060  1.0000
  H   H4805     1.0  0.70262  0.75764  0.10031  1.0000
  S   S804      1.0  0.71590  0.90450  0.13045  1.0000
  S   S805      1.0  0.71730  0.89826  0.09396  1.0000
  Fe  Fe408     1.0  0.60356  0.82437  0.22198  1.0000
  S   S806      1.0  0.61480  0.80527  0.20664  1.0000
  S   S807      1.0  0.58590  0.81803  0.24633  1.0000
  Fe  Fe409     1.0  0.62036  0.85060  0.19664  1.0000
  S   S808      1.0  0.63298  0.83376  0.17927  1.0000
  S   S809      1.0  0.62343  0.87695  0.18943  1.0000
  Fe  Fe410     1.0  0.60875  0.82625  0.18546  1.0000
  S   S810      1.0  0.59897  0.82318  0.16520  1.0000
  Fe  Fe411     1.0  0.63794  0.81454  0.20170  1.0000
  S   S811      1.0  0.66359  0.79888  0.20066  1.0000
  S   S812      1.0  0.59540  0.84472  0.20118  1.0000
  S   S813      1.0  0.62734  0.83200  0.21896  1.0000
  C   C6013     1.0  0.62251  0.84177  0.35310  1.0000
  C   C6014     1.0  0.60656  0.79203  0.30318  1.0000
  C   C6015     1.0  0.62060  0.78359  0.29365  1.0000
  Fe  Fe412     1.0  0.63111  0.75595  0.09695  1.0000
  S   S814      1.0  0.64961  0.75430  0.11137  1.0000
  S   S815      1.0  0.63027  0.77752  0.07503  1.0000
  H   H4806     1.0  0.62138  0.82064  0.26084  1.0000
  C   C6016     1.0  0.62649  0.84314  0.32381  1.0000
  S   S816      1.0  0.55806  0.74468  0.31169  1.0000
  S   S817      1.0  0.63154  0.75019  0.15739  1.0000
  P   P202      1.0  0.57541  0.79542  0.32419  1.0000
  S   S818      1.0  0.61144  0.74965  0.11977  1.0000
  Fe  Fe413     1.0  0.71530  0.81776  0.28880  1.0000
  S   S819      1.0  0.71064  0.79335  0.28932  1.0000
  S   S820      1.0  0.70888  0.82861  0.31128  1.0000
  Fe  Fe414     1.0  0.72811  0.82482  0.25171  1.0000
  S   S821      1.0  0.72389  0.80126  0.24910  1.0000
  C   C6017     1.0  0.59280  0.73328  0.34202  1.0000
  Fe  Fe415     1.0  0.69995  0.80704  0.26725  1.0000
  S   S822      1.0  0.67506  0.80324  0.26789  1.0000
  H   H4807     1.0  0.71936  0.80773  0.44394  1.0000
  H   H4808     1.0  0.71480  0.84115  0.11378  1.0000
  S   S823      1.0  0.70303  0.83185  0.26772  1.0000
  C   C6018     1.0  0.71441  0.77231  0.06988  1.0000
  P   P203      1.0  0.64761  0.82404  0.98762  1.0000
  C   C6019     1.0  0.67999  0.84847  0.19031  1.0000
  Fe  Fe416     1.0  0.53873  0.73475  0.30684  1.0000
  H   H4809     1.0  0.72375  0.84585  0.16172  1.0000
  C   C6020     1.0  0.60929  0.80373  0.16100  1.0000
  C   C6021     1.0  0.62239  0.79450  0.16856  1.0000
  C   C6022     1.0  0.62923  0.77805  0.16731  1.0000
  C   C6023     1.0  0.62355  0.77106  0.15777  1.0000
  C   C6024     1.0  0.61121  0.78057  0.14924  1.0000
  C   C6025     1.0  0.60390  0.79690  0.15104  1.0000
  H   H4810     1.0  0.62711  0.79995  0.17558  1.0000
  H   H4811     1.0  0.63887  0.77074  0.17382  1.0000
  H   H4812     1.0  0.60686  0.77514  0.14180  1.0000
  H   H4813     1.0  0.59384  0.80409  0.14508  1.0000
  C   C6026     1.0  0.66750  0.79936  0.21924  1.0000
  C   C6027     1.0  0.68213  0.80322  0.21959  1.0000
  C   C6028     1.0  0.68450  0.80467  0.23451  1.0000
  C   C6029     1.0  0.67236  0.80198  0.24901  1.0000
  C   C6030     1.0  0.65775  0.79818  0.24858  1.0000
  C   C6031     1.0  0.65529  0.79697  0.23369  1.0000
  H   H4814     1.0  0.69140  0.80548  0.20834  1.0000
  H   H4815     1.0  0.69559  0.80802  0.23476  1.0000
  H   H4816     1.0  0.64833  0.79618  0.25976  1.0000
  H   H4817     1.0  0.64389  0.79418  0.23337  1.0000
  C   C6032     1.0  0.66160  0.89060  0.14181  1.0000
  C   C6033     1.0  0.64738  0.90227  0.14687  1.0000
  C   C6034     1.0  0.63609  0.89804  0.16172  1.0000
  C   C6035     1.0  0.63836  0.88182  0.17117  1.0000
  C   C6036     1.0  0.65239  0.86995  0.16596  1.0000
  C   C6037     1.0  0.66423  0.87444  0.15148  1.0000
  H   H4818     1.0  0.64521  0.91472  0.13939  1.0000
  H   H4819     1.0  0.62531  0.90726  0.16565  1.0000
  H   H4820     1.0  0.65417  0.85740  0.17314  1.0000
  H   H4821     1.0  0.67516  0.86537  0.14763  1.0000
  C   C6038     1.0  0.65054  0.77587  0.06268  1.0000
  C   C6039     1.0  0.65443  0.78818  0.04860  1.0000
  C   C6040     1.0  0.67087  0.78708  0.03937  1.0000
  C   C6041     1.0  0.68328  0.77336  0.04394  1.0000
  C   C6042     1.0  0.67930  0.76103  0.05786  1.0000
  C   C6043     1.0  0.66307  0.76234  0.06720  1.0000
  H   H4822     1.0  0.64485  0.79875  0.04516  1.0000
  H   H4823     1.0  0.67388  0.79672  0.02869  1.0000
  H   H4824     1.0  0.68883  0.75051  0.06167  1.0000
  H   H4825     1.0  0.66041  0.75276  0.07793  1.0000
  C   C6044     1.0  0.72016  0.84901  0.04688  1.0000
  C   C6045     1.0  0.71678  0.86390  0.05213  1.0000
  C   C6046     1.0  0.72398  0.86502  0.06445  1.0000
  C   C6047     1.0  0.50067  0.78472  0.20390  1.0000
  H   H4826     1.0  0.52896  0.84375  0.31683  1.0000
  C   C6048     1.0  0.53946  0.76056  0.35212  1.0000
  H   H4827     1.0  0.70877  0.87476  0.04642  1.0000
  H   H4828     1.0  0.72119  0.87659  0.06833  1.0000
  C   C6049     1.0  0.68603  0.76089  0.24377  1.0000
  H   H4829     1.0  0.53626  0.84895  0.28619  1.0000
  C   C6050     1.0  0.71177  0.76495  0.22405  1.0000
  C   C6051     1.0  0.55023  0.76872  0.19613  1.0000
  H   H4830     1.0  0.73396  0.82371  0.04994  1.0000
  C   C6052     1.0  0.60292  0.79382  0.35655  1.0000
  H   H4831     1.0  0.56961  0.79967  0.17222  1.0000
  S   S824      1.0  0.51277  0.75044  0.30834  1.0000
  C   C6053     1.0  0.73376  0.81225  0.19922  1.0000
  C   C6054     1.0  0.66774  0.81150  0.35419  1.0000
  C   C6055     1.0  0.67010  0.82769  0.35058  1.0000
  C   C6056     1.0  0.68277  0.83276  0.33744  1.0000
  C   C6057     1.0  0.69287  0.82186  0.32745  1.0000
  C   C6058     1.0  0.69025  0.80580  0.33074  1.0000
  C   C6059     1.0  0.67775  0.80059  0.34417  1.0000
  H   H4832     1.0  0.66236  0.83622  0.35822  1.0000
  H   H4833     1.0  0.68472  0.84519  0.33497  1.0000
  H   H4834     1.0  0.69809  0.79727  0.32320  1.0000
  H   H4835     1.0  0.67584  0.78818  0.34675  1.0000
  C   C6060     1.0  0.59382  0.76208  0.26679  1.0000
  C   C6061     1.0  0.57848  0.77245  0.27165  1.0000
  C   C6062     1.0  0.57615  0.78967  0.26550  1.0000
  C   C6063     1.0  0.58910  0.79653  0.25440  1.0000
  C   C6064     1.0  0.60448  0.78616  0.24974  1.0000
  C   C6065     1.0  0.60683  0.76897  0.25593  1.0000
  H   H4836     1.0  0.56838  0.76721  0.27998  1.0000
  H   H4837     1.0  0.56424  0.79766  0.26914  1.0000
  H   H4838     1.0  0.61462  0.79140  0.24150  1.0000
  H   H4839     1.0  0.61876  0.76101  0.25232  1.0000
  H   H4840     1.0  0.58100  0.84728  0.29216  1.0000
  H   H4841     1.0  0.62483  0.83488  0.36514  1.0000
  H   H4842     1.0  0.52910  0.80118  0.21446  1.0000
  C   C6066     1.0  0.59332  0.76899  0.30905  1.0000
  H   H4843     1.0  0.61141  0.78438  0.36330  1.0000
  C   C6067     1.0  0.71826  0.76564  0.23705  1.0000
  H   H4844     1.0  0.70745  0.82520  0.16431  1.0000
  H   H4845     1.0  0.54610  0.82059  0.33327  1.0000
  C   C6068     1.0  0.66887  0.76677  0.45006  1.0000
  C   C6069     1.0  0.65978  0.76243  0.44125  1.0000
  H   H4846     1.0  0.68864  0.75510  0.33822  1.0000
  C   C6070     1.0  0.59744  0.73362  0.37283  1.0000
  H   H4847     1.0  0.57815  0.80804  0.28816  1.0000
  H   H4848     1.0  0.67492  0.77708  0.44437  1.0000
  H   H4849     1.0  0.65866  0.76955  0.42900  1.0000
  Fe  Fe417     1.0  0.64487  0.75100  0.40995  1.0000
  C   C6071     1.0  0.60315  0.75378  0.20216  1.0000
  H   H4850     1.0  0.69064  0.93766  0.24780  1.0000
  H   H4851     1.0  0.73616  0.78497  0.16936  1.0000
  C   C6072     1.0  0.67626  0.77044  0.00363  1.0000
  C   C6073     1.0  0.65195  0.74908  0.44842  1.0000
  C   C6074     1.0  0.54395  0.83900  0.29341  1.0000
  C   C6075     1.0  0.60010  0.83428  0.27528  1.0000
  H   H4852     1.0  0.60781  0.74824  0.29838  1.0000
  C   C6076     1.0  0.61322  0.83597  0.99213  1.0000
  H   H4853     1.0  0.73588  0.76874  0.38414  1.0000
  H   H4854     1.0  0.65266  0.76217  0.21817  1.0000
  C   C6077     1.0  0.68580  0.75269  0.12351  1.0000
  C   C6078     1.0  0.60546  0.74008  0.34301  1.0000
  C   C6079     1.0  0.71031  0.75416  0.31850  1.0000
  H   H4855     1.0  0.66748  0.84925  0.19771  1.0000
  C   C6080     1.0  0.56382  0.81304  0.31197  1.0000
  C   C6081     1.0  0.59407  0.84165  0.28892  1.0000
  C   C6082     1.0  0.55777  0.82885  0.28544  1.0000
  C   C6083     1.0  0.50386  0.77822  0.25206  1.0000
  C   C6084     1.0  0.60781  0.74033  0.35835  1.0000
  H   H4856     1.0  0.63971  0.85631  0.27276  1.0000
  H   H4857     1.0  0.54118  0.74489  0.24947  1.0000
  H   H4858     1.0  0.73310  0.79851  0.31819  1.0000
  C   C6085     1.0  0.67493  0.85733  0.29202  1.0000
  C   C6086     1.0  0.62905  0.83428  0.33955  1.0000
  H   H4859     1.0  0.57370  0.82785  0.33139  1.0000
  P   P204      1.0  0.63620  0.83417  0.30597  1.0000
  H   H4860     1.0  0.58675  0.84511  0.99574  1.0000
  C   C6087     1.0  0.73566  0.79231  0.17787  1.0000
  H   H4861     1.0  0.54091  0.78446  0.26523  1.0000
  C   C6088     1.0  0.68442  0.78354  0.99845  1.0000
  H   H4862     1.0  0.72768  0.75484  0.05455  1.0000
  H   H4863     1.0  0.68243  0.80968  0.98930  1.0000
  H   H4864     1.0  0.70444  0.96473  0.13447  1.0000
  H   H4865     1.0  0.61160  0.74932  0.19166  1.0000
  H   H4866     1.0  0.72818  0.73542  0.02344  1.0000
  Fe  Fe418     1.0  0.73422  0.87352  0.10077  1.0000
  H   H4867     1.0  0.73765  0.73866  0.22823  1.0000
  C   C6089     1.0  0.70938  0.73368  0.40496  1.0000
  H   H4868     1.0  0.67201  0.80025  0.11945  1.0000
  H   H4869     1.0  0.72232  0.79461  0.21833  1.0000
  C   C6090     1.0  0.59364  0.82880  0.01785  1.0000
  H   H4870     1.0  0.67965  0.91991  0.23709  1.0000
  H   H4871     1.0  0.51270  0.78895  0.28319  1.0000
  H   H4872     1.0  0.68375  0.78796  0.39438  1.0000
  H   H4873     1.0  0.70675  0.95760  0.22851  1.0000
  C   C6091     1.0  0.73493  0.85128  0.07151  1.0000
  C   C6092     1.0  0.70177  0.80977  0.09782  1.0000
  C   C6093     1.0  0.53860  0.77734  0.20759  1.0000
  C   C6094     1.0  0.71397  0.76257  0.18975  1.0000
  S   S825      1.0  0.72912  0.79267  0.99325  1.0000
  H   H4874     1.0  0.71259  0.79117  0.11680  1.0000
  P   P205      1.0  0.52364  0.76737  0.22366  1.0000
  C   C6095     1.0  0.73616  0.96520  0.15987  1.0000
  H   H4875     1.0  0.64226  0.83691  0.01755  1.0000
  H   H4876     1.0  0.70524  0.74922  0.31124  1.0000
  C   C6096     1.0  0.65202  0.84184  0.00822  1.0000
  C   C6097     1.0  0.53987  0.73770  0.24164  1.0000
  C   C6098     1.0  0.53988  0.83609  0.31064  1.0000
  C   C6099     1.0  0.69258  0.76173  0.25654  1.0000
  H   H4877     1.0  0.58099  0.82988  0.02499  1.0000
  H   H4878     1.0  0.60906  0.78630  0.44540  1.0000
  C   C6100     1.0  0.60211  0.74375  0.21816  1.0000
  C   C6101     1.0  0.71870  0.89015  0.22017  1.0000
  C   C6102     1.0  0.72362  0.76686  0.33738  1.0000
  H   H4879     1.0  0.61634  0.86701  0.30961  1.0000
  C   C6103     1.0  0.70558  0.95086  0.20656  1.0000
  H   H4880     1.0  0.70777  0.87730  0.24414  1.0000
  C   C6104     1.0  0.72922  0.78722  0.19487  1.0000
  H   H4881     1.0  0.50900  0.79304  0.19772  1.0000
  Fe  Fe419     1.0  0.73497  0.78986  0.27125  1.0000
  C   C6105     1.0  0.71510  0.96436  0.12425  1.0000
  H   H4882     1.0  0.58698  0.83534  0.34930  1.0000
  H   H4883     1.0  0.63182  0.76131  0.28437  1.0000
  H   H4884     1.0  0.63119  0.78922  0.28777  1.0000
  C   C6106     1.0  0.70435  0.81607  0.36665  1.0000
  C   C6107     1.0  0.69271  0.80971  0.38005  1.0000
  H   H4885     1.0  0.69923  0.73670  0.03922  1.0000
  C   C6108     1.0  0.70510  0.78214  0.37504  1.0000
  C   C6109     1.0  0.71684  0.78839  0.36149  1.0000
  C   C6110     1.0  0.71629  0.80552  0.35733  1.0000
  C   C6111     1.0  0.63456  0.80167  0.32101  1.0000
  C   C6112     1.0  0.54926  0.80217  0.19321  1.0000
  H   H4886     1.0  0.52848  0.76982  0.33087  1.0000
  H   H4887     1.0  0.67890  0.74281  0.20890  1.0000
  H   H4888     1.0  0.60563  0.81358  0.36557  1.0000
  H   H4889     1.0  0.73215  0.92998  0.18949  1.0000
  C   C6113     1.0  0.73530  0.93795  0.17748  1.0000
  S   S826      1.0  0.62347  0.74991  0.35833  1.0000
  C   C6114     1.0  0.70229  0.83807  0.09693  1.0000
  C   C6115     1.0  0.69288  0.93869  0.23461  1.0000
  H   H4890     1.0  0.50342  0.73452  0.26178  1.0000
  C   C6116     1.0  0.64095  0.78470  0.32575  1.0000
  H   H4891     1.0  0.66302  0.76537  0.32589  1.0000
  H   H4892     1.0  0.62133  0.80642  0.32417  1.0000
  C   C6117     1.0  0.68656  0.83593  0.18144  1.0000
  H   H4893     1.0  0.70374  0.82930  0.36306  1.0000
  H   H4894     1.0  0.68304  0.81798  0.38686  1.0000
  H   H4895     1.0  0.71446  0.94032  0.12166  1.0000
  S   S827      1.0  0.64941  0.73178  0.39498  1.0000
  C   C6118     1.0  0.66107  0.73397  0.32628  1.0000
  H   H4896     1.0  0.66501  0.83981  0.31296  1.0000
  H   H4897     1.0  0.61352  0.74516  0.33181  1.0000
  H   H4898     1.0  0.54766  0.78836  0.31601  1.0000
  H   H4899     1.0  0.72044  0.75626  0.99696  1.0000
  C   C6119     1.0  0.53183  0.74521  0.22843  1.0000
  Fe  Fe420     1.0  0.67157  0.74239  0.38088  1.0000
  C   C6120     1.0  0.72528  0.76786  0.46593  1.0000
  C   C6121     1.0  0.55181  0.76122  0.35936  1.0000
  H   H4900     1.0  0.63799  0.79182  0.99776  1.0000
  C   C6122     1.0  0.71543  0.78433  0.07747  1.0000
  C   C6123     1.0  0.67625  0.82386  0.05144  1.0000
  C   C6124     1.0  0.65990  0.82188  0.05644  1.0000
  C   C6125     1.0  0.65494  0.81103  0.07131  1.0000
  C   C6126     1.0  0.66626  0.80228  0.08128  1.0000
  C   C6127     1.0  0.68256  0.80465  0.07658  1.0000
  C   C6128     1.0  0.68759  0.81516  0.06136  1.0000
  C   C6129     1.0  0.53054  0.78292  0.26143  1.0000
  C   C6130     1.0  0.72083  0.95042  0.11706  1.0000
  H   H4901     1.0  0.68181  0.78408  0.31009  1.0000
  H   H4902     1.0  0.60638  0.80419  0.30453  1.0000
  C   C6131     1.0  0.58155  0.81815  0.33854  1.0000
  C   C6132     1.0  0.51465  0.78559  0.27149  1.0000
  C   C6133     1.0  0.68812  0.78050  0.10781  1.0000
  C   C6134     1.0  0.59287  0.78474  0.31103  1.0000
  C   C6135     1.0  0.60743  0.76053  0.29962  1.0000
  H   H4903     1.0  0.68482  0.85760  0.29739  1.0000
  C   C6136     1.0  0.54967  0.82306  0.31990  1.0000
  H   H4904     1.0  0.58297  0.76304  0.31494  1.0000
  H   H4905     1.0  0.68020  0.83218  0.03988  1.0000
  H   H4906     1.0  0.65119  0.82838  0.04862  1.0000
  H   H4907     1.0  0.64245  0.80892  0.07482  1.0000
  H   H4908     1.0  0.66226  0.79355  0.09245  1.0000
  H   H4909     1.0  0.70023  0.81689  0.05727  1.0000
  H   H4910     1.0  0.60436  0.87996  0.33376  1.0000
  H   H4911     1.0  0.59050  0.74297  0.24395  1.0000
  C   C6137     1.0  0.58916  0.82250  0.34861  1.0000
  C   C6138     1.0  0.59550  0.78948  0.34636  1.0000
  Fe  Fe421     1.0  0.63539  0.75185  0.37784  1.0000
  C   C6139     1.0  0.73451  0.94977  0.10375  1.0000
  H   H4912     1.0  0.65962  0.87388  0.25723  1.0000
  H   H4913     1.0  0.59982  0.84704  0.30915  1.0000
  H   H4914     1.0  0.72711  0.73681  0.19152  1.0000
  C   C6140     1.0  0.62302  0.81741  0.01591  1.0000
  C   C6141     1.0  0.67277  0.85837  0.00041  1.0000
  C   C6142     1.0  0.71705  0.78406  0.46017  1.0000
  C   C6143     1.0  0.73686  0.97709  0.10517  1.0000
  H   H4915     1.0  0.72750  0.89366  0.22469  1.0000
  H   H4916     1.0  0.69736  0.78121  0.99870  1.0000
  C   C6144     1.0  0.73072  0.95529  0.17532  1.0000
  C   C6145     1.0  0.66722  0.73903  0.21192  1.0000
  C   C6146     1.0  0.70215  0.94988  0.22364  1.0000
  C   C6147     1.0  0.66863  0.78905  0.31307  1.0000
  C   C6148     1.0  0.65705  0.83787  0.99258  1.0000
  S   S828      1.0  0.65811  0.76117  0.36273  1.0000
  C   C6149     1.0  0.71161  0.84638  0.16989  1.0000
  C   C6150     1.0  0.50778  0.74073  0.28249  1.0000
  C   C6151     1.0  0.58216  0.76655  0.22895  1.0000
  C   C6152     1.0  0.58357  0.77655  0.21306  1.0000
  C   C6153     1.0  0.59392  0.77010  0.19966  1.0000
  H   H4917     1.0  0.71372  0.76496  0.26304  1.0000
  H   H4918     1.0  0.63270  0.77643  0.33254  1.0000
  C   C6154     1.0  0.60547  0.77772  0.47184  1.0000
  C   C6155     1.0  0.50130  0.78346  0.26669  1.0000
  H   H4919     1.0  0.67081  0.81396  0.30110  1.0000
  C   C6156     1.0  0.68929  0.93027  0.21158  1.0000
  C   C6157     1.0  0.69309  0.79276  0.38425  1.0000
  C   C6158     1.0  0.71087  0.83240  0.10966  1.0000
  P   P206      1.0  0.71812  0.96471  0.19224  1.0000
  Fe  Fe422     1.0  0.73193  0.90888  0.10496  1.0000
  H   H4920     1.0  0.70032  0.94259  0.18741  1.0000
  C   C6159     1.0  0.65954  0.77349  0.00327  1.0000
  H   H4921     1.0  0.73066  0.76760  0.23474  1.0000
  C   C6160     1.0  0.71890  0.89436  0.20332  1.0000
  C   C6161     1.0  0.58440  0.80150  0.33761  1.0000
  H   H4922     1.0  0.60854  0.86393  0.36160  1.0000
  C   C6162     1.0  0.61683  0.82662  0.27127  1.0000
  C   C6163     1.0  0.50458  0.77127  0.21684  1.0000
  H   H4923     1.0  0.57453  0.77167  0.23942  1.0000
  H   H4924     1.0  0.57693  0.78940  0.21116  1.0000
  H   H4925     1.0  0.59516  0.77791  0.18736  1.0000
  H   H4926     1.0  0.60088  0.76261  0.44132  1.0000
  C   C6164     1.0  0.71763  0.74663  0.18654  1.0000
  S   S829      1.0  0.66793  0.76030  0.39666  1.0000
  H   H4927     1.0  0.70259  0.76939  0.07119  1.0000
  C   C6165     1.0  0.62182  0.83456  0.29406  1.0000
  H   H4928     1.0  0.59861  0.77672  0.34516  1.0000
  H   H4929     1.0  0.63300  0.80963  0.02174  1.0000
  C   C6166     1.0  0.62617  0.81274  0.10886  1.0000
  C   C6167     1.0  0.60914  0.81891  0.11026  1.0000
  C   C6168     1.0  0.60189  0.83470  0.11348  1.0000
  C   C6169     1.0  0.61166  0.84432  0.11537  1.0000
  C   C6170     1.0  0.62879  0.83815  0.11411  1.0000
  C   C6171     1.0  0.63600  0.82241  0.11055  1.0000
  P   P207      1.0  0.64147  0.85008  0.11736  1.0000
  C   C6172     1.0  0.65405  0.85902  0.09805  1.0000
  C   C6173     1.0  0.62806  0.86577  0.12827  1.0000
  C   C6174     1.0  0.62566  0.88275  0.12077  1.0000
  C   C6175     1.0  0.61592  0.89455  0.12990  1.0000
  C   C6176     1.0  0.60814  0.88948  0.14640  1.0000
  C   C6177     1.0  0.60982  0.87261  0.15367  1.0000
  C   C6178     1.0  0.61961  0.86082  0.14459  1.0000
  C   C6179     1.0  0.66200  0.87154  0.09733  1.0000
  C   C6180     1.0  0.67158  0.87855  0.08244  1.0000
  C   C6181     1.0  0.67335  0.87313  0.06812  1.0000
  C   C6182     1.0  0.66575  0.86056  0.06871  1.0000
  C   C6183     1.0  0.65614  0.85349  0.08360  1.0000
  C   C6184     1.0  0.65470  0.83668  0.13105  1.0000
  C   C6185     1.0  0.65023  0.82231  0.14198  1.0000
  C   C6186     1.0  0.66013  0.81238  0.15302  1.0000
  C   C6187     1.0  0.67432  0.81689  0.15353  1.0000
  C   C6188     1.0  0.67875  0.83120  0.14286  1.0000
  C   C6189     1.0  0.66904  0.84102  0.13167  1.0000
  H   H4930     1.0  0.63168  0.80038  0.10660  1.0000
  H   H4931     1.0  0.60155  0.81134  0.10905  1.0000
  H   H4932     1.0  0.58864  0.83938  0.11484  1.0000
  H   H4933     1.0  0.60573  0.85640  0.11812  1.0000
  H   H4934     1.0  0.64917  0.81756  0.10934  1.0000
  H   H4935     1.0  0.63126  0.88704  0.10797  1.0000
  H   H4936     1.0  0.61461  0.90765  0.12427  1.0000
  H   H4937     1.0  0.60094  0.89858  0.15363  1.0000
  H   H4938     1.0  0.60379  0.86867  0.16645  1.0000
  H   H4939     1.0  0.62056  0.84781  0.15030  1.0000
  H   H4940     1.0  0.66066  0.87614  0.10822  1.0000
  H   H4941     1.0  0.67761  0.88822  0.08205  1.0000
  H   H4942     1.0  0.68059  0.87869  0.05652  1.0000
  H   H4943     1.0  0.66739  0.85631  0.05757  1.0000
  H   H4944     1.0  0.65036  0.84381  0.08367  1.0000
  H   H4945     1.0  0.63879  0.81907  0.14250  1.0000
  H   H4946     1.0  0.65631  0.80166  0.16180  1.0000
  H   H4947     1.0  0.68153  0.80962  0.16259  1.0000
  H   H4948     1.0  0.68949  0.83502  0.14344  1.0000
  H   H4949     1.0  0.67264  0.85222  0.12392  1.0000
  C   C6190     1.0  0.63416  0.87154  0.22752  1.0000
  C   C6191     1.0  0.63740  0.85706  0.23947  1.0000
  C   C6192     1.0  0.65374  0.84870  0.24000  1.0000
  C   C6193     1.0  0.66687  0.85499  0.22868  1.0000
  C   C6194     1.0  0.66374  0.86981  0.21685  1.0000
  C   C6195     1.0  0.64724  0.87779  0.21613  1.0000
  P   P208      1.0  0.68067  0.87627  0.20065  1.0000
  C   C6196     1.0  0.67375  0.89573  0.18709  1.0000
  C   C6197     1.0  0.69614  0.88066  0.20843  1.0000
  C   C6198     1.0  0.69616  0.87637  0.22537  1.0000
  C   C6199     1.0  0.70745  0.88104  0.23116  1.0000
  C   C6200     1.0  0.70753  0.76387  0.34306  1.0000
  H   H4950     1.0  0.68291  0.75799  0.00803  1.0000
  C   C6201     1.0  0.70766  0.88972  0.19747  1.0000
  C   C6202     1.0  0.67857  0.89775  0.16985  1.0000
  C   C6203     1.0  0.67453  0.91335  0.15959  1.0000
  C   C6204     1.0  0.66553  0.92699  0.16640  1.0000
  C   C6205     1.0  0.66071  0.92512  0.18354  1.0000
  C   C6206     1.0  0.66493  0.90959  0.19385  1.0000
  C   C6207     1.0  0.68934  0.85991  0.18931  1.0000
  C   C6208     1.0  0.70525  0.85867  0.17910  1.0000
  C   C6209     1.0  0.70238  0.83486  0.17124  1.0000
  C   C6210     1.0  0.69556  0.76250  0.22760  1.0000
  H   H4951     1.0  0.62150  0.87749  0.22647  1.0000
  H   H4952     1.0  0.62718  0.85207  0.24787  1.0000
  H   H4953     1.0  0.65629  0.83710  0.24886  1.0000
  H   H4954     1.0  0.67943  0.84787  0.22872  1.0000
  H   H4955     1.0  0.64429  0.88829  0.20626  1.0000
  H   H4956     1.0  0.68758  0.86946  0.23423  1.0000
  C   C6211     1.0  0.56130  0.77678  0.18336  1.0000
  C   C6212     1.0  0.56126  0.78189  0.33546  1.0000
  C   C6213     1.0  0.65091  0.78969  0.99807  1.0000
  H   H4957     1.0  0.70796  0.89333  0.18434  1.0000
  H   H4958     1.0  0.68552  0.88742  0.16419  1.0000
  H   H4959     1.0  0.67821  0.91481  0.14628  1.0000
  H   H4960     1.0  0.66228  0.93899  0.15834  1.0000
  H   H4961     1.0  0.65374  0.93572  0.18880  1.0000
  H   H4962     1.0  0.66137  0.90836  0.20711  1.0000
  H   H4963     1.0  0.71267  0.86733  0.17799  1.0000
  H   H4964     1.0  0.57226  0.77171  0.35696  1.0000
  H   H4965     1.0  0.56073  0.83090  0.27207  1.0000
  H   H4966     1.0  0.73427  0.85055  0.26055  1.0000
  C   C6214     1.0  0.61775  0.85974  0.32178  1.0000
  C   C6215     1.0  0.60484  0.84164  0.29843  1.0000
  C   C6216     1.0  0.65244  0.74993  0.21713  1.0000
  C   C6217     1.0  0.73265  0.96862  0.20147  1.0000
  H   H4967     1.0  0.68496  0.76120  0.26892  1.0000
  C   C6218     1.0  0.56267  0.77182  0.35111  1.0000
  C   C6219     1.0  0.69784  0.82684  0.09092  1.0000
  H   H4968     1.0  0.54553  0.77562  0.23916  1.0000
  H   H4969     1.0  0.63642  0.82173  0.34142  1.0000
  C   C6220     1.0  0.65981  0.85212  0.01206  1.0000
  C   C6221     1.0  0.53810  0.79419  0.20593  1.0000
  C   C6222     1.0  0.59131  0.75020  0.23149  1.0000
  C   C6223     1.0  0.70122  0.77477  0.18355  1.0000
  C   C6224     1.0  0.60047  0.76354  0.45369  1.0000
  H   H4970     1.0  0.57044  0.77002  0.17469  1.0000
  P   P209      1.0  0.72431  0.76687  0.20314  1.0000
  H   H4971     1.0  0.73275  0.82016  0.20747  1.0000
  H   H4972     1.0  0.69162  0.83167  0.08077  1.0000
  C   C6225     1.0  0.49781  0.74008  0.27237  1.0000
  H   H4973     1.0  0.64866  0.74147  0.32926  1.0000
  C   C6226     1.0  0.62643  0.82595  0.99934  1.0000
  H   H4974     1.0  0.52099  0.73583  0.27961  1.0000
  H   H4975     1.0  0.68196  0.78033  0.17012  1.0000
  H   H4976     1.0  0.69787  0.78696  0.18633  1.0000
  C   C6227     1.0  0.60671  0.81882  0.02511  1.0000
  H   H4977     1.0  0.72477  0.81096  0.34673  1.0000
  H   H4978     1.0  0.59275  0.74055  0.46530  1.0000
  H   H4979     1.0  0.66703  0.75114  0.14607  1.0000
  C   C6228     1.0  0.61107  0.86714  0.33541  1.0000
  C   C6229     1.0  0.65800  0.77843  0.32188  1.0000
  H   H4980     1.0  0.65602  0.85505  0.02415  1.0000
  C   C6230     1.0  0.59971  0.81030  0.35774  1.0000
  Fe  Fe423     1.0  0.63147  0.74494  0.13357  1.0000
  C   C6231     1.0  0.53783  0.77064  0.33665  1.0000
  H   H4981     1.0  0.49338  0.77609  0.24898  1.0000
  P   P210      1.0  0.69700  0.79471  0.08989  1.0000
  H   H4982     1.0  0.68996  0.76240  0.21789  1.0000
  C   C6232     1.0  0.66382  0.84710  0.30075  1.0000
  H   H4983     1.0  0.67332  0.75968  0.24629  1.0000
  C   C6233     1.0  0.67111  0.73754  0.31053  1.0000
  C   C6234     1.0  0.66987  0.75814  0.46629  1.0000
  C   C6235     1.0  0.72862  0.76404  0.06043  1.0000
  H   H4984     1.0  0.68225  0.87466  0.26950  1.0000
  C   C6236     1.0  0.56767  0.81589  0.29465  1.0000
  S   S830      1.0  0.64008  0.74341  0.43793  1.0000
  C   C6237     1.0  0.70871  0.76402  0.25319  1.0000
  C   C6238     1.0  0.62102  0.76785  0.29184  1.0000
  Fe  Fe424     1.0  0.71638  0.81910  0.98576  1.0000
  C   C6239     1.0  0.67588  0.78699  0.12039  1.0000
  H   H4985     1.0  0.72103  0.81122  0.12683  1.0000
  C   C6240     1.0  0.67348  0.86693  0.27631  1.0000
  C   C6241     1.0  0.66081  0.86641  0.26939  1.0000
  C   C6242     1.0  0.64964  0.85623  0.27816  1.0000
  C   C6243     1.0  0.64517  0.81247  0.31226  1.0000
  C   C6244     1.0  0.66230  0.80605  0.30818  1.0000
  H   H4986     1.0  0.59113  0.73314  0.33012  1.0000
  H   H4987     1.0  0.55090  0.75577  0.19701  1.0000
  C   C6245     1.0  0.56084  0.79348  0.18193  1.0000
  H   H4988     1.0  0.55333  0.75304  0.37116  1.0000
  H   H4989     1.0  0.60425  0.81211  0.03789  1.0000
  C   C6246     1.0  0.49336  0.76085  0.22464  1.0000
  C   C6247     1.0  0.65342  0.74011  0.46442  1.0000
  H   H4990     1.0  0.49596  0.75058  0.23484  1.0000
  H   H4991     1.0  0.67915  0.86593  0.00354  1.0000
  H   H4992     1.0  0.70505  0.76909  0.37838  1.0000
  C   C6248     1.0  0.67581  0.79975  0.99334  1.0000
  H   H4993     1.0  0.68822  0.85889  0.97595  1.0000
  H   H4994     1.0  0.69999  0.76615  0.35480  1.0000
  C   C6249     1.0  0.72581  0.79517  0.44836  1.0000
  C   C6250     1.0  0.69614  0.75532  0.17090  1.0000
  H   H4995     1.0  0.68937  0.73938  0.12456  1.0000
  H   H4996     1.0  0.54902  0.81510  0.19212  1.0000
  C   C6251     1.0  0.72785  0.79764  0.20537  1.0000
  H   H4997     1.0  0.65324  0.76331  0.00718  1.0000
  C   C6252     1.0  0.72653  0.75642  0.31307  1.0000
  C   C6253     1.0  0.69849  0.94148  0.20058  1.0000
  C   C6254     1.0  0.73070  0.78876  0.07451  1.0000
  C   C6255     1.0  0.70981  0.80424  0.11108  1.0000
  C   C6256     1.0  0.53311  0.77789  0.24669  1.0000
  H   H4998     1.0  0.68442  0.92264  0.20687  1.0000
  C   C6257     1.0  0.51984  0.77526  0.24201  1.0000
  C   C6258     1.0  0.68662  0.92875  0.22859  1.0000
  C   C6259     1.0  0.73118  0.83524  0.05389  1.0000
  H   H4999     1.0  0.52424  0.74077  0.20844  1.0000
  C   C6260     1.0  0.66836  0.77644  0.13415  1.0000
  C   C6261     1.0  0.71540  0.73896  0.98606  1.0000
  H   H5000     1.0  0.66650  0.74792  0.30129  1.0000
  C   C6262     1.0  0.60515  0.77688  0.45600  1.0000
  C   C6263     1.0  0.67325  0.75929  0.13567  1.0000
  C   C6264     1.0  0.72232  0.75196  0.98576  1.0000
  C   C6265     1.0  0.50064  0.74820  0.29604  1.0000
  S   S831      1.0  0.59701  0.74047  0.27388  1.0000
  C   C6266     1.0  0.69320  0.76320  0.10959  1.0000
  H   H5001     1.0  0.71169  0.74294  0.39372  1.0000
  H   H5002     1.0  0.53147  0.75189  0.35831  1.0000
  C   C6267     1.0  0.59597  0.75107  0.46724  1.0000
  C   C6268     1.0  0.67786  0.85445  0.98487  1.0000
  C   C6269     1.0  0.71450  0.81550  0.11686  1.0000
  S   S832      1.0  0.73447  0.82934  0.99237  1.0000
  H   H5003     1.0  0.62598  0.75409  0.22439  1.0000
  H   H5004     1.0  0.69955  0.85120  0.09136  1.0000
  Fe  Fe425     1.0  0.73380  0.87992  0.13403  1.0000
  H   H5005     1.0  0.72791  0.90106  0.19475  1.0000
  H   H5006     1.0  0.69198  0.75092  0.41892  1.0000
  H   H5007     1.0  0.73337  0.97860  0.15799  1.0000
  H   H5008     1.0  0.73724  0.94387  0.21688  1.0000
  C   C6270     1.0  0.72303  0.97777  0.11836  1.0000
  H   H5009     1.0  0.70184  0.97630  0.16399  1.0000
  H   H5010     1.0  0.48902  0.78525  0.27463  1.0000
  H   H5011     1.0  0.51851  0.74564  0.10013  1.0000
  H   H5012     1.0  0.70817  0.73315  0.99754  1.0000
  C   C6271     1.0  0.53028  0.73529  0.21875  1.0000
  H   H5013     1.0  0.61544  0.84270  0.97941  1.0000
  C   C6272     1.0  0.73317  0.76284  0.32235  1.0000
  Fe  Fe426     1.0  0.57552  0.73146  0.29247  1.0000
  C   C6273     1.0  0.67006  0.84425  0.98097  1.0000
  C   C6274     1.0  0.69821  0.73809  0.41905  1.0000
  H   H5014     1.0  0.73404  0.75292  0.30177  1.0000
  H   H5015     1.0  0.59914  0.73379  0.38471  1.0000
  P   P211      1.0  0.73250  0.77452  0.34971  1.0000
  C   C6275     1.0  0.73823  0.73408  0.44584  1.0000
  H   H5016     1.0  0.60947  0.78802  0.47320  1.0000
  C   C6276     1.0  0.52177  0.73221  0.10256  1.0000
  H   H5017     1.0  0.50812  0.88048  0.66303  1.0000
  H   H5018     1.0  0.51489  0.78607  0.74988  1.0000
  C   C6277     1.0  0.72699  0.89823  0.59827  1.0000
  S   S833      1.0  0.69406  0.74093  0.51989  1.0000
  H   H5019     1.0  0.63916  0.81408  0.49905  1.0000
  Fe  Fe427     1.0  0.65331  0.77102  0.53526  1.0000
  S   S834      1.0  0.67496  0.78001  0.51704  1.0000
  S   S835      1.0  0.63105  0.78959  0.54499  1.0000
  Fe  Fe428     1.0  0.67660  0.75937  0.50488  1.0000
  Fe  Fe429     1.0  0.69011  0.76085  0.53377  1.0000
  S   S836      1.0  0.71040  0.76462  0.54335  1.0000
  S   S837      1.0  0.65368  0.75196  0.52188  1.0000
  S   S838      1.0  0.66831  0.75319  0.55277  1.0000
  Fe  Fe430     1.0  0.56268  0.75631  0.65103  1.0000
  S   S839      1.0  0.53966  0.77483  0.65881  1.0000
  C   C6278     1.0  0.71356  0.87038  0.64284  1.0000
  Fe  Fe431     1.0  0.55980  0.76615  0.61540  1.0000
  S   S840      1.0  0.53646  0.78567  0.61998  1.0000
  S   S841      1.0  0.57245  0.75718  0.59199  1.0000
  Fe  Fe432     1.0  0.54952  0.79216  0.63588  1.0000
  S   S842      1.0  0.55100  0.81810  0.63533  1.0000
  Fe  Fe433     1.0  0.52843  0.76665  0.64261  1.0000
  C   C6279     1.0  0.57036  0.82807  0.77931  1.0000
  S   S843      1.0  0.57345  0.77423  0.62921  1.0000
  S   S844      1.0  0.55084  0.74669  0.63677  1.0000
  Fe  Fe434     1.0  0.66232  0.93701  0.76886  1.0000
  S   S845      1.0  0.68816  0.92130  0.76756  1.0000
  S   S846      1.0  0.65167  0.95925  0.78096  1.0000
  Fe  Fe435     1.0  0.65520  0.92129  0.74406  1.0000
  S   S847      1.0  0.68076  0.90534  0.74029  1.0000
  S   S848      1.0  0.63829  0.92096  0.72821  1.0000
  Fe  Fe436     1.0  0.67663  0.90070  0.76783  1.0000
  S   S849      1.0  0.68392  0.87342  0.77831  1.0000
  Fe  Fe437     1.0  0.68974  0.92733  0.74029  1.0000
  S   S850      1.0  0.71118  0.93753  0.72301  1.0000
  S   S851      1.0  0.65040  0.91563  0.77174  1.0000
  S   S852      1.0  0.66456  0.94401  0.74144  1.0000
  Fe  Fe438     1.0  0.68489  0.82266  0.86525  1.0000
  S   S853      1.0  0.66431  0.81446  0.88598  1.0000
  S   S854      1.0  0.68439  0.84990  0.85441  1.0000
  Fe  Fe439     1.0  0.70430  0.78746  0.86472  1.0000
  S   S855      1.0  0.68504  0.77634  0.88500  1.0000
  C   C6280     1.0  0.65188  0.81652  0.95698  1.0000
  Fe  Fe440     1.0  0.66649  0.79522  0.87188  1.0000
  S   S856      1.0  0.64404  0.79153  0.86568  1.0000
  Fe  Fe441     1.0  0.68480  0.79636  0.89731  1.0000
  S   S857      1.0  0.68622  0.78807  0.92436  1.0000
  S   S858      1.0  0.68572  0.80461  0.85054  1.0000
  S   S859      1.0  0.70518  0.80623  0.87777  1.0000
  Fe  Fe442     1.0  0.62616  0.75098  0.79474  1.0000
  S   S860      1.0  0.61101  0.74376  0.82014  1.0000
  S   S861      1.0  0.62550  0.77764  0.78275  1.0000
  H   H5020     1.0  0.54842  0.82008  0.82445  1.0000
  C   C6281     1.0  0.68555  0.76390  0.61661  1.0000
  H   H5021     1.0  0.65333  0.78862  0.48842  1.0000
  Fe  Fe443     1.0  0.71453  0.83383  0.58190  1.0000
  H   H5022     1.0  0.60641  0.75471  0.62541  1.0000
  S   S862      1.0  0.70020  0.83224  0.56432  1.0000
  Fe  Fe444     1.0  0.71402  0.82774  0.61845  1.0000
  S   S863      1.0  0.70079  0.81697  0.64374  1.0000
  S   S864      1.0  0.69972  0.84753  0.60159  1.0000
  Fe  Fe445     1.0  0.58545  0.84150  0.69700  1.0000
  S   S865      1.0  0.60800  0.83184  0.67903  1.0000
  S   S866      1.0  0.56120  0.83546  0.69793  1.0000
  Fe  Fe446     1.0  0.60578  0.85073  0.71627  1.0000
  S   S867      1.0  0.62976  0.84125  0.69999  1.0000
  S   S868      1.0  0.60832  0.85792  0.73871  1.0000
  Fe  Fe447     1.0  0.61660  0.85407  0.67940  1.0000
  S   S869      1.0  0.63215  0.86751  0.65724  1.0000
  Fe  Fe448     1.0  0.61900  0.82003  0.70117  1.0000
  S   S870      1.0  0.63256  0.79344  0.70583  1.0000
  S   S871      1.0  0.59296  0.86523  0.69548  1.0000
  S   S872      1.0  0.59594  0.82819  0.71933  1.0000
  Fe  Fe449     1.0  0.72076  0.86017  0.59604  1.0000
  S   S873      1.0  0.68158  0.76401  0.47681  1.0000
  C   C6282     1.0  0.68189  0.83114  0.64784  1.0000
  C   C6283     1.0  0.68055  0.84804  0.64061  1.0000
  C   C6284     1.0  0.66522  0.85924  0.64325  1.0000
  C   C6285     1.0  0.65127  0.85356  0.65339  1.0000
  C   C6286     1.0  0.65269  0.83669  0.66079  1.0000
  C   C6287     1.0  0.66798  0.82553  0.65811  1.0000
  H   H5023     1.0  0.69140  0.85256  0.63320  1.0000
  H   H5024     1.0  0.66424  0.87229  0.63761  1.0000
  H   H5025     1.0  0.64200  0.83209  0.66840  1.0000
  H   H5026     1.0  0.66890  0.81251  0.66366  1.0000
  C   C6288     1.0  0.62862  0.78157  0.76128  1.0000
  C   C6289     1.0  0.63257  0.76865  0.75302  1.0000
  C   C6290     1.0  0.63392  0.77216  0.73588  1.0000
  C   C6291     1.0  0.63143  0.78862  0.72709  1.0000
  C   C6292     1.0  0.62787  0.80145  0.73537  1.0000
  C   C6293     1.0  0.62657  0.79796  0.75239  1.0000
  H   H5027     1.0  0.63447  0.75600  0.75984  1.0000
  H   H5028     1.0  0.63661  0.76225  0.72950  1.0000
  H   H5029     1.0  0.62647  0.81417  0.72865  1.0000
  H   H5030     1.0  0.62367  0.80802  0.75863  1.0000
  C   C6294     1.0  0.64542  0.84576  0.95714  1.0000
  C   C6295     1.0  0.72632  0.85787  0.72646  1.0000
  C   C6296     1.0  0.72507  0.74736  0.87665  1.0000
  H   H5031     1.0  0.50848  0.82935  0.63879  1.0000
  H   H5032     1.0  0.71432  0.75526  0.88239  1.0000
  C   C6297     1.0  0.69366  0.79949  0.93381  1.0000
  C   C6298     1.0  0.69497  0.81590  0.92655  1.0000
  C   C6299     1.0  0.70007  0.82492  0.93484  1.0000
  C   C6300     1.0  0.70423  0.81752  0.95026  1.0000
  H   H5033     1.0  0.73706  0.80916  0.84707  1.0000
  C   C6301     1.0  0.69801  0.79203  0.94914  1.0000
  H   H5034     1.0  0.69162  0.82179  0.91477  1.0000
  C   C6302     1.0  0.62540  0.74882  0.68284  1.0000
  C   C6303     1.0  0.54892  0.75847  0.78294  1.0000
  C   C6304     1.0  0.70356  0.80091  0.95718  1.0000
  C   C6305     1.0  0.64502  0.77289  0.86027  1.0000
  C   C6306     1.0  0.65735  0.75870  0.86377  1.0000
  C   C6307     1.0  0.65737  0.74388  0.85983  1.0000
  C   C6308     1.0  0.64539  0.74330  0.85193  1.0000
  C   C6309     1.0  0.63327  0.75758  0.84815  1.0000
  C   C6310     1.0  0.63296  0.77225  0.85252  1.0000
  H   H5035     1.0  0.66663  0.75906  0.86982  1.0000
  C   C6311     1.0  0.71938  0.84198  0.70569  1.0000
  H   H5036     1.0  0.62400  0.75726  0.84208  1.0000
  H   H5037     1.0  0.62344  0.78318  0.84975  1.0000
  C   C6312     1.0  0.72680  0.92390  0.71229  1.0000
  H   H5038     1.0  0.59395  0.83511  0.76915  1.0000
  H   H5039     1.0  0.64271  0.85567  0.96359  1.0000
  H   H5040     1.0  0.60880  0.81111  0.78709  1.0000
  P   P212      1.0  0.73013  0.73404  0.93784  1.0000
  C   C6313     1.0  0.63036  0.90316  0.73125  1.0000
  C   C6314     1.0  0.63103  0.89046  0.74546  1.0000
  C   C6315     1.0  0.62415  0.87672  0.74767  1.0000
  C   C6316     1.0  0.61698  0.87530  0.73551  1.0000
  C   C6317     1.0  0.61661  0.88782  0.72116  1.0000
  C   C6318     1.0  0.62311  0.90176  0.71914  1.0000
  H   H5041     1.0  0.63655  0.89141  0.75490  1.0000
  H   H5042     1.0  0.62442  0.86716  0.75884  1.0000
  H   H5043     1.0  0.61111  0.88690  0.71171  1.0000
  H   H5044     1.0  0.62261  0.91147  0.70807  1.0000
  C   C6319     1.0  0.68452  0.86738  0.79931  1.0000
  C   C6320     1.0  0.68837  0.85046  0.80640  1.0000
  C   C6321     1.0  0.68883  0.84508  0.82314  1.0000
  C   C6322     1.0  0.68515  0.85655  0.83303  1.0000
  C   C6323     1.0  0.68181  0.87357  0.82581  1.0000
  C   C6324     1.0  0.68149  0.87900  0.80893  1.0000
  H   H5045     1.0  0.69083  0.84146  0.79897  1.0000
  H   H5046     1.0  0.69216  0.83206  0.82830  1.0000
  H   H5047     1.0  0.67908  0.88254  0.83336  1.0000
  H   H5048     1.0  0.67861  0.89212  0.80347  1.0000
  C   C6325     1.0  0.55567  0.82121  0.65275  1.0000
  C   C6326     1.0  0.56403  0.83373  0.65073  1.0000
  C   C6327     1.0  0.56665  0.83748  0.66452  1.0000
  C   C6328     1.0  0.56031  0.82918  0.68047  1.0000
  C   C6329     1.0  0.55205  0.81657  0.68251  1.0000
  C   C6330     1.0  0.55002  0.81237  0.66869  1.0000
  H   H5049     1.0  0.56830  0.84068  0.63847  1.0000
  H   H5050     1.0  0.57292  0.84728  0.66290  1.0000
  H   H5051     1.0  0.54719  0.81008  0.69481  1.0000
  H   H5052     1.0  0.54340  0.80282  0.67044  1.0000
  C   C6331     1.0  0.70659  0.78305  0.55022  1.0000
  C   C6332     1.0  0.69391  0.79654  0.54593  1.0000
  C   C6333     1.0  0.69183  0.81150  0.55061  1.0000
  C   C6334     1.0  0.70221  0.81294  0.55985  1.0000
  C   C6335     1.0  0.71448  0.79927  0.56467  1.0000
  C   C6336     1.0  0.71681  0.78441  0.55969  1.0000
  H   H5053     1.0  0.68594  0.79558  0.53869  1.0000
  H   H5054     1.0  0.68226  0.82204  0.54691  1.0000
  C   C6337     1.0  0.73657  0.83391  0.80858  1.0000
  C   C6338     1.0  0.63147  0.77849  0.49598  1.0000
  C   C6339     1.0  0.61536  0.78028  0.55893  1.0000
  C   C6340     1.0  0.60161  0.78997  0.56763  1.0000
  C   C6341     1.0  0.58871  0.78276  0.57847  1.0000
  C   C6342     1.0  0.58931  0.76598  0.58015  1.0000
  C   C6343     1.0  0.60304  0.75632  0.57142  1.0000
  C   C6344     1.0  0.61623  0.76337  0.56110  1.0000
  H   H5055     1.0  0.60091  0.80307  0.56586  1.0000
  H   H5056     1.0  0.57806  0.79030  0.58509  1.0000
  H   H5057     1.0  0.60357  0.74333  0.57277  1.0000
  H   H5058     1.0  0.62693  0.75581  0.55457  1.0000
  C   C6345     1.0  0.58396  0.73713  0.73405  1.0000
  H   H5059     1.0  0.50153  0.79147  0.84768  1.0000
  C   C6346     1.0  0.72605  0.90735  0.71461  1.0000
  H   H5060     1.0  0.52176  0.79871  0.71413  1.0000
  C   C6347     1.0  0.71573  0.73719  0.84115  1.0000
  H   H5061     1.0  0.55340  0.73463  0.73594  1.0000
  H   H5062     1.0  0.51969  0.73289  0.68666  1.0000
  C   C6348     1.0  0.52900  0.76160  0.58811  1.0000
  C   C6349     1.0  0.50065  0.82164  0.63844  1.0000
  H   H5063     1.0  0.49814  0.78208  0.55913  1.0000
  C   C6350     1.0  0.70995  0.85968  0.72557  1.0000
  H   H5064     1.0  0.53777  0.75611  0.59607  1.0000
  H   H5065     1.0  0.69589  0.75744  0.62245  1.0000
  H   H5066     1.0  0.72666  0.77402  0.56303  1.0000
  C   C6351     1.0  0.62611  0.73473  0.50315  1.0000
  C   C6352     1.0  0.51266  0.75917  0.57051  1.0000
  H   H5067     1.0  0.51500  0.76260  0.69228  1.0000
  C   C6353     1.0  0.71787  0.81205  0.79669  1.0000
  C   C6354     1.0  0.73341  0.92462  0.59602  1.0000
  H   H5068     1.0  0.64081  0.76517  0.68166  1.0000
  H   H5069     1.0  0.73522  0.73520  0.81944  1.0000
  H   H5070     1.0  0.49310  0.80481  0.61068  1.0000
  C   C6355     1.0  0.54137  0.78237  0.79523  1.0000
  S   S874      1.0  0.62083  0.73202  0.78486  1.0000
  C   C6356     1.0  0.51632  0.79563  0.70578  1.0000
  C   C6357     1.0  0.70542  0.80595  0.79440  1.0000
  H   H5071     1.0  0.73702  0.76956  0.97067  1.0000
  H   H5072     1.0  0.52708  0.76946  0.71177  1.0000
  C   C6358     1.0  0.59632  0.75182  0.48309  1.0000
  C   C6359     1.0  0.63588  0.75978  0.67461  1.0000
  C   C6360     1.0  0.64625  0.84975  0.94013  1.0000
  C   C6361     1.0  0.64979  0.83715  0.93156  1.0000
  C   C6362     1.0  0.65244  0.82058  0.94002  1.0000
  C   C6363     1.0  0.72991  0.81410  0.68728  1.0000
  H   H5073     1.0  0.70114  0.97048  0.91566  1.0000
  H   H5074     1.0  0.66294  0.73787  0.48583  1.0000
  H   H5075     1.0  0.56062  0.75283  0.83313  1.0000
  C   C6364     1.0  0.55429  0.76790  0.52804  1.0000
  C   C6365     1.0  0.73529  0.82041  0.83758  1.0000
  C   C6366     1.0  0.68733  0.75526  0.70951  1.0000
  C   C6367     1.0  0.56289  0.75247  0.78982  1.0000
  H   H5076     1.0  0.71341  0.87871  0.63086  1.0000
  C   C6368     1.0  0.70648  0.85185  0.71515  1.0000
  C   C6369     1.0  0.49207  0.80783  0.62235  1.0000
  C   C6370     1.0  0.72694  0.93036  0.77779  1.0000
  H   H5077     1.0  0.49860  0.81957  0.85199  1.0000
  C   C6371     1.0  0.70027  0.74272  0.92723  1.0000
  H   H5078     1.0  0.71551  0.75005  0.84035  1.0000
  H   H5079     1.0  0.65066  0.84018  0.91833  1.0000
  H   H5080     1.0  0.65534  0.81082  0.93332  1.0000
  H   H5081     1.0  0.62228  0.74569  0.69622  1.0000
  H   H5082     1.0  0.61021  0.73402  0.68007  1.0000
  C   C6372     1.0  0.73473  0.96456  0.80952  1.0000
  H   H5083     1.0  0.59999  0.76451  0.77315  1.0000
  H   H5084     1.0  0.71567  0.90272  0.72310  1.0000
  C   C6373     1.0  0.69591  0.82463  0.70208  1.0000
  C   C6374     1.0  0.69253  0.81842  0.71927  1.0000
  C   C6375     1.0  0.67897  0.81106  0.72698  1.0000
  C   C6376     1.0  0.66880  0.80973  0.71758  1.0000
  C   C6377     1.0  0.67203  0.81585  0.70053  1.0000
  C   C6378     1.0  0.68572  0.82303  0.69272  1.0000
  C   C6379     1.0  0.69878  0.85726  0.66937  1.0000
  C   C6380     1.0  0.69870  0.86850  0.65415  1.0000
  C   C6381     1.0  0.64024  0.79057  0.49416  1.0000
  C   C6382     1.0  0.71768  0.73358  0.97154  1.0000
  H   H5085     1.0  0.70054  0.81894  0.72671  1.0000
  H   H5086     1.0  0.67639  0.80624  0.74022  1.0000
  H   H5087     1.0  0.65855  0.80372  0.72345  1.0000
  H   H5088     1.0  0.66405  0.81469  0.69336  1.0000
  H   H5089     1.0  0.64734  0.77301  0.65120  1.0000
  H   H5090     1.0  0.68711  0.85596  0.67791  1.0000
  H   H5091     1.0  0.68707  0.87544  0.65086  1.0000
  H   H5092     1.0  0.56982  0.76356  0.50496  1.0000
  C   C6383     1.0  0.73487  0.95821  0.79621  1.0000
  C   C6384     1.0  0.51740  0.76077  0.74880  1.0000
  C   C6385     1.0  0.50023  0.80447  0.68453  1.0000
  C   C6386     1.0  0.56183  0.81648  0.79071  1.0000
  C   C6387     1.0  0.72807  0.83567  0.84201  1.0000
  H   H5093     1.0  0.52748  0.77824  0.78005  1.0000
  H   H5094     1.0  0.70053  0.77703  0.59528  1.0000
  C   C6388     1.0  0.61527  0.80759  0.50720  1.0000
  C   C6389     1.0  0.58728  0.82621  0.77807  1.0000
  C   C6390     1.0  0.60123  0.76508  0.48553  1.0000
  H   H5095     1.0  0.52890  0.85451  0.65903  1.0000
  H   H5096     1.0  0.65875  0.74440  0.60315  1.0000
  C   C6391     1.0  0.70159  0.76153  0.70642  1.0000
  C   C6392     1.0  0.69944  0.81225  0.77992  1.0000
  C   C6393     1.0  0.70620  0.82444  0.76752  1.0000
  C   C6394     1.0  0.52835  0.74638  0.74480  1.0000
  H   H5097     1.0  0.59319  0.73735  0.70793  1.0000
  C   C6395     1.0  0.67833  0.75682  0.77322  1.0000
  C   C6396     1.0  0.54531  0.74596  0.73909  1.0000
  H   H5098     1.0  0.68951  0.80775  0.77838  1.0000
  H   H5099     1.0  0.70160  0.82936  0.75628  1.0000
  P   P213      1.0  0.60359  0.76493  0.50577  1.0000
  H   H5100     1.0  0.59433  0.79010  0.80628  1.0000
  H   H5101     1.0  0.54612  0.74924  0.68542  1.0000
  C   C6397     1.0  0.67508  0.76382  0.70042  1.0000
  C   C6398     1.0  0.69222  0.78330  0.68421  1.0000
  C   C6399     1.0  0.67760  0.77769  0.68775  1.0000
  C   C6400     1.0  0.67152  0.76716  0.76004  1.0000
  H   H5102     1.0  0.59333  0.74176  0.49339  1.0000
  H   H5103     1.0  0.70036  0.79641  0.80400  1.0000
  C   C6401     1.0  0.51008  0.81359  0.84484  1.0000
  C   C6402     1.0  0.64834  0.82910  0.96569  1.0000
  H   H5104     1.0  0.69413  0.79410  0.67443  1.0000
  H   H5105     1.0  0.66798  0.78435  0.68096  1.0000
  H   H5106     1.0  0.66332  0.76024  0.70335  1.0000
  C   C6403     1.0  0.66120  0.88322  0.59931  1.0000
  C   C6404     1.0  0.67341  0.88344  0.58473  1.0000
  C   C6405     1.0  0.67520  0.87244  0.57481  1.0000
  C   C6406     1.0  0.66486  0.86118  0.57951  1.0000
  C   C6407     1.0  0.65236  0.86099  0.59403  1.0000
  C   C6408     1.0  0.65077  0.87203  0.60399  1.0000
  P   P214      1.0  0.64027  0.84514  0.60093  1.0000
  C   C6409     1.0  0.61971  0.85298  0.61230  1.0000
  C   C6410     1.0  0.63822  0.83853  0.58361  1.0000
  C   C6411     1.0  0.63700  0.84982  0.56848  1.0000
  C   C6412     1.0  0.63541  0.84456  0.55517  1.0000
  C   C6413     1.0  0.63471  0.82810  0.55696  1.0000
  C   C6414     1.0  0.63540  0.81694  0.57211  1.0000
  C   C6415     1.0  0.63708  0.82215  0.58542  1.0000
  C   C6416     1.0  0.61744  0.85536  0.62827  1.0000
  C   C6417     1.0  0.60169  0.86177  0.63696  1.0000
  C   C6418     1.0  0.58800  0.86574  0.62984  1.0000
  C   C6419     1.0  0.59004  0.86318  0.61405  1.0000
  C   C6420     1.0  0.60583  0.85688  0.60527  1.0000
  C   C6421     1.0  0.65164  0.82763  0.61353  1.0000
  C   C6422     1.0  0.66877  0.82219  0.60792  1.0000
  C   C6423     1.0  0.67790  0.80913  0.61776  1.0000
  C   C6424     1.0  0.67000  0.80128  0.63322  1.0000
  C   C6425     1.0  0.65290  0.80640  0.63879  1.0000
  C   C6426     1.0  0.64370  0.81934  0.62889  1.0000
  H   H5107     1.0  0.66013  0.89140  0.60726  1.0000
  H   H5108     1.0  0.68187  0.89170  0.58141  1.0000
  H   H5109     1.0  0.68510  0.87208  0.56385  1.0000
  H   H5110     1.0  0.66708  0.85224  0.57204  1.0000
  H   H5111     1.0  0.64185  0.87186  0.61561  1.0000
  H   H5112     1.0  0.63732  0.86266  0.56695  1.0000
  H   H5113     1.0  0.63478  0.85322  0.54343  1.0000
  H   H5114     1.0  0.63358  0.82392  0.54665  1.0000
  H   H5115     1.0  0.63464  0.80426  0.57339  1.0000
  H   H5116     1.0  0.63738  0.81347  0.59716  1.0000
  H   H5117     1.0  0.62788  0.85225  0.63405  1.0000
  H   H5118     1.0  0.60019  0.86375  0.64922  1.0000
  H   H5119     1.0  0.57579  0.87072  0.63661  1.0000
  H   H5120     1.0  0.57938  0.86613  0.60859  1.0000
  H   H5121     1.0  0.60707  0.85513  0.59303  1.0000
  H   H5122     1.0  0.67518  0.82818  0.59603  1.0000
  H   H5123     1.0  0.69119  0.80539  0.61353  1.0000
  H   H5124     1.0  0.67726  0.79159  0.64103  1.0000
  H   H5125     1.0  0.64684  0.80079  0.65103  1.0000
  H   H5126     1.0  0.63051  0.82299  0.63346  1.0000
  C   C6427     1.0  0.73699  0.74914  0.91963  1.0000
  H   H5127     1.0  0.69710  0.77931  0.95482  1.0000
  C   C6428     1.0  0.51250  0.77531  0.69350  1.0000
  S   S875      1.0  0.57914  0.73835  0.66727  1.0000
  H   H5128     1.0  0.66671  0.73284  0.86285  1.0000
  C   C6429     1.0  0.57420  0.77501  0.68174  1.0000
  C   C6430     1.0  0.58675  0.78392  0.67587  1.0000
  C   C6431     1.0  0.59550  0.78515  0.68672  1.0000
  C   C6432     1.0  0.59169  0.77747  0.70345  1.0000
  C   C6433     1.0  0.57864  0.76902  0.70954  1.0000
  C   C6434     1.0  0.57007  0.76767  0.69852  1.0000
  P   P215      1.0  0.57375  0.75889  0.73108  1.0000
  H   H5129     1.0  0.68322  0.94649  0.79145  1.0000
  C   C6435     1.0  0.57950  0.77014  0.74275  1.0000
  C   C6436     1.0  0.58900  0.76189  0.75468  1.0000
  C   C6437     1.0  0.59278  0.77084  0.76387  1.0000
  C   C6438     1.0  0.58755  0.78805  0.76096  1.0000
  C   C6439     1.0  0.57856  0.79642  0.74882  1.0000
  C   C6440     1.0  0.57480  0.78757  0.73953  1.0000
  C   C6441     1.0  0.50179  0.81795  0.62333  1.0000
  C   C6442     1.0  0.55158  0.75990  0.73756  1.0000
  H   H5130     1.0  0.72445  0.81732  0.66335  1.0000
  S   S876      1.0  0.73395  0.84135  0.61451  1.0000
  C   C6443     1.0  0.72869  0.91315  0.78244  1.0000
  C   C6444     1.0  0.54038  0.77444  0.74130  1.0000
  H   H5131     1.0  0.56769  0.77382  0.67323  1.0000
  H   H5132     1.0  0.58958  0.78989  0.66293  1.0000
  H   H5133     1.0  0.60524  0.79207  0.68223  1.0000
  H   H5134     1.0  0.59889  0.77834  0.71154  1.0000
  H   H5135     1.0  0.56036  0.76077  0.70282  1.0000
  H   H5136     1.0  0.68830  0.96279  0.74353  1.0000
  H   H5137     1.0  0.59326  0.79812  0.51412  1.0000
  H   H5138     1.0  0.59097  0.79491  0.76775  1.0000
  H   H5139     1.0  0.57481  0.80982  0.74635  1.0000
  H   H5140     1.0  0.56852  0.79446  0.72961  1.0000
  C   C6445     1.0  0.61439  0.73827  0.60874  1.0000
  C   C6446     1.0  0.72961  0.76606  0.91843  1.0000
  H   H5141     1.0  0.54456  0.78554  0.73995  1.0000
  C   C6447     1.0  0.69400  0.94841  0.68842  1.0000
  C   C6448     1.0  0.67850  0.95357  0.69828  1.0000
  C   C6449     1.0  0.66529  0.94663  0.69928  1.0000
  C   C6450     1.0  0.66760  0.93443  0.69053  1.0000
  C   C6451     1.0  0.68319  0.92905  0.68070  1.0000
  C   C6452     1.0  0.69636  0.93626  0.67962  1.0000
  P   P216      1.0  0.68616  0.91302  0.66971  1.0000
  C   C6453     1.0  0.70804  0.90354  0.66541  1.0000
  C   C6454     1.0  0.67440  0.89787  0.68275  1.0000
  C   C6455     1.0  0.67403  0.89301  0.69976  1.0000
  C   C6456     1.0  0.66487  0.88141  0.70993  1.0000
  C   C6457     1.0  0.65609  0.87446  0.70321  1.0000
  C   C6458     1.0  0.65613  0.87945  0.68637  1.0000
  C   C6459     1.0  0.66512  0.89122  0.67619  1.0000
  C   C6460     1.0  0.71873  0.91103  0.65158  1.0000
  H   H5142     1.0  0.67747  0.74940  0.91891  1.0000
  C   C6461     1.0  0.71478  0.88948  0.67638  1.0000
  C   C6462     1.0  0.67899  0.92175  0.65066  1.0000
  C   C6463     1.0  0.66535  0.93522  0.64970  1.0000
  C   C6464     1.0  0.65949  0.94152  0.63510  1.0000
  C   C6465     1.0  0.66714  0.93438  0.62141  1.0000
  C   C6466     1.0  0.68064  0.92089  0.62231  1.0000
  C   C6467     1.0  0.68650  0.91458  0.63687  1.0000
  C   C6468     1.0  0.59566  0.81271  0.78818  1.0000
  H   H5143     1.0  0.65333  0.95030  0.70723  1.0000
  H   H5144     1.0  0.65726  0.92896  0.69179  1.0000
  H   H5145     1.0  0.70860  0.93236  0.67234  1.0000
  H   H5146     1.0  0.68051  0.89849  0.70524  1.0000
  H   H5147     1.0  0.66402  0.87837  0.72314  1.0000
  H   H5148     1.0  0.64867  0.86575  0.71115  1.0000
  H   H5149     1.0  0.64888  0.87446  0.68125  1.0000
  H   H5150     1.0  0.66462  0.89514  0.66327  1.0000
  H   H5151     1.0  0.71402  0.92227  0.64325  1.0000
  C   C6469     1.0  0.57840  0.78136  0.83825  1.0000
  H   H5152     1.0  0.70701  0.88372  0.68738  1.0000
  H   H5153     1.0  0.65914  0.94081  0.66020  1.0000
  H   H5154     1.0  0.73683  0.80602  0.71098  1.0000
  H   H5155     1.0  0.66262  0.93926  0.61011  1.0000
  H   H5156     1.0  0.68662  0.91528  0.61173  1.0000
  H   H5157     1.0  0.69692  0.90414  0.63727  1.0000
  H   H5158     1.0  0.65444  0.80357  0.96310  1.0000
  C   C6470     1.0  0.61616  0.74511  0.51380  1.0000
  C   C6471     1.0  0.57578  0.74830  0.85046  1.0000
  H   H5159     1.0  0.54334  0.76647  0.52523  1.0000
  H   H5160     1.0  0.60908  0.81876  0.51176  1.0000
  S   S877      1.0  0.50336  0.75950  0.65322  1.0000
  C   C6472     1.0  0.61675  0.74019  0.53059  1.0000
  H   H5161     1.0  0.64896  0.95192  0.63444  1.0000
  C   C6473     1.0  0.58373  0.76793  0.52020  1.0000
  H   H5162     1.0  0.72006  0.77022  0.92850  1.0000
  C   C6474     1.0  0.53823  0.77350  0.78552  1.0000
  H   H5163     1.0  0.71515  0.78012  0.69125  1.0000
  C   C6475     1.0  0.52332  0.82159  0.83827  1.0000
  H   H5164     1.0  0.60983  0.74808  0.53903  1.0000
  C   C6476     1.0  0.72909  0.87966  0.76034  1.0000
  H   H5165     1.0  0.57129  0.74089  0.78773  1.0000
  H   H5166     1.0  0.56396  0.83845  0.77129  1.0000
  H   H5167     1.0  0.59309  0.77365  0.53840  1.0000
  C   C6477     1.0  0.57018  0.80294  0.80101  1.0000
  C   C6478     1.0  0.49488  0.76552  0.62321  1.0000
  H   H5168     1.0  0.59159  0.74707  0.86643  1.0000
  H   H5169     1.0  0.72899  0.86422  0.73431  1.0000
  C   C6479     1.0  0.61694  0.74846  0.61747  1.0000
  H   H5170     1.0  0.69915  0.95962  0.80226  1.0000
  C   C6480     1.0  0.66966  0.76104  0.62424  1.0000
  H   H5171     1.0  0.61642  0.74174  0.64997  1.0000
  C   C6481     1.0  0.51929  0.77918  0.70449  1.0000
  H   H5172     1.0  0.49544  0.73659  0.59357  1.0000
  P   P217      1.0  0.63574  0.76534  0.62585  1.0000
  C   C6482     1.0  0.63267  0.75781  0.64809  1.0000
  C   C6483     1.0  0.65622  0.76946  0.61670  1.0000
  C   C6484     1.0  0.65914  0.78006  0.60108  1.0000
  C   C6485     1.0  0.67501  0.78290  0.59350  1.0000
  C   C6486     1.0  0.63952  0.76422  0.65734  1.0000
  H   H5173     1.0  0.72206  0.80702  0.80812  1.0000
  S   S878      1.0  0.65013  0.73566  0.80061  1.0000
  H   H5174     1.0  0.70354  0.75436  0.92037  1.0000
  C   C6487     1.0  0.62071  0.78465  0.62179  1.0000
  C   C6488     1.0  0.61546  0.79535  0.63282  1.0000
  C   C6489     1.0  0.60338  0.80994  0.63006  1.0000
  C   C6490     1.0  0.59646  0.81401  0.61626  1.0000
  C   C6491     1.0  0.60183  0.80366  0.60504  1.0000
  C   C6492     1.0  0.61395  0.78908  0.60769  1.0000
  H   H5175     1.0  0.64928  0.78574  0.59451  1.0000
  H   H5176     1.0  0.67715  0.79114  0.58143  1.0000
  H   H5177     1.0  0.69664  0.73543  0.86338  1.0000
  H   H5178     1.0  0.73018  0.95826  0.82204  1.0000
  H   H5179     1.0  0.51043  0.82276  0.61243  1.0000
  H   H5180     1.0  0.62045  0.79245  0.64370  1.0000
  H   H5181     1.0  0.59916  0.81800  0.63877  1.0000
  H   H5182     1.0  0.58676  0.82508  0.61438  1.0000
  H   H5183     1.0  0.59638  0.80684  0.59438  1.0000
  H   H5184     1.0  0.61786  0.78127  0.59879  1.0000
  C   C6493     1.0  0.64802  0.83536  0.75399  1.0000
  C   C6494     1.0  0.66048  0.84437  0.74798  1.0000
  C   C6495     1.0  0.66732  0.84818  0.75900  1.0000
  C   C6496     1.0  0.66173  0.84295  0.77604  1.0000
  C   C6497     1.0  0.64874  0.83451  0.78217  1.0000
  C   C6498     1.0  0.64225  0.83033  0.77102  1.0000
  P   P218      1.0  0.64111  0.82797  0.80413  1.0000
  C   C6499     1.0  0.65080  0.80633  0.80981  1.0000
  C   C6500     1.0  0.64390  0.84064  0.81624  1.0000
  C   C6501     1.0  0.64476  0.83402  0.83288  1.0000
  C   C6502     1.0  0.64587  0.84404  0.84260  1.0000
  C   C6503     1.0  0.64552  0.86088  0.83598  1.0000
  C   C6504     1.0  0.64405  0.86771  0.81964  1.0000
  C   C6505     1.0  0.64311  0.85769  0.80982  1.0000
  C   C6506     1.0  0.64475  0.79432  0.80650  1.0000
  C   C6507     1.0  0.65199  0.77750  0.81096  1.0000
  C   C6508     1.0  0.66530  0.77252  0.81879  1.0000
  C   C6509     1.0  0.67155  0.78440  0.82193  1.0000
  C   C6510     1.0  0.66455  0.80129  0.81717  1.0000
  C   C6511     1.0  0.61891  0.83063  0.80887  1.0000
  C   C6512     1.0  0.61105  0.82103  0.82336  1.0000
  C   C6513     1.0  0.59374  0.82402  0.82794  1.0000
  C   C6514     1.0  0.58418  0.83663  0.81809  1.0000
  C   C6515     1.0  0.59194  0.84639  0.80377  1.0000
  C   C6516     1.0  0.60924  0.84350  0.79922  1.0000
  H   H5185     1.0  0.64244  0.83269  0.74546  1.0000
  H   H5186     1.0  0.66465  0.84853  0.73480  1.0000
  H   H5187     1.0  0.67676  0.85546  0.75447  1.0000
  H   H5188     1.0  0.66739  0.84578  0.78436  1.0000
  H   H5189     1.0  0.63251  0.82347  0.77545  1.0000
  H   H5190     1.0  0.64441  0.82116  0.83849  1.0000
  H   H5191     1.0  0.64707  0.83874  0.85527  1.0000
  H   H5192     1.0  0.64669  0.86855  0.84347  1.0000
  H   H5193     1.0  0.64390  0.88076  0.81448  1.0000
  H   H5194     1.0  0.64166  0.86335  0.79729  1.0000
  H   H5195     1.0  0.63428  0.79790  0.80068  1.0000
  H   H5196     1.0  0.64691  0.76831  0.80880  1.0000
  H   H5197     1.0  0.67043  0.75942  0.82287  1.0000
  H   H5198     1.0  0.68153  0.78051  0.82848  1.0000
  H   H5199     1.0  0.66969  0.81032  0.81954  1.0000
  H   H5200     1.0  0.61831  0.81156  0.83137  1.0000
  H   H5201     1.0  0.58780  0.81680  0.83934  1.0000
  H   H5202     1.0  0.57078  0.83902  0.82167  1.0000
  H   H5203     1.0  0.58458  0.85633  0.79622  1.0000
  H   H5204     1.0  0.61501  0.85152  0.78835  1.0000
  C   C6517     1.0  0.71805  0.96946  0.75844  1.0000
  H   H5205     1.0  0.51337  0.73593  0.61713  1.0000
  H   H5206     1.0  0.50775  0.79957  0.57147  1.0000
  C   C6518     1.0  0.66207  0.74478  0.47345  1.0000
  C   C6519     1.0  0.73438  0.75376  0.95660  1.0000
  H   H5207     1.0  0.63694  0.97239  0.72709  1.0000
  H   H5208     1.0  0.62635  0.73838  0.49010  1.0000
  C   C6520     1.0  0.72539  0.85008  0.82981  1.0000
  C   C6521     1.0  0.50682  0.77638  0.56716  1.0000
  C   C6522     1.0  0.56791  0.75819  0.83777  1.0000
  C   C6523     1.0  0.69439  0.96908  0.74855  1.0000
  C   C6524     1.0  0.71022  0.96163  0.75150  1.0000
  C   C6525     1.0  0.53818  0.81384  0.82914  1.0000
  H   H5209     1.0  0.63792  0.76737  0.49141  1.0000
  C   C6526     1.0  0.73187  0.88292  0.67338  1.0000
  H   H5210     1.0  0.71501  0.93824  0.78171  1.0000
  H   H5211     1.0  0.49882  0.78477  0.67433  1.0000
  H   H5212     1.0  0.71824  0.75939  0.47506  1.0000
  C   C6527     1.0  0.50322  0.78793  0.68338  1.0000
  C   C6528     1.0  0.51575  0.85461  0.66229  1.0000
  C   C6529     1.0  0.49216  0.75743  0.63984  1.0000
  S   S879      1.0  0.71408  0.88775  0.59430  1.0000
  S   S880      1.0  0.71010  0.82947  0.96049  1.0000
  C   C6530     1.0  0.68537  0.73991  0.92629  1.0000
  P   P219      1.0  0.71458  0.83221  0.69216  1.0000
  C   C6531     1.0  0.68784  0.96680  0.79848  1.0000
  H   H5213     1.0  0.66785  0.76949  0.73590  1.0000
  C   C6532     1.0  0.52340  0.77483  0.74695  1.0000
  H   H5214     1.0  0.67454  0.84101  0.96900  1.0000
  H   H5215     1.0  0.59372  0.74866  0.75693  1.0000
  C   C6533     1.0  0.73172  0.75941  0.97100  1.0000
  H   H5216     1.0  0.64431  0.86259  0.93352  1.0000
  H   H5217     1.0  0.72247  0.80037  0.57176  1.0000
  H   H5218     1.0  0.71627  0.94968  0.74849  1.0000
  C   C6534     1.0  0.72348  0.91552  0.59357  1.0000
  C   C6535     1.0  0.55137  0.73723  0.69207  1.0000
  H   H5219     1.0  0.70065  0.83774  0.92934  1.0000
  H   H5220     1.0  0.70437  0.95345  0.68802  1.0000
  C   C6536     1.0  0.58515  0.75485  0.85688  1.0000
  C   C6537     1.0  0.62221  0.74673  0.65652  1.0000
  C   C6538     1.0  0.73468  0.75359  0.86143  1.0000
  C   C6539     1.0  0.52341  0.77884  0.58445  1.0000
  H   H5221     1.0  0.71320  0.92196  0.58766  1.0000
  H   H5222     1.0  0.57733  0.75668  0.80424  1.0000
  H   H5223     1.0  0.60196  0.73681  0.60997  1.0000
  H   H5224     1.0  0.50438  0.82086  0.69733  1.0000
  H   H5225     1.0  0.50866  0.75181  0.56465  1.0000
  H   H5226     1.0  0.72407  0.83631  0.85493  1.0000
  H   H5227     1.0  0.54875  0.81804  0.79140  1.0000
  C   C6540     1.0  0.58632  0.77143  0.85089  1.0000
  C   C6541     1.0  0.73179  0.80971  0.67225  1.0000
  C   C6542     1.0  0.70411  0.77537  0.69368  1.0000
  C   C6543     1.0  0.72862  0.86146  0.64692  1.0000
  H   H5228     1.0  0.72377  0.83992  0.75995  1.0000
  C   C6544     1.0  0.72456  0.82452  0.78442  1.0000
  C   C6545     1.0  0.68821  0.77489  0.60128  1.0000
  H   H5229     1.0  0.50427  0.76102  0.75325  1.0000
  H   H5230     1.0  0.73074  0.93799  0.59195  1.0000
  H   H5231     1.0  0.57920  0.79423  0.83398  1.0000
  C   C6546     1.0  0.58244  0.77179  0.53537  1.0000
  H   H5232     1.0  0.73713  0.87241  0.68206  1.0000
  C   C6547     1.0  0.73383  0.77768  0.90393  1.0000
  H   H5233     1.0  0.71813  0.90790  0.78974  1.0000
  C   C6548     1.0  0.71876  0.83049  0.76971  1.0000
  C   C6549     1.0  0.58728  0.80091  0.79933  1.0000
  S   S881      1.0  0.72720  0.81274  0.59927  1.0000
  H   H5234     1.0  0.73047  0.94697  0.79879  1.0000
  Fe  Fe450     1.0  0.67092  0.73483  0.53773  1.0000
  C   C6550     1.0  0.61460  0.78070  0.50377  1.0000
  C   C6551     1.0  0.67883  0.95933  0.79235  1.0000
  C   C6552     1.0  0.51055  0.84003  0.66431  1.0000
  C   C6553     1.0  0.50662  0.80821  0.69604  1.0000
  C   C6554     1.0  0.68685  0.74058  0.77236  1.0000
  H   H5235     1.0  0.70000  0.86743  0.73275  1.0000
  C   C6555     1.0  0.66389  0.96837  0.78788  1.0000
  C   C6556     1.0  0.64630  0.74275  0.60503  1.0000
  H   H5236     1.0  0.53298  0.79402  0.79706  1.0000
  C   C6557     1.0  0.72879  0.85019  0.66207  1.0000
  C   C6558     1.0  0.71386  0.84765  0.67320  1.0000
  C   C6559     1.0  0.52351  0.75161  0.58131  1.0000
  H   H5237     1.0  0.71670  0.86305  0.78027  1.0000
  P   P220      1.0  0.68398  0.73779  0.72651  1.0000
  C   C6560     1.0  0.49361  0.83985  0.66873  1.0000
  H   H5238     1.0  0.67689  0.96262  0.70547  1.0000
  H   H5239     1.0  0.71070  0.75577  0.71396  1.0000
  C   C6561     1.0  0.48965  0.81529  0.65271  1.0000
  C   C6562     1.0  0.72837  0.86473  0.77198  1.0000
  H   H5240     1.0  0.54160  0.77275  0.55201  1.0000
  H   H5241     1.0  0.59351  0.77650  0.85597  1.0000
  H   H5242     1.0  0.50433  0.77271  0.61829  1.0000
  C   C6563     1.0  0.63221  0.80498  0.50001  1.0000
  S   S882      1.0  0.72834  0.77408  0.85083  1.0000
  H   H5243     1.0  0.71798  0.88944  0.75978  1.0000
  C   C6564     1.0  0.72707  0.74106  0.95662  1.0000
  H   H5244     1.0  0.52959  0.73618  0.71173  1.0000
  H   H5245     1.0  0.66798  0.75202  0.63579  1.0000
  H   H5246     1.0  0.52787  0.78648  0.58955  1.0000
  H   H5247     1.0  0.51975  0.82885  0.66243  1.0000
  C   C6565     1.0  0.55326  0.77146  0.54315  1.0000
  H   H5248     1.0  0.69374  0.85365  0.71432  1.0000
  C   C6566     1.0  0.56944  0.76618  0.51658  1.0000
  C   C6567     1.0  0.63288  0.75089  0.61564  1.0000
  H   H5249     1.0  0.72753  0.79061  0.90300  1.0000
  H   H5250     1.0  0.56643  0.77630  0.55850  1.0000
  C   C6568     1.0  0.55520  0.77621  0.80252  1.0000
  P   P221      1.0  0.55908  0.78773  0.81511  1.0000
  C   C6569     1.0  0.56961  0.77468  0.83118  1.0000
  C   C6570     1.0  0.56620  0.76141  0.79936  1.0000
  C   C6571     1.0  0.51172  0.79777  0.84237  1.0000
  C   C6572     1.0  0.61864  0.74226  0.67379  1.0000
  C   C6573     1.0  0.67337  0.76131  0.74592  1.0000
  C   C6574     1.0  0.64370  0.73262  0.59624  1.0000
  H   H5251     1.0  0.68852  0.82697  0.67939  1.0000
  H   H5252     1.0  0.67658  0.76124  0.78430  1.0000
  H   H5253     1.0  0.70719  0.79497  0.96878  1.0000
  H   H5254     1.0  0.54643  0.75148  0.77557  1.0000
  C   C6575     1.0  0.51219  0.78622  0.57414  1.0000
  C   C6576     1.0  0.73318  0.82305  0.52924  1.0000
  C   C6577     1.0  0.52656  0.79000  0.83324  1.0000
  H   H5255     1.0  0.52212  0.83375  0.84038  1.0000
  C   C6578     1.0  0.53979  0.79810  0.82633  1.0000
  C   C6579     1.0  0.68188  0.74498  0.74494  1.0000
  H   H5256     1.0  0.52776  0.77761  0.83169  1.0000
  C   C6580     1.0  0.60641  0.79564  0.50882  1.0000
  C   C6581     1.0  0.56729  0.77347  0.54678  1.0000
  H   H5257     1.0  0.66438  0.77955  0.76097  1.0000
  H   H5258     1.0  0.52375  0.73545  0.74611  1.0000
  H   H5259     1.0  0.72672  0.86054  0.80415  1.0000
  C   C6582     1.0  0.73577  0.90440  0.64865  1.0000
  C   C6583     1.0  0.73711  0.80809  0.52421  1.0000
  H   H5260     1.0  0.65422  0.73232  0.75239  1.0000
  C   C6584     1.0  0.72954  0.84924  0.81317  1.0000
  C   C6585     1.0  0.50405  0.86920  0.66455  1.0000
  H   H5261     1.0  0.69169  0.73240  0.78280  1.0000
  H   H5262     1.0  0.71929  0.86180  0.83337  1.0000
  H   H5263     1.0  0.57489  0.73543  0.85508  1.0000
  H   H5264     1.0  0.72245  0.83250  0.52631  1.0000
  C   C6586     1.0  0.72019  0.97929  0.92023  1.0000
  H   H5265     1.0  0.72940  0.80595  0.51734  1.0000
  C   C6587     1.0  0.73585  0.84070  0.70621  1.0000
  C   C6588     1.0  0.70979  0.97863  0.91067  1.0000
  C   C6589     1.0  0.68857  0.73463  0.75833  1.0000
  H   H5266     1.0  0.56581  0.73204  0.58142  1.0000
  H   H5267     1.0  0.71962  0.97164  0.93261  1.0000
  H   H5268     1.0  0.49155  0.73503  0.68316  1.0000
  H   H5269     1.0  0.63380  0.97891  0.75411  1.0000
  S   S883      1.0  0.73445  0.84831  0.57460  1.0000
  H   H5270     1.0  0.57474  0.73187  0.76061  1.0000
  H   H5271     1.0  0.73815  0.88416  0.70724  1.0000
  C   C6590     1.0  0.73724  0.73163  0.52432  1.0000
  P   P222      1.0  0.73832  0.95955  0.76268  1.0000
  C   C6591     1.0  0.66564  0.73132  0.72687  1.0000
  H   H5272     1.0  0.87965  0.15493  0.11211  1.0000
  H   H5273     1.0  0.77015  0.98897  0.16398  1.0000
  H   H5274     1.0  0.77462  0.18485  0.97801  1.0000
  S   S884      1.0  0.93211  0.19956  0.11432  1.0000
  C   C6592     1.0  0.80478  0.14902  0.25723  1.0000
  C   C6593     1.0  0.90532  0.11837  0.16761  1.0000
  C   C6594     1.0  0.77658  0.08998  0.99950  1.0000
  H   H5275     1.0  0.79173  0.02497  0.09029  1.0000
  H   H5276     1.0  0.76806  0.04910  0.25440  1.0000
  Fe  Fe451     1.0  0.82402  0.20963  0.29226  1.0000
  H   H5277     1.0  0.81745  0.02865  0.15860  1.0000
  H   H5278     1.0  0.75848  0.00722  0.22615  1.0000
  Fe  Fe452     1.0  0.82904  0.17615  0.31611  1.0000
  S   S885      1.0  0.84690  0.18254  0.32649  1.0000
  S   S886      1.0  0.82292  0.15108  0.32331  1.0000
  Fe  Fe453     1.0  0.82918  0.20731  0.32606  1.0000
  H   H5279     1.0  0.75637  0.16944  0.25780  1.0000
  Fe  Fe454     1.0  0.85749  0.19351  0.30015  1.0000
  S   S887      1.0  0.88478  0.18686  0.28947  1.0000
  S   S888      1.0  0.81046  0.19997  0.31771  1.0000
  S   S889      1.0  0.84092  0.18510  0.28987  1.0000
  C   C6595     1.0  0.91497  0.14244  0.13974  1.0000
  S   S890      1.0  0.96309  0.11494  0.24285  1.0000
  C   C6596     1.0  0.83307  0.14762  0.15441  1.0000
  H   H5280     1.0  0.77141  0.07131  0.19765  1.0000
  H   H5281     1.0  0.90169  0.10926  0.17863  1.0000
  H   H5282     1.0  0.78405  0.16009  0.24595  1.0000
  C   C6597     1.0  0.89826  0.14429  0.14806  1.0000
  H   H5283     1.0  0.80390  0.19299  0.02533  1.0000
  H   H5284     1.0  0.88424  0.02119  0.18220  1.0000
  H   H5285     1.0  0.88086  0.13363  0.16911  1.0000
  C   C6598     1.0  0.74912  0.98672  0.20302  1.0000
  H   H5286     1.0  0.78332  0.14395  0.36964  1.0000
  Fe  Fe455     1.0  0.81423  0.06186  0.22636  1.0000
  S   S891      1.0  0.82634  0.07126  0.20013  1.0000
  S   S892      1.0  0.80218  0.08269  0.23963  1.0000
  S   S893      1.0  0.83713  0.03309  0.19579  1.0000
  Fe  Fe456     1.0  0.84746  0.04977  0.20445  1.0000
  S   S894      1.0  0.87372  0.05380  0.19410  1.0000
  Fe  Fe457     1.0  0.81491  0.05401  0.19393  1.0000
  S   S895      1.0  0.80334  0.06312  0.17167  1.0000
  S   S896      1.0  0.80096  0.04630  0.21990  1.0000
  Fe  Fe458     1.0  0.94065  0.13079  0.19095  1.0000
  S   S897      1.0  0.94478  0.10648  0.20934  1.0000
  S   S898      1.0  0.95499  0.13365  0.16470  1.0000
  Fe  Fe459     1.0  0.91546  0.14865  0.21571  1.0000
  S   S899      1.0  0.91787  0.12623  0.23620  1.0000
  S   S900      1.0  0.89660  0.17226  0.21881  1.0000
  Fe  Fe460     1.0  0.94529  0.12253  0.22570  1.0000
  Fe  Fe461     1.0  0.91699  0.11230  0.21808  1.0000
  S   S901      1.0  0.89782  0.09640  0.22872  1.0000
  S   S902      1.0  0.94288  0.14643  0.20670  1.0000
  S   S903      1.0  0.91293  0.13517  0.19813  1.0000
  C   C6599     1.0  0.76765  0.08274  0.20202  1.0000
  C   C6600     1.0  0.86051  0.98576  0.20302  1.0000
  S   S904      1.0  0.73936  0.13760  0.03327  1.0000
  C   C6601     1.0  0.75152  0.20975  0.29871  1.0000
  C   C6602     1.0  0.88083  0.06512  0.20396  1.0000
  C   C6603     1.0  0.87146  0.06946  0.21878  1.0000
  C   C6604     1.0  0.87712  0.07878  0.22623  1.0000
  C   C6605     1.0  0.89187  0.08432  0.21876  1.0000
  C   C6606     1.0  0.90132  0.08000  0.20393  1.0000
  C   C6607     1.0  0.89588  0.07028  0.19664  1.0000
  H   H5287     1.0  0.85991  0.06553  0.22458  1.0000
  H   H5288     1.0  0.87006  0.08178  0.23788  1.0000
  H   H5289     1.0  0.91293  0.08386  0.19828  1.0000
  H   H5290     1.0  0.90327  0.06687  0.18523  1.0000
  C   C6608     1.0  0.76821  0.03347  0.16829  1.0000
  C   C6609     1.0  0.77501  0.02929  0.18225  1.0000
  C   C6610     1.0  0.78561  0.03847  0.18352  1.0000
  C   C6611     1.0  0.78958  0.05180  0.17073  1.0000
  C   C6612     1.0  0.78287  0.05591  0.15670  1.0000
  C   C6613     1.0  0.77226  0.04670  0.15547  1.0000
  H   H5291     1.0  0.77225  0.01880  0.19201  1.0000
  H   H5292     1.0  0.79085  0.03511  0.19430  1.0000
  H   H5293     1.0  0.78601  0.06613  0.14673  1.0000
  H   H5294     1.0  0.76724  0.04971  0.14464  1.0000
  H   H5295     1.0  0.77913  0.22765  0.15634  1.0000
  C   C6614     1.0  0.80868  0.99760  0.21154  1.0000
  H   H5296     1.0  0.77136  0.07735  0.23976  1.0000
  S   S905      1.0  0.78474  0.19730  0.05779  1.0000
  C   C6615     1.0  0.78266  0.07344  0.29539  1.0000
  C   C6616     1.0  0.78638  0.08867  0.28647  1.0000
  C   C6617     1.0  0.79295  0.09114  0.26946  1.0000
  C   C6618     1.0  0.79642  0.07821  0.26131  1.0000
  C   C6619     1.0  0.79419  0.06245  0.27045  1.0000
  C   C6620     1.0  0.78723  0.06010  0.28753  1.0000
  H   H5297     1.0  0.78378  0.09875  0.29264  1.0000
  H   H5298     1.0  0.79500  0.10323  0.26265  1.0000
  H   H5299     1.0  0.79703  0.05234  0.26426  1.0000
  H   H5300     1.0  0.78478  0.04820  0.29449  1.0000
  C   C6621     1.0  0.88809  0.18262  0.26991  1.0000
  C   C6622     1.0  0.87660  0.19065  0.25996  1.0000
  C   C6623     1.0  0.87930  0.18739  0.24431  1.0000
  C   C6624     1.0  0.89341  0.17597  0.23856  1.0000
  C   C6625     1.0  0.90477  0.16770  0.24860  1.0000
  C   C6626     1.0  0.90223  0.17119  0.26418  1.0000
  H   H5301     1.0  0.86577  0.19965  0.26421  1.0000
  H   H5302     1.0  0.87025  0.19340  0.23684  1.0000
  H   H5303     1.0  0.91566  0.15879  0.24427  1.0000
  H   H5304     1.0  0.91113  0.16491  0.27185  1.0000
  C   C6627     1.0  0.80698  0.15188  0.31398  1.0000
  C   C6628     1.0  0.80258  0.13726  0.31449  1.0000
  C   C6629     1.0  0.79027  0.13780  0.30648  1.0000
  H   H5305     1.0  0.80904  0.01050  0.20629  1.0000
  C   C6630     1.0  0.78608  0.16764  0.29833  1.0000
  C   C6631     1.0  0.79882  0.16704  0.30574  1.0000
  H   H5306     1.0  0.80875  0.12557  0.32100  1.0000
  H   H5307     1.0  0.78751  0.12640  0.30621  1.0000
  C   C6632     1.0  0.89813  0.18412  0.11462  1.0000
  H   H5308     1.0  0.80232  0.17834  0.30493  1.0000
  H   H5309     1.0  0.90129  0.18906  0.12329  1.0000
  H   H5310     1.0  0.93925  0.21296  0.25677  1.0000
  H   H5311     1.0  0.84662  0.12775  0.14203  1.0000
  C   C6633     1.0  0.93820  0.18177  0.12899  1.0000
  C   C6634     1.0  0.93068  0.17992  0.14580  1.0000
  C   C6635     1.0  0.93578  0.16516  0.15703  1.0000
  C   C6636     1.0  0.94855  0.15249  0.15137  1.0000
  C   C6637     1.0  0.95618  0.15457  0.13460  1.0000
  C   C6638     1.0  0.95090  0.16907  0.12343  1.0000
  H   H5312     1.0  0.92083  0.18975  0.15003  1.0000
  H   H5313     1.0  0.92976  0.16346  0.16997  1.0000
  H   H5314     1.0  0.96602  0.14479  0.13020  1.0000
  H   H5315     1.0  0.95674  0.17049  0.11043  1.0000
  C   C6639     1.0  0.78284  0.18658  0.04393  1.0000
  C   C6640     1.0  0.79394  0.18653  0.02865  1.0000
  C   C6641     1.0  0.79231  0.17789  0.01778  1.0000
  C   C6642     1.0  0.77937  0.16950  0.02199  1.0000
  S   S906      1.0  0.76406  0.05479  0.08570  1.0000
  C   C6643     1.0  0.77024  0.17775  0.04834  1.0000
  H   H5316     1.0  0.77335  0.02477  0.07289  1.0000
  H   H5317     1.0  0.80101  0.17784  0.00600  1.0000
  C   C6644     1.0  0.77624  0.01898  0.29206  1.0000
  H   H5318     1.0  0.87576  0.01361  0.21260  1.0000
  H   H5319     1.0  0.74302  0.98736  0.10053  1.0000
  C   C6645     1.0  0.78495  0.21213  0.23365  1.0000
  S   S907      1.0  0.77076  0.07182  0.31575  1.0000
  H   H5320     1.0  0.87375  0.21271  0.08729  1.0000
  H   H5321     1.0  0.80479  0.13657  0.25674  1.0000
  H   H5322     1.0  0.86638  0.19794  0.13970  1.0000
  H   H5323     1.0  0.80408  0.19091  0.13735  1.0000
  C   C6646     1.0  0.87232  0.20596  0.15838  1.0000
  Fe  Fe462     1.0  0.91941  0.22395  0.12130  1.0000
  H   H5324     1.0  0.79871  0.08820  0.00738  1.0000
  C   C6647     1.0  0.77288  0.18626  0.36080  1.0000
  S   S908      1.0  0.75276  0.01722  0.12316  1.0000
  S   S909      1.0  0.83619  0.04137  0.23129  1.0000
  C   C6648     1.0  0.84728  0.13854  0.14575  1.0000
  H   H5325     1.0  0.78144  0.16885  0.19902  1.0000
  H   H5326     1.0  0.87347  0.13552  0.13604  1.0000
  C   C6649     1.0  0.88962  0.22460  0.99404  1.0000
  C   C6650     1.0  0.83921  0.17709  0.11052  1.0000
  C   C6651     1.0  0.84648  0.19075  0.10636  1.0000
  H   H5327     1.0  0.76161  0.21268  0.21826  1.0000
  C   C6652     1.0  0.76011  0.05951  0.25944  1.0000
  C   C6653     1.0  0.83022  0.22027  0.97862  1.0000
  C   C6654     1.0  0.79277  0.16247  0.25137  1.0000
  H   H5328     1.0  0.89946  0.16177  0.16847  1.0000
  C   C6655     1.0  0.92668  0.12846  0.14519  1.0000
  C   C6656     1.0  0.87400  0.00271  0.17826  1.0000
  H   H5329     1.0  0.89784  0.18231  0.18394  1.0000
  C   C6657     1.0  0.77091  0.16980  0.36611  1.0000
  C   C6658     1.0  0.89355  0.13223  0.16214  1.0000
  C   C6659     1.0  0.92190  0.11651  0.15917  1.0000
  H   H5330     1.0  0.79255  0.08646  0.19540  1.0000
  C   C6660     1.0  0.83859  0.20449  0.11340  1.0000
  H   H5331     1.0  0.76332  0.05552  0.22581  1.0000
  C   C6661     1.0  0.87311  0.00679  0.20515  1.0000
  H   H5332     1.0  0.84525  0.16664  0.10474  1.0000
  H   H5333     1.0  0.85794  0.19102  0.09713  1.0000
  H   H5334     1.0  0.93115  0.10602  0.16368  1.0000
  S   S910      1.0  0.82298  0.99989  0.23534  1.0000
  H   H5335     1.0  0.77968  0.17941  0.29225  1.0000
  C   C6662     1.0  0.78884  0.18933  0.35716  1.0000
  H   H5336     1.0  0.88069  0.21073  0.17757  1.0000
  H   H5337     1.0  0.84980  0.17614  0.16051  1.0000
  H   H5338     1.0  0.77384  0.02526  0.23093  1.0000
  H   H5339     1.0  0.76192  0.17743  0.06029  1.0000
  C   C6663     1.0  0.81124  0.19785  0.18099  1.0000
  C   C6664     1.0  0.75575  0.06677  0.06854  1.0000
  H   H5340     1.0  0.81106  0.10561  0.98126  1.0000
  H   H5341     1.0  0.80177  0.16409  0.97760  1.0000
  C   C6665     1.0  0.97990  0.17560  0.23807  1.0000
  C   C6666     1.0  0.79128  0.98371  0.10147  1.0000
  C   C6667     1.0  0.77011  0.01443  0.26819  1.0000
  P   P223      1.0  0.94040  0.21081  0.22338  1.0000
  H   H5342     1.0  0.92883  0.18067  0.18796  1.0000
  C   C6668     1.0  0.95336  0.19167  0.23194  1.0000
  C   C6669     1.0  0.78837  0.21957  0.16296  1.0000
  S   S911      1.0  0.84153  0.21911  0.30051  1.0000
  C   C6670     1.0  0.74323  0.08584  0.04061  1.0000
  H   H5343     1.0  0.94055  0.18220  0.21019  1.0000
  C   C6671     1.0  0.94629  0.17797  0.24046  1.0000
  C   C6672     1.0  0.77855  0.01330  0.08066  1.0000
  C   C6673     1.0  0.80567  0.21242  0.97760  1.0000
  H   H5344     1.0  0.80694  0.98208  0.16060  1.0000
  C   C6674     1.0  0.82397  0.17717  0.12176  1.0000
  H   H5345     1.0  0.76235  0.15223  0.21950  1.0000
  C   C6675     1.0  0.93242  0.20892  0.20689  1.0000
  C   C6676     1.0  0.79289  0.22781  0.10983  1.0000
  H   H5346     1.0  0.79756  0.13696  0.97766  1.0000
  C   C6677     1.0  0.91903  0.20695  0.18156  1.0000
  C   C6678     1.0  0.79205  0.09338  0.99750  1.0000
  C   C6679     1.0  0.89715  0.22291  0.26692  1.0000
  C   C6680     1.0  0.80231  0.98905  0.20394  1.0000
  H   H5347     1.0  0.86530  0.21853  0.15535  1.0000
  C   C6681     1.0  0.76082  0.19138  0.23887  1.0000
  C   C6682     1.0  0.87062  0.22590  0.08247  1.0000
  Fe  Fe463     1.0  0.75296  0.13356  0.30358  1.0000
  C   C6683     1.0  0.76460  0.20270  0.26705  1.0000
  S   S912      1.0  0.75908  0.11640  0.32690  1.0000
  C   C6684     1.0  0.74444  0.20001  0.29331  1.0000
  C   C6685     1.0  0.95958  0.21709  0.15537  1.0000
  H   H5348     1.0  0.93327  0.17880  0.24164  1.0000
  H   H5349     1.0  0.89483  0.22113  0.98222  1.0000
  H   H5350     1.0  0.80319  0.99904  0.10848  1.0000
  C   C6686     1.0  0.78184  0.15303  0.29859  1.0000
  C   C6687     1.0  0.80069  0.15984  0.36200  1.0000
  H   H5351     1.0  0.78294  0.99080  0.13443  1.0000
  H   H5352     1.0  0.80893  0.99322  0.27261  1.0000
  C   C6688     1.0  0.95217  0.22678  0.21452  1.0000
  H   H5353     1.0  0.91385  0.20622  0.17178  1.0000
  H   H5354     1.0  0.88113  0.22465  0.25109  1.0000
  C   C6689     1.0  0.76210  0.07553  0.25115  1.0000
  S   S913      1.0  0.75222  0.13724  0.99375  1.0000
  H   H5355     1.0  0.90373  0.21845  0.22776  1.0000
  H   H5356     1.0  0.76632  0.99851  0.07365  1.0000
  C   C6690     1.0  0.75101  0.14103  0.07393  1.0000
  C   C6691     1.0  0.75816  0.12402  0.07600  1.0000
  C   C6692     1.0  0.74264  0.05515  0.21641  1.0000
  P   P224      1.0  0.78007  0.11654  0.07530  1.0000
  C   C6693     1.0  0.78757  0.13058  0.08215  1.0000
  C   C6694     1.0  0.78289  0.09629  0.08893  1.0000
  C   C6695     1.0  0.77194  0.09356  0.10439  1.0000
  C   C6696     1.0  0.77357  0.07787  0.11487  1.0000
  C   C6697     1.0  0.78604  0.06469  0.10997  1.0000
  C   C6698     1.0  0.79692  0.06725  0.09457  1.0000
  C   C6699     1.0  0.79537  0.08298  0.08405  1.0000
  C   C6700     1.0  0.78741  0.12851  0.09891  1.0000
  C   C6701     1.0  0.79334  0.13944  0.10398  1.0000
  C   C6702     1.0  0.79957  0.15244  0.09235  1.0000
  C   C6703     1.0  0.79976  0.15457  0.07569  1.0000
  C   C6704     1.0  0.79361  0.14385  0.07061  1.0000
  C   C6705     1.0  0.79111  0.11564  0.05433  1.0000
  C   C6706     1.0  0.78249  0.11775  0.04205  1.0000
  C   C6707     1.0  0.79098  0.11800  0.02568  1.0000
  C   C6708     1.0  0.80818  0.11621  0.02139  1.0000
  C   C6709     1.0  0.81692  0.11395  0.03356  1.0000
  C   C6710     1.0  0.80843  0.11367  0.04998  1.0000
  C   C6711     1.0  0.76826  0.16953  0.03728  1.0000
  S   S914      1.0  0.83056  0.20474  0.03951  1.0000
  H   H5357     1.0  0.98024  0.15052  0.25190  1.0000
  H   H5358     1.0  0.75836  0.14982  0.07262  1.0000
  P   P225      1.0  0.75510  0.20341  0.35990  1.0000
  H   H5359     1.0  0.76193  0.10349  0.10826  1.0000
  H   H5360     1.0  0.76493  0.07589  0.12665  1.0000
  H   H5361     1.0  0.78702  0.05240  0.11792  1.0000
  H   H5362     1.0  0.80625  0.05691  0.09062  1.0000
  H   H5363     1.0  0.80365  0.08452  0.07204  1.0000
  H   H5364     1.0  0.78279  0.11849  0.10813  1.0000
  H   H5365     1.0  0.79315  0.13777  0.11692  1.0000
  H   H5366     1.0  0.80415  0.16096  0.09620  1.0000
  H   H5367     1.0  0.80453  0.16469  0.06666  1.0000
  H   H5368     1.0  0.79356  0.14601  0.05764  1.0000
  H   H5369     1.0  0.76916  0.11954  0.04498  1.0000
  H   H5370     1.0  0.96609  0.21597  0.19351  1.0000
  H   H5371     1.0  0.81464  0.11690  0.00861  1.0000
  H   H5372     1.0  0.83024  0.11272  0.03022  1.0000
  H   H5373     1.0  0.81530  0.11220  0.05925  1.0000
  C   C6712     1.0  0.81477  0.98940  0.22575  1.0000
  S   S915      1.0  0.75491  0.02183  0.16702  1.0000
  C   C6713     1.0  0.89115  0.17140  0.09151  1.0000
  C   C6714     1.0  0.89963  0.18426  0.08618  1.0000
  H   H5374     1.0  0.75518  0.17736  0.43552  1.0000
  C   C6715     1.0  0.77141  0.21266  0.27257  1.0000
  P   P226      1.0  0.77526  0.19591  0.24797  1.0000
  C   C6716     1.0  0.75098  0.08881  0.20899  1.0000
  C   C6717     1.0  0.79178  0.17842  0.25333  1.0000
  C   C6718     1.0  0.80382  0.18082  0.26007  1.0000
  C   C6719     1.0  0.81593  0.16742  0.26565  1.0000
  C   C6720     1.0  0.81621  0.15149  0.26455  1.0000
  C   C6721     1.0  0.86246  0.14311  0.14220  1.0000
  H   H5375     1.0  0.91910  0.15191  0.12932  1.0000
  H   H5376     1.0  0.96296  0.22245  0.09778  1.0000
  H   H5377     1.0  0.80051  0.00648  0.29668  1.0000
  H   H5378     1.0  0.79767  0.99547  0.19292  1.0000
  Fe  Fe464     1.0  0.75326  0.15242  0.01070  1.0000
  S   S916      1.0  0.84324  0.22197  0.99029  1.0000
  H   H5379     1.0  0.81818  0.16672  0.12473  1.0000
  C   C6722     1.0  0.88942  0.17131  0.12016  1.0000
  C   C6723     1.0  0.86349  0.15713  0.14685  1.0000
  C   C6724     1.0  0.90314  0.19059  0.09774  1.0000
  H   H5380     1.0  0.78213  0.21730  0.26497  1.0000
  H   H5381     1.0  0.80349  0.19293  0.26175  1.0000
  H   H5382     1.0  0.82440  0.16928  0.27184  1.0000
  H   H5383     1.0  0.82497  0.14103  0.26987  1.0000
  H   H5384     1.0  0.82133  0.14398  0.15726  1.0000
  C   C6725     1.0  0.81606  0.19086  0.12892  1.0000
  H   H5385     1.0  0.78457  0.11297  0.20464  1.0000
  C   C6726     1.0  0.80867  0.22054  0.21311  1.0000
  C   C6727     1.0  0.79454  0.20197  0.18876  1.0000
  H   H5386     1.0  0.80696  0.19525  0.22398  1.0000
  C   C6728     1.0  0.77969  0.09141  0.20055  1.0000
  H   H5387     1.0  0.74044  0.07096  0.15485  1.0000
  C   C6729     1.0  0.79891  0.10334  0.98277  1.0000
  C   C6730     1.0  0.84076  0.98956  0.16813  1.0000
  C   C6731     1.0  0.97910  0.17713  0.19413  1.0000
  C   C6732     1.0  0.77457  0.99850  0.08111  1.0000
  H   H5388     1.0  0.82938  0.20099  0.15820  1.0000
  C   C6733     1.0  0.88247  0.17807  0.15334  1.0000
  H   H5389     1.0  0.75116  0.22714  0.03472  1.0000
  C   C6734     1.0  0.98395  0.17910  0.16482  1.0000
  H   H5390     1.0  0.75460  0.10148  0.25165  1.0000
  H   H5391     1.0  0.79073  0.20189  0.35374  1.0000
  H   H5392     1.0  0.80134  0.21722  0.10547  1.0000
  H   H5393     1.0  0.82012  0.18947  0.18797  1.0000
  C   C6735     1.0  0.78896  0.01337  0.09046  1.0000
  C   C6736     1.0  0.89160  0.17396  0.16562  1.0000
  C   C6737     1.0  0.87273  0.21964  0.02170  1.0000
  C   C6738     1.0  0.75381  0.02053  0.22383  1.0000
  S   S917      1.0  0.75017  0.11384  0.29306  1.0000
  C   C6739     1.0  0.75095  0.19646  0.27760  1.0000
  C   C6740     1.0  0.74243  0.18651  0.34433  1.0000
  C   C6741     1.0  0.83604  0.00693  0.16532  1.0000
  C   C6742     1.0  0.97447  0.17503  0.18073  1.0000
  C   C6743     1.0  0.74855  0.20738  0.38049  1.0000
  H   H5394     1.0  0.74571  0.18820  0.27426  1.0000
  C   C6744     1.0  0.96131  0.21017  0.08002  1.0000
  H   H5395     1.0  0.93964  0.12717  0.13896  1.0000
  C   C6745     1.0  0.89080  0.18565  0.17442  1.0000
  C   C6746     1.0  0.73953  0.02761  0.21748  1.0000
  H   H5396     1.0  0.75329  0.99827  0.19848  1.0000
  C   C6747     1.0  0.76493  0.21618  0.28825  1.0000
  H   H5397     1.0  0.82308  0.16807  0.16653  1.0000
  C   C6748     1.0  0.88112  0.20162  0.17086  1.0000
  H   H5398     1.0  0.85915  0.98750  0.13780  1.0000
  C   C6749     1.0  0.92334  0.21602  0.24016  1.0000
  S   S918      1.0  0.85057  0.21828  0.06734  1.0000
  C   C6750     1.0  0.83357  0.10829  0.17642  1.0000
  C   C6751     1.0  0.85005  0.09972  0.17296  1.0000
  C   C6752     1.0  0.86116  0.10052  0.18162  1.0000
  C   C6753     1.0  0.85577  0.10956  0.19402  1.0000
  C   C6754     1.0  0.83937  0.11874  0.19721  1.0000
  C   C6755     1.0  0.82825  0.11784  0.18840  1.0000
  P   P227      1.0  0.83219  0.12978  0.21386  1.0000
  C   C6756     1.0  0.80998  0.13750  0.21642  1.0000
  C   C6757     1.0  0.83652  0.11494  0.23238  1.0000
  C   C6758     1.0  0.83498  0.09856  0.23489  1.0000
  C   C6759     1.0  0.83659  0.08740  0.24988  1.0000
  C   C6760     1.0  0.84027  0.09235  0.26227  1.0000
  C   C6761     1.0  0.84246  0.10844  0.25966  1.0000
  C   C6762     1.0  0.84059  0.11973  0.24475  1.0000
  C   C6763     1.0  0.80353  0.15220  0.20596  1.0000
  C   C6764     1.0  0.78639  0.15761  0.20719  1.0000
  C   C6765     1.0  0.77559  0.14829  0.21876  1.0000
  C   C6766     1.0  0.78190  0.13369  0.22921  1.0000
  C   C6767     1.0  0.79900  0.12828  0.22797  1.0000
  C   C6768     1.0  0.84222  0.14679  0.21033  1.0000
  C   C6769     1.0  0.85910  0.14538  0.20275  1.0000
  C   C6770     1.0  0.86700  0.15806  0.20111  1.0000
  C   C6771     1.0  0.85819  0.17240  0.20675  1.0000
  C   C6772     1.0  0.84154  0.17375  0.21477  1.0000
  C   C6773     1.0  0.83358  0.16099  0.21664  1.0000
  H   H5399     1.0  0.82481  0.10705  0.17019  1.0000
  H   H5400     1.0  0.85410  0.09187  0.16408  1.0000
  H   H5401     1.0  0.87378  0.09340  0.17927  1.0000
  H   H5402     1.0  0.86425  0.10863  0.20160  1.0000
  H   H5403     1.0  0.81532  0.12393  0.19110  1.0000
  H   H5404     1.0  0.83212  0.09445  0.22546  1.0000
  H   H5405     1.0  0.83496  0.07490  0.25184  1.0000
  H   H5406     1.0  0.84152  0.08362  0.27380  1.0000
  H   H5407     1.0  0.84553  0.11215  0.26924  1.0000
  H   H5408     1.0  0.84219  0.13216  0.24301  1.0000
  H   H5409     1.0  0.81179  0.15928  0.19670  1.0000
  C   C6774     1.0  0.74256  0.16915  0.10228  1.0000
  H   H5410     1.0  0.77362  0.12631  0.23815  1.0000
  H   H5411     1.0  0.80358  0.11671  0.23586  1.0000
  H   H5412     1.0  0.86649  0.13431  0.19869  1.0000
  H   H5413     1.0  0.88021  0.15641  0.19618  1.0000
  H   H5414     1.0  0.86460  0.18193  0.20588  1.0000
  H   H5415     1.0  0.83515  0.18434  0.22022  1.0000
  H   H5416     1.0  0.82089  0.16197  0.22354  1.0000
  C   C6775     1.0  0.80514  0.21546  0.15499  1.0000
  Fe  Fe465     1.0  0.82407  0.02640  0.22235  1.0000
  C   C6776     1.0  0.75970  0.21174  0.38686  1.0000
  C   C6777     1.0  0.84923  0.16589  0.15598  1.0000
  C   C6778     1.0  0.76116  0.22155  0.34565  1.0000
  H   H5417     1.0  0.88843  0.16652  0.08251  1.0000
  C   C6779     1.0  0.83407  0.16119  0.15966  1.0000
  C   C6780     1.0  0.88609  0.16490  0.10842  1.0000
  H   H5418     1.0  0.75830  0.16303  0.04062  1.0000
  S   S919      1.0  0.76595  0.15397  0.28914  1.0000
  H   H5419     1.0  0.77060  0.22364  0.29232  1.0000
  C   C6781     1.0  0.87803  0.14664  0.32064  1.0000
  C   C6782     1.0  0.86875  0.14169  0.33651  1.0000
  C   C6783     1.0  0.86140  0.12813  0.34017  1.0000
  C   C6784     1.0  0.86329  0.11954  0.32797  1.0000
  C   C6785     1.0  0.87221  0.12475  0.31188  1.0000
  C   C6786     1.0  0.87984  0.13817  0.30839  1.0000
  P   P228      1.0  0.87544  0.11353  0.29605  1.0000
  C   C6787     1.0  0.89697  0.10294  0.29329  1.0000
  C   C6788     1.0  0.86153  0.09969  0.30105  1.0000
  C   C6789     1.0  0.86727  0.08377  0.29763  1.0000
  C   C6790     1.0  0.85632  0.07325  0.30128  1.0000
  C   C6791     1.0  0.83948  0.07872  0.30787  1.0000
  C   C6792     1.0  0.83356  0.09479  0.31061  1.0000
  C   C6793     1.0  0.84451  0.10529  0.30716  1.0000
  C   C6794     1.0  0.90901  0.11014  0.28091  1.0000
  C   C6795     1.0  0.92573  0.10208  0.27894  1.0000
  C   C6796     1.0  0.93061  0.08697  0.28952  1.0000
  C   C6797     1.0  0.91877  0.08001  0.30227  1.0000
  C   C6798     1.0  0.90201  0.08804  0.30427  1.0000
  C   C6799     1.0  0.87134  0.12756  0.27713  1.0000
  C   C6800     1.0  0.86227  0.14389  0.27705  1.0000
  C   C6801     1.0  0.86023  0.15493  0.26211  1.0000
  C   C6802     1.0  0.86673  0.14961  0.24731  1.0000
  C   C6803     1.0  0.87494  0.13316  0.24736  1.0000
  C   C6804     1.0  0.87726  0.12212  0.26223  1.0000
  H   H5420     1.0  0.88366  0.15722  0.31773  1.0000
  H   H5421     1.0  0.86712  0.14847  0.34590  1.0000
  H   H5422     1.0  0.85409  0.12440  0.35243  1.0000
  H   H5423     1.0  0.85770  0.10896  0.33115  1.0000
  H   H5424     1.0  0.88708  0.14223  0.29615  1.0000
  H   H5425     1.0  0.88012  0.07952  0.29190  1.0000
  H   H5426     1.0  0.86084  0.06095  0.29870  1.0000
  H   H5427     1.0  0.83094  0.07066  0.31051  1.0000
  H   H5428     1.0  0.82043  0.09910  0.31534  1.0000
  H   H5429     1.0  0.83970  0.11781  0.30920  1.0000
  H   H5430     1.0  0.90557  0.12204  0.27282  1.0000
  H   H5431     1.0  0.93494  0.10759  0.26918  1.0000
  H   H5432     1.0  0.94360  0.08078  0.28786  1.0000
  H   H5433     1.0  0.92261  0.06841  0.31061  1.0000
  H   H5434     1.0  0.89301  0.08267  0.31436  1.0000
  H   H5435     1.0  0.85705  0.14826  0.28843  1.0000
  H   H5436     1.0  0.85406  0.16776  0.26196  1.0000
  H   H5437     1.0  0.86579  0.15836  0.23578  1.0000
  H   H5438     1.0  0.87998  0.12904  0.23583  1.0000
  H   H5439     1.0  0.88403  0.10946  0.26201  1.0000
  H   H5440     1.0  0.75472  0.12512  0.21468  1.0000
  C   C6805     1.0  0.75387  0.17950  0.09581  1.0000
  H   H5441     1.0  0.74323  0.05138  0.33680  1.0000
  C   C6806     1.0  0.88434  0.98499  0.12409  1.0000
  H   H5442     1.0  0.75730  0.20444  0.09032  1.0000
  H   H5443     1.0  0.76676  0.17449  0.09076  1.0000
  H   H5444     1.0  0.74772  0.06268  0.18198  1.0000
  H   H5445     1.0  0.90981  0.20052  0.09365  1.0000
  C   C6807     1.0  0.86439  0.99419  0.21266  1.0000
  H   H5446     1.0  0.90342  0.18941  0.07310  1.0000
  C   C6808     1.0  0.87302  0.19429  0.14957  1.0000
  P   P229      1.0  0.88327  0.16290  0.14210  1.0000
  H   H5447     1.0  0.81151  0.14969  0.36174  1.0000
  S   S920      1.0  0.77786  0.15855  0.00819  1.0000
  C   C6809     1.0  0.75713  0.08882  0.04367  1.0000
  C   C6810     1.0  0.75843  0.11314  0.21145  1.0000
  H   H5448     1.0  0.78409  0.12021  0.01622  1.0000
  H   H5449     1.0  0.78944  0.99808  0.25462  1.0000
  C   C6811     1.0  0.82333  0.20461  0.12480  1.0000
  H   H5450     1.0  0.84216  0.21403  0.22471  1.0000
  H   H5451     1.0  0.75367  0.05134  0.30735  1.0000
  H   H5452     1.0  0.81497  0.17869  0.35456  1.0000
  C   C6812     1.0  0.79533  0.99866  0.10081  1.0000
  C   C6813     1.0  0.76243  0.03070  0.22659  1.0000
  C   C6814     1.0  0.78480  0.15664  0.36635  1.0000
  Fe  Fe466     1.0  0.75407  0.09699  0.31728  1.0000
  C   C6815     1.0  0.87789  0.01107  0.18796  1.0000
  C   C6816     1.0  0.80267  0.17617  0.35774  1.0000
  C   C6817     1.0  0.92762  0.19260  0.19055  1.0000
  C   C6818     1.0  0.98002  0.21234  0.12471  1.0000
  C   C6819     1.0  0.78569  0.00388  0.26512  1.0000
  C   C6820     1.0  0.75648  0.20183  0.22428  1.0000
  H   H5453     1.0  0.87191  0.21433  0.21228  1.0000
  C   C6821     1.0  0.77515  0.10645  0.20556  1.0000
  C   C6822     1.0  0.90679  0.21926  0.23876  1.0000
  C   C6823     1.0  0.81628  0.21363  0.98666  1.0000
  H   H5454     1.0  0.77290  0.02465  0.30256  1.0000
  C   C6824     1.0  0.97275  0.16199  0.24637  1.0000
  C   C6825     1.0  0.95663  0.20667  0.14718  1.0000
  C   C6826     1.0  0.75474  0.21586  0.40231  1.0000
  C   C6827     1.0  0.74521  0.19846  0.21735  1.0000
  H   H5455     1.0  0.75571  0.09423  0.98863  1.0000
  H   H5456     1.0  0.91609  0.21892  0.28028  1.0000
  C   C6828     1.0  0.81072  0.00634  0.15859  1.0000
  Fe  Fe467     1.0  0.80300  0.21405  0.04650  1.0000
  H   H5457     1.0  0.82095  0.21738  0.20552  1.0000
  H   H5458     1.0  0.84426  0.21510  0.10949  1.0000
  C   C6829     1.0  0.82110  0.01526  0.16054  1.0000
  S   S921      1.0  0.81972  0.21653  0.34964  1.0000
  H   H5459     1.0  0.81370  0.20935  0.99989  1.0000
  C   C6830     1.0  0.93424  0.19353  0.20324  1.0000
  C   C6831     1.0  0.79192  0.00857  0.28884  1.0000
  H   H5460     1.0  0.77379  0.20878  0.32579  1.0000
  C   C6832     1.0  0.84672  0.22498  0.22324  1.0000
  H   H5461     1.0  0.79895  0.01278  0.15529  1.0000
  H   H5462     1.0  0.96272  0.19557  0.06290  1.0000
  H   H5463     1.0  0.77023  0.21623  0.18578  1.0000
  H   H5464     1.0  0.84382  0.01411  0.16682  1.0000
  H   H5465     1.0  0.76317  0.09829  0.03513  1.0000
  C   C6833     1.0  0.98159  0.12236  0.23602  1.0000
  H   H5466     1.0  0.96468  0.19574  0.12602  1.0000
  C   C6834     1.0  0.77696  0.22889  0.23266  1.0000
  C   C6835     1.0  0.76263  0.19330  0.97933  1.0000
  H   H5467     1.0  0.84445  0.18246  0.98155  1.0000
  C   C6836     1.0  0.74065  0.16357  0.43023  1.0000
  H   H5468     1.0  0.97675  0.13609  0.21229  1.0000
  C   C6837     1.0  0.75664  0.04792  0.22329  1.0000
  C   C6838     1.0  0.74307  0.21862  0.03793  1.0000
  C   C6839     1.0  0.75844  0.20404  0.99009  1.0000
  H   H5469     1.0  0.86496  0.21231  0.03140  1.0000
  H   H5470     1.0  0.75871  0.16707  0.36976  1.0000
  C   C6840     1.0  0.76362  0.07904  0.05738  1.0000
  C   C6841     1.0  0.74636  0.10446  0.21297  1.0000
  H   H5471     1.0  0.76717  0.20342  0.99728  1.0000
  C   C6842     1.0  0.75261  0.08915  0.25780  1.0000
  C   C6843     1.0  0.98268  0.22304  0.13283  1.0000
  H   H5472     1.0  0.97605  0.20084  0.22476  1.0000
  H   H5473     1.0  0.75128  0.15624  0.42331  1.0000
  H   H5474     1.0  0.77206  0.21259  0.37960  1.0000
  C   C6844     1.0  0.76526  0.02215  0.28165  1.0000
  C   C6845     1.0  0.95600  0.16312  0.24747  1.0000
  C   C6846     1.0  0.96899  0.19777  0.07109  1.0000
  C   C6847     1.0  0.77063  0.22038  0.32975  1.0000
  C   C6848     1.0  0.96683  0.20425  0.13194  1.0000
  C   C6849     1.0  0.74284  0.17547  0.43711  1.0000
  C   C6850     1.0  0.80076  0.20807  0.22362  1.0000
  C   C6851     1.0  0.78316  0.21292  0.17978  1.0000
  C   C6852     1.0  0.74850  0.19643  0.09555  1.0000
  Fe  Fe468     1.0  0.83221  0.22489  0.05070  1.0000
  C   C6853     1.0  0.97023  0.19046  0.23098  1.0000
  C   C6854     1.0  0.96405  0.22599  0.19966  1.0000
  C   C6855     1.0  0.81647  0.20447  0.16417  1.0000
  C   C6856     1.0  0.87976  0.21501  0.00657  1.0000
  H   H5475     1.0  0.76196  0.01665  0.25994  1.0000
  H   H5476     1.0  0.86024  0.99121  0.22598  1.0000
  C   C6857     1.0  0.74843  0.11292  0.07709  1.0000
  C   C6858     1.0  0.79667  0.00107  0.27534  1.0000
  Fe  Fe469     1.0  0.74349  0.02970  0.14467  1.0000
  S   S922      1.0  0.73937  0.05543  0.12914  1.0000
  H   H5477     1.0  0.96388  0.16968  0.18271  1.0000
  H   H5478     1.0  0.87723  0.20422  0.00444  1.0000
  H   H5479     1.0  0.95058  0.15242  0.25373  1.0000
  H   H5480     1.0  0.87750  0.00653  0.16497  1.0000
  C   C6859     1.0  0.96919  0.21286  0.09086  1.0000
  P   P230      1.0  0.74539  0.03645  0.28497  1.0000
  Fe  Fe470     1.0  0.74637  0.04311  0.10774  1.0000
  C   C6860     1.0  0.75340  0.17771  0.24650  1.0000
  C   C6861     1.0  0.74818  0.05708  0.27423  1.0000
  H   H5481     1.0  0.75468  0.17863  0.34197  1.0000
  H   H5482     1.0  0.77462  0.08112  0.05948  1.0000
  H   H5483     1.0  0.94658  0.20026  0.15276  1.0000
  H   H5484     1.0  0.79038  0.19666  0.20172  1.0000
  P   P231      1.0  0.81215  0.22275  0.13296  1.0000
  C   C6862     1.0  0.76784  0.09670  0.98689  1.0000
  C   C6863     1.0  0.97264  0.22522  0.14820  1.0000
  H   H5485     1.0  0.79489  0.20730  0.98402  1.0000
  H   H5486     1.0  0.74676  0.21216  0.31102  1.0000
  H   H5487     1.0  0.74676  0.15600  0.10254  1.0000
  H   H5488     1.0  0.97231  0.17300  0.20656  1.0000
  H   H5489     1.0  0.75368  0.09976  0.07852  1.0000
  C   C6864     1.0  0.86543  0.98982  0.18571  1.0000
  S   S923      1.0  0.80929  0.22180  0.27278  1.0000
  C   C6865     1.0  0.91355  0.21946  0.26852  1.0000
  C   C6866     1.0  0.73917  0.19965  0.35232  1.0000
  H   H5490     1.0  0.77127  0.08218  0.01085  1.0000
  C   C6867     1.0  0.74408  0.04462  0.31439  1.0000
  H   H5491     1.0  0.76320  0.21993  0.40678  1.0000
  C   C6868     1.0  0.89380  0.22282  0.25205  1.0000
  H   H5492     1.0  0.98072  0.17678  0.15455  1.0000
  C   C6869     1.0  0.92391  0.22329  0.19767  1.0000
  H   H5493     1.0  0.95179  0.21884  0.16724  1.0000
  H   H5494     1.0  0.83358  0.22833  0.15193  1.0000
  C   C6870     1.0  0.74197  0.17452  0.23968  1.0000
  H   H5495     1.0  0.94903  0.21749  0.07889  1.0000
  C   C6871     1.0  0.78093  0.98376  0.09140  1.0000
  H   H5496     1.0  0.74190  0.20658  0.20612  1.0000
  C   C6872     1.0  0.98503  0.13298  0.22058  1.0000
  C   C6873     1.0  0.91708  0.22228  0.18519  1.0000
  Fe  Fe471     1.0  0.82917  0.22445  0.01622  1.0000
  C   C6874     1.0  0.98480  0.20303  0.09293  1.0000
  C   C6875     1.0  0.81529  0.98906  0.16143  1.0000
  C   C6876     1.0  0.74170  0.06396  0.06559  1.0000
  C   C6877     1.0  0.74031  0.20935  0.05411  1.0000
  H   H5497     1.0  0.88092  0.98891  0.11222  1.0000
  C   C6878     1.0  0.74045  0.08683  0.27231  1.0000
  C   C6879     1.0  0.98471  0.18818  0.07282  1.0000
  C   C6880     1.0  0.92661  0.21601  0.25521  1.0000
  C   C6881     1.0  0.74312  0.21539  0.99159  1.0000
  C   C6882     1.0  0.86348  0.22507  0.21645  1.0000
  H   H5498     1.0  0.88704  0.22487  0.27746  1.0000
  H   H5499     1.0  0.74614  0.21107  0.06292  1.0000
  C   C6883     1.0  0.87202  0.98422  0.13865  1.0000
  H   H5500     1.0  0.91152  0.22894  0.06303  1.0000
  C   C6884     1.0  0.73871  0.21540  0.41165  1.0000
  H   H5501     1.0  0.77034  0.23121  0.98186  1.0000
  H   H5502     1.0  0.88670  0.23115  0.09464  1.0000
  H   H5503     1.0  0.79477  0.23100  0.37424  1.0000
  H   H5504     1.0  0.91059  0.98156  0.11355  1.0000
  P   P232      1.0  0.96214  0.23045  0.70646  1.0000
  C   C6885     1.0  0.94224  0.17030  0.64206  1.0000
  C   C6886     1.0  0.80442  0.08380  0.72610  1.0000
  S   S924      1.0  0.89077  0.19633  0.83838  1.0000
  C   C6887     1.0  0.77373  0.07035  0.79044  1.0000
  S   S925      1.0  0.92213  0.17091  0.77009  1.0000
  S   S926      1.0  0.81496  0.21115  0.90426  1.0000
  H   H5505     1.0  0.94081  0.22189  0.82665  1.0000
  Fe  Fe472     1.0  0.79406  0.20584  0.89718  1.0000
  S   S927      1.0  0.79446  0.18027  0.89491  1.0000
  C   C6888     1.0  0.95616  0.15810  0.64591  1.0000
  C   C6889     1.0  0.92199  0.19244  0.66873  1.0000
  C   C6890     1.0  0.79279  0.08958  0.73935  1.0000
  H   H5506     1.0  0.73922  0.99050  0.92132  1.0000
  Fe  Fe473     1.0  0.79969  0.06575  0.67047  1.0000
  S   S928      1.0  0.82584  0.05780  0.65660  1.0000
  S   S929      1.0  0.78427  0.09192  0.66751  1.0000
  Fe  Fe474     1.0  0.80027  0.03189  0.69368  1.0000
  C   C6891     1.0  0.79855  0.12155  0.77502  1.0000
  Fe  Fe475     1.0  0.83102  0.04640  0.68191  1.0000
  S   S930      1.0  0.85225  0.04981  0.69040  1.0000
  Fe  Fe476     1.0  0.81858  0.03383  0.65857  1.0000
  S   S931      1.0  0.80528  0.05536  0.69565  1.0000
  S   S932      1.0  0.79196  0.04315  0.66992  1.0000
  Fe  Fe477     1.0  0.87240  0.13127  0.69761  1.0000
  S   S933      1.0  0.89549  0.13729  0.67935  1.0000
  S   S934      1.0  0.85267  0.12341  0.69050  1.0000
  Fe  Fe478     1.0  0.87631  0.14916  0.72188  1.0000
  S   S935      1.0  0.89902  0.15725  0.70540  1.0000
  S   S936      1.0  0.86517  0.15814  0.74545  1.0000
  Fe  Fe479     1.0  0.88595  0.16263  0.68488  1.0000
  S   S937      1.0  0.88549  0.18646  0.66584  1.0000
  Fe  Fe480     1.0  0.90679  0.13133  0.70143  1.0000
  S   S938      1.0  0.86237  0.15720  0.70173  1.0000
  S   S939      1.0  0.88459  0.12264  0.71948  1.0000
  Fe  Fe481     1.0  0.74762  0.14795  0.59564  1.0000
  H   H5507     1.0  0.91600  0.13258  0.56988  1.0000
  S   S940      1.0  0.76877  0.12555  0.59690  1.0000
  C   C6892     1.0  0.76738  0.98492  0.84739  1.0000
  H   H5508     1.0  0.86705  0.08302  0.63792  1.0000
  H   H5509     1.0  0.83586  0.10279  0.64450  1.0000
  H   H5510     1.0  0.74248  0.10570  0.65815  1.0000
  C   C6893     1.0  0.76941  0.99270  0.83064  1.0000
  C   C6894     1.0  0.94470  0.17426  0.83961  1.0000
  H   H5511     1.0  0.74109  0.19384  0.50391  1.0000
  C   C6895     1.0  0.82520  0.09623  0.62821  1.0000
  Fe  Fe482     1.0  0.84437  0.20722  0.59873  1.0000
  S   S941      1.0  0.74528  0.20917  0.57880  1.0000
  S   S942      1.0  0.86418  0.18420  0.60246  1.0000
  H   H5512     1.0  0.75953  0.12980  0.90531  1.0000
  H   H5513     1.0  0.83896  0.06732  0.94547  1.0000
  S   S943      1.0  0.82132  0.20733  0.59150  1.0000
  S   S944      1.0  0.82657  0.02163  0.68247  1.0000
  C   C6896     1.0  0.75556  0.21079  0.59301  1.0000
  C   C6897     1.0  0.76941  0.21786  0.58707  1.0000
  H   H5514     1.0  0.84078  0.22697  0.68905  1.0000
  C   C6898     1.0  0.77236  0.21426  0.61503  1.0000
  C   C6899     1.0  0.75831  0.20735  0.62111  1.0000
  C   C6900     1.0  0.74988  0.20563  0.61008  1.0000
  C   C6901     1.0  0.79024  0.11006  0.96998  1.0000
  H   H5515     1.0  0.74421  0.03645  0.85104  1.0000
  H   H5516     1.0  0.75409  0.20315  0.63428  1.0000
  C   C6902     1.0  0.79691  0.21044  0.78434  1.0000
  H   H5517     1.0  0.81589  0.09122  0.63818  1.0000
  C   C6903     1.0  0.87950  0.18565  0.64836  1.0000
  C   C6904     1.0  0.87644  0.17101  0.64698  1.0000
  C   C6905     1.0  0.87211  0.17040  0.63271  1.0000
  C   C6906     1.0  0.87054  0.18453  0.61992  1.0000
  C   C6907     1.0  0.87324  0.19927  0.62147  1.0000
  C   C6908     1.0  0.87785  0.19978  0.63562  1.0000
  H   H5518     1.0  0.87715  0.16022  0.65697  1.0000
  H   H5519     1.0  0.86940  0.15917  0.63194  1.0000
  S   S945      1.0  0.98056  0.16879  0.68654  1.0000
  H   H5520     1.0  0.74359  0.21581  0.91439  1.0000
  C   C6909     1.0  0.77949  0.10095  0.64806  1.0000
  C   C6910     1.0  0.78458  0.09200  0.63561  1.0000
  C   C6911     1.0  0.78133  0.09973  0.61989  1.0000
  C   C6912     1.0  0.77244  0.11618  0.61676  1.0000
  C   C6913     1.0  0.76695  0.12498  0.62937  1.0000
  C   C6914     1.0  0.77072  0.11746  0.64491  1.0000
  H   H5521     1.0  0.79121  0.07919  0.63803  1.0000
  H   H5522     1.0  0.78550  0.09285  0.61020  1.0000
  H   H5523     1.0  0.76019  0.13770  0.62702  1.0000
  H   H5524     1.0  0.76676  0.12441  0.65454  1.0000
  C   C6915     1.0  0.85164  0.07018  0.69143  1.0000
  C   C6916     1.0  0.86334  0.07304  0.69827  1.0000
  C   C6917     1.0  0.86365  0.08929  0.69837  1.0000
  C   C6918     1.0  0.85221  0.10274  0.69165  1.0000
  C   C6919     1.0  0.84007  0.09981  0.68547  1.0000
  C   C6920     1.0  0.83983  0.08361  0.68528  1.0000
  H   H5525     1.0  0.87241  0.06267  0.70316  1.0000
  H   H5526     1.0  0.87293  0.09143  0.70330  1.0000
  H   H5527     1.0  0.83101  0.11013  0.68051  1.0000
  H   H5528     1.0  0.83068  0.08153  0.68010  1.0000
  C   C6921     1.0  0.76178  0.02960  0.76100  1.0000
  C   C6922     1.0  0.77677  0.03387  0.75179  1.0000
  C   C6923     1.0  0.78388  0.02972  0.73635  1.0000
  C   C6924     1.0  0.77616  0.02093  0.73043  1.0000
  H   H5529     1.0  0.75901  0.01251  0.81230  1.0000
  H   H5530     1.0  0.79550  0.03291  0.72925  1.0000
  H   H5531     1.0  0.81698  0.09094  0.60925  1.0000
  C   C6925     1.0  0.78206  0.17928  0.88217  1.0000
  S   S946      1.0  0.93350  0.11860  0.70202  1.0000
  C   C6926     1.0  0.77792  0.19251  0.86923  1.0000
  C   C6927     1.0  0.76769  0.16293  0.87428  1.0000
  C   C6928     1.0  0.77711  0.16447  0.88448  1.0000
  C   C6929     1.0  0.83656  0.10282  0.63175  1.0000
  C   C6930     1.0  0.82184  0.20029  0.79542  1.0000
  H   H5532     1.0  0.78094  0.15409  0.89398  1.0000
  C   C6931     1.0  0.77767  0.21976  0.59801  1.0000
  H   H5533     1.0  0.95673  0.14691  0.81608  1.0000
  C   C6932     1.0  0.94135  0.13655  0.65018  1.0000
  C   C6933     1.0  0.90607  0.16762  0.76340  1.0000
  C   C6934     1.0  0.90937  0.15455  0.75543  1.0000
  C   C6935     1.0  0.89687  0.15174  0.74973  1.0000
  C   C6936     1.0  0.88094  0.16181  0.75224  1.0000
  C   C6937     1.0  0.87763  0.17491  0.76013  1.0000
  C   C6938     1.0  0.89020  0.17788  0.76564  1.0000
  H   H5534     1.0  0.92166  0.14667  0.75353  1.0000
  H   H5535     1.0  0.89954  0.14164  0.74356  1.0000
  H   H5536     1.0  0.86540  0.18283  0.76183  1.0000
  H   H5537     1.0  0.88760  0.18808  0.77160  1.0000
  C   C6939     1.0  0.92759  0.14860  0.64601  1.0000
  H   H5538     1.0  0.74855  0.18508  0.91958  1.0000
  C   C6940     1.0  0.85942  0.20540  0.85629  1.0000
  S   S947      1.0  0.92888  0.19093  0.80104  1.0000
  H   H5539     1.0  0.91943  0.17995  0.85326  1.0000
  H   H5540     1.0  0.85945  0.19231  0.85977  1.0000
  H   H5541     1.0  0.83488  0.21255  0.87086  1.0000
  H   H5542     1.0  0.74258  0.01780  0.76184  1.0000
  C   C6941     1.0  0.75399  0.02121  0.75480  1.0000
  C   C6942     1.0  0.91790  0.21693  0.62350  1.0000
  H   H5543     1.0  0.91646  0.14500  0.64611  1.0000
  C   C6943     1.0  0.88163  0.07802  0.65585  1.0000
  C   C6944     1.0  0.80194  0.99971  0.65870  1.0000
  C   C6945     1.0  0.90988  0.21681  0.59879  1.0000
  H   H5544     1.0  0.84488  0.20069  0.77720  1.0000
  C   C6946     1.0  0.80230  0.14116  0.95092  1.0000
  C   C6947     1.0  0.96776  0.15743  0.77423  1.0000
  H   H5545     1.0  0.95273  0.18077  0.75011  1.0000
  C   C6948     1.0  0.82038  0.21873  0.83010  1.0000
  C   C6949     1.0  0.80491  0.22307  0.52451  1.0000
  C   C6950     1.0  0.82065  0.17978  0.82977  1.0000
  S   S948      1.0  0.79026  0.22927  0.87787  1.0000
  C   C6951     1.0  0.77445  0.13758  0.93428  1.0000
  C   C6952     1.0  0.84449  0.17192  0.96161  1.0000
  C   C6953     1.0  0.83375  0.22533  0.96131  1.0000
  H   H5546     1.0  0.75533  0.00983  0.73508  1.0000
  H   H5547     1.0  0.75875  0.07202  0.68046  1.0000
  C   C6954     1.0  0.78077  0.10276  0.77846  1.0000
  H   H5548     1.0  0.88586  0.09895  0.60181  1.0000
  S   S949      1.0  0.89222  0.20649  0.79282  1.0000
  S   S950      1.0  0.78493  0.01489  0.71170  1.0000
  S   S951      1.0  0.82456  0.01863  0.63917  1.0000
  C   C6955     1.0  0.79775  0.18308  0.52539  1.0000
  C   C6956     1.0  0.81334  0.05796  0.74463  1.0000
  H   H5549     1.0  0.80168  0.10215  0.92570  1.0000
  C   C6957     1.0  0.77551  0.11953  0.79863  1.0000
  C   C6958     1.0  0.83486  0.11454  0.93990  1.0000
  C   C6959     1.0  0.97281  0.19225  0.64249  1.0000
  H   H5550     1.0  0.94315  0.16830  0.73280  1.0000
  H   H5551     1.0  0.94080  0.12357  0.65382  1.0000
  H   H5552     1.0  0.78188  0.20390  0.86713  1.0000
  C   C6960     1.0  0.81339  0.00280  0.64371  1.0000
  C   C6961     1.0  0.81473  0.06803  0.72876  1.0000
  H   H5553     1.0  0.73916  0.98458  0.81695  1.0000
  C   C6962     1.0  0.85054  0.10406  0.93681  1.0000
  H   H5554     1.0  0.77100  0.15355  0.66511  1.0000
  C   C6963     1.0  0.85201  0.18035  0.80857  1.0000
  C   C6964     1.0  0.83247  0.11155  0.73114  1.0000
  C   C6965     1.0  0.84037  0.11846  0.73880  1.0000
  C   C6966     1.0  0.83464  0.13506  0.73992  1.0000
  C   C6967     1.0  0.82099  0.14477  0.73339  1.0000
  C   C6968     1.0  0.81306  0.13798  0.72551  1.0000
  C   C6969     1.0  0.81896  0.12128  0.72440  1.0000
  P   P233      1.0  0.79604  0.15110  0.71634  1.0000
  C   C6970     1.0  0.78569  0.13856  0.71060  1.0000
  C   C6971     1.0  0.78258  0.16213  0.73192  1.0000
  C   C6972     1.0  0.77661  0.15313  0.74776  1.0000
  C   C6973     1.0  0.76716  0.16136  0.76033  1.0000
  C   C6974     1.0  0.76372  0.17866  0.75725  1.0000
  C   C6975     1.0  0.76967  0.18773  0.74158  1.0000
  C   C6976     1.0  0.77918  0.17953  0.72898  1.0000
  C   C6977     1.0  0.77027  0.13521  0.71992  1.0000
  C   C6978     1.0  0.76330  0.12434  0.71593  1.0000
  C   C6979     1.0  0.77144  0.11707  0.70239  1.0000
  C   C6980     1.0  0.78647  0.12079  0.69274  1.0000
  C   C6981     1.0  0.79357  0.13148  0.69679  1.0000
  C   C6982     1.0  0.80377  0.16521  0.69767  1.0000
  C   C6983     1.0  0.82077  0.16513  0.69230  1.0000
  C   C6984     1.0  0.82647  0.17677  0.67842  1.0000
  C   C6985     1.0  0.81530  0.18835  0.66959  1.0000
  C   C6986     1.0  0.79845  0.18804  0.67439  1.0000
  C   C6987     1.0  0.79269  0.17648  0.68836  1.0000
  H   H5555     1.0  0.83725  0.09882  0.72979  1.0000
  H   H5556     1.0  0.85118  0.11106  0.74354  1.0000
  H   H5557     1.0  0.84098  0.14047  0.74562  1.0000
  H   H5558     1.0  0.81684  0.15765  0.73423  1.0000
  H   H5559     1.0  0.81359  0.11576  0.71797  1.0000
  H   H5560     1.0  0.77934  0.13973  0.75040  1.0000
  H   H5561     1.0  0.76249  0.15434  0.77249  1.0000
  C   C6988     1.0  0.74286  0.19284  0.90950  1.0000
  C   C6989     1.0  0.75154  0.08492  0.75731  1.0000
  H   H5562     1.0  0.78395  0.18689  0.71712  1.0000
  H   H5563     1.0  0.76357  0.14080  0.73031  1.0000
  C   C6990     1.0  0.74598  0.10990  0.76754  1.0000
  H   H5564     1.0  0.76618  0.10853  0.69928  1.0000
  H   H5565     1.0  0.79277  0.11509  0.68225  1.0000
  H   H5566     1.0  0.80548  0.13384  0.68943  1.0000
  H   H5567     1.0  0.82973  0.15608  0.69870  1.0000
  H   H5568     1.0  0.83964  0.17668  0.67439  1.0000
  H   H5569     1.0  0.81979  0.19728  0.65874  1.0000
  H   H5570     1.0  0.78990  0.19677  0.66719  1.0000
  H   H5571     1.0  0.77958  0.17646  0.69201  1.0000
  Fe  Fe483     1.0  0.90465  0.20566  0.81258  1.0000
  C   C6991     1.0  0.87539  0.22768  0.67861  1.0000
  H   H5572     1.0  0.84550  0.16681  0.79447  1.0000
  Fe  Fe484     1.0  0.80817  0.22073  0.61196  1.0000
  C   C6992     1.0  0.78609  0.06509  0.79967  1.0000
  H   H5573     1.0  0.86218  0.18992  0.82350  1.0000
  H   H5574     1.0  0.75397  0.15017  0.92263  1.0000
  C   C6993     1.0  0.85202  0.08708  0.93869  1.0000
  C   C6994     1.0  0.83783  0.08051  0.94386  1.0000
  H   H5575     1.0  0.78016  0.98802  0.82175  1.0000
  H   H5576     1.0  0.88941  0.17088  0.81923  1.0000
  C   C6995     1.0  0.74573  0.05954  0.72191  1.0000
  H   H5577     1.0  0.90170  0.22209  0.59021  1.0000
  C   C6996     1.0  0.76362  0.05415  0.64312  1.0000
  C   C6997     1.0  0.76329  0.06508  0.62778  1.0000
  H   H5578     1.0  0.74924  0.11761  0.77356  1.0000
  H   H5579     1.0  0.81128  0.08556  0.95145  1.0000
  H   H5580     1.0  0.75193  0.98448  0.87167  1.0000
  C   C6998     1.0  0.76436  0.13967  0.92340  1.0000
  H   H5581     1.0  0.81743  0.21917  0.52652  1.0000
  H   H5582     1.0  0.81050  0.21254  0.83751  1.0000
  C   C6999     1.0  0.91607  0.15763  0.88936  1.0000
  H   H5583     1.0  0.97227  0.09809  0.69278  1.0000
  H   H5584     1.0  0.77278  0.04253  0.64405  1.0000
  H   H5585     1.0  0.77229  0.06201  0.61688  1.0000
  S   S952      1.0  0.74114  0.16773  0.60997  1.0000
  C   C7000     1.0  0.74553  0.21522  0.50900  1.0000
  H   H5586     1.0  0.74964  0.21368  0.81361  1.0000
  H   H5587     1.0  0.90919  0.10477  0.57835  1.0000
  C   C7001     1.0  0.92794  0.16539  0.64216  1.0000
  C   C7002     1.0  0.90181  0.11444  0.58481  1.0000
  H   H5588     1.0  0.88165  0.06489  0.65938  1.0000
  C   C7003     1.0  0.78479  0.05252  0.81398  1.0000
  C   C7004     1.0  0.77110  0.04517  0.81921  1.0000
  C   C7005     1.0  0.75867  0.05051  0.81022  1.0000
  C   C7006     1.0  0.75994  0.06306  0.79591  1.0000
  C   C7007     1.0  0.82348  0.17687  0.84565  1.0000
  H   H5589     1.0  0.76192  0.19438  0.55248  1.0000
  H   H5590     1.0  0.80279  0.18441  0.51224  1.0000
  H   H5591     1.0  0.82115  0.04561  0.74655  1.0000
  H   H5592     1.0  0.77016  0.03532  0.83019  1.0000
  H   H5593     1.0  0.80082  0.21757  0.75778  1.0000
  C   C7008     1.0  0.95822  0.18075  0.82919  1.0000
  C   C7009     1.0  0.97787  0.09263  0.68209  1.0000
  C   C7010     1.0  0.94197  0.20859  0.83059  1.0000
  C   C7011     1.0  0.74499  0.98786  0.79050  1.0000
  P   P234      1.0  0.80019  0.12104  0.95029  1.0000
  C   C7012     1.0  0.84478  0.22055  0.80787  1.0000
  C   C7013     1.0  0.85113  0.17119  0.94501  1.0000
  C   C7014     1.0  0.86340  0.18000  0.93552  1.0000
  C   C7015     1.0  0.86875  0.18963  0.94289  1.0000
  P   P235      1.0  0.87118  0.18048  0.91367  1.0000
  C   C7016     1.0  0.85965  0.17027  0.90656  1.0000
  C   C7017     1.0  0.86843  0.20208  0.90318  1.0000
  S   S953      1.0  0.83109  0.21855  0.62062  1.0000
  C   C7018     1.0  0.76755  0.12821  0.91360  1.0000
  C   C7019     1.0  0.80872  0.21808  0.96043  1.0000
  H   H5594     1.0  0.76386  0.15146  0.87626  1.0000
  C   C7020     1.0  0.98746  0.07935  0.71862  1.0000
  C   C7021     1.0  0.86207  0.15291  0.91078  1.0000
  C   C7022     1.0  0.85303  0.14501  0.90538  1.0000
  C   C7023     1.0  0.84143  0.15437  0.89593  1.0000
  C   C7024     1.0  0.83924  0.17160  0.89143  1.0000
  C   C7025     1.0  0.84843  0.17948  0.89659  1.0000
  C   C7026     1.0  0.89271  0.17001  0.90881  1.0000
  C   C7027     1.0  0.90294  0.16630  0.92007  1.0000
  C   C7028     1.0  0.91964  0.15841  0.91592  1.0000
  C   C7029     1.0  0.92621  0.15411  0.90057  1.0000
  H   H5595     1.0  0.92752  0.15570  0.92460  1.0000
  C   C7030     1.0  0.89939  0.16554  0.89345  1.0000
  C   C7031     1.0  0.97961  0.17221  0.78652  1.0000
  P   P236      1.0  0.77557  0.08682  0.77220  1.0000
  H   H5596     1.0  0.76121  0.10198  0.80067  1.0000
  H   H5597     1.0  0.84627  0.16414  0.93962  1.0000
  H   H5598     1.0  0.87775  0.19700  0.93568  1.0000
  H   H5599     1.0  0.89067  0.19906  0.88374  1.0000
  H   H5600     1.0  0.96584  0.15487  0.76339  1.0000
  C   C7032     1.0  0.96977  0.13989  0.70317  1.0000
  C   C7033     1.0  0.80169  0.06365  0.75791  1.0000
  C   C7034     1.0  0.86434  0.18095  0.81605  1.0000
  H   H5601     1.0  0.87093  0.14555  0.91822  1.0000
  H   H5602     1.0  0.85501  0.13164  0.90841  1.0000
  H   H5603     1.0  0.83420  0.14829  0.89201  1.0000
  H   H5604     1.0  0.83037  0.17893  0.88395  1.0000
  H   H5605     1.0  0.84680  0.19277  0.89271  1.0000
  H   H5606     1.0  0.89816  0.16948  0.93202  1.0000
  H   H5607     1.0  0.84507  0.20957  0.91982  1.0000
  H   H5608     1.0  0.79438  0.04849  0.82100  1.0000
  H   H5609     1.0  0.80539  0.09140  0.71367  1.0000
  H   H5610     1.0  0.74084  0.08307  0.81867  1.0000
  C   C7035     1.0  0.82576  0.09620  0.61191  1.0000
  C   C7036     1.0  0.83750  0.10315  0.59906  1.0000
  C   C7037     1.0  0.84874  0.11004  0.60251  1.0000
  C   C7038     1.0  0.84864  0.10948  0.61896  1.0000
  P   P237      1.0  0.86220  0.11913  0.62383  1.0000
  C   C7039     1.0  0.87887  0.12370  0.60642  1.0000
  C   C7040     1.0  0.84859  0.13734  0.63031  1.0000
  C   C7041     1.0  0.84259  0.15094  0.61854  1.0000
  C   C7042     1.0  0.83088  0.16453  0.62348  1.0000
  C   C7043     1.0  0.82468  0.16445  0.64023  1.0000
  C   C7044     1.0  0.83040  0.15082  0.65208  1.0000
  C   C7045     1.0  0.84234  0.13732  0.64715  1.0000
  C   C7046     1.0  0.88310  0.13921  0.60183  1.0000
  C   C7047     1.0  0.89637  0.14243  0.58864  1.0000
  C   C7048     1.0  0.95565  0.14129  0.65007  1.0000
  C   C7049     1.0  0.76127  0.01663  0.73968  1.0000
  C   C7050     1.0  0.88855  0.11121  0.59804  1.0000
  C   C7051     1.0  0.87236  0.10558  0.63985  1.0000
  C   C7052     1.0  0.87308  0.08844  0.64388  1.0000
  C   C7053     1.0  0.88972  0.08459  0.66366  1.0000
  C   C7054     1.0  0.88907  0.10161  0.65969  1.0000
  C   C7055     1.0  0.88049  0.11208  0.64776  1.0000
  H   H5611     1.0  0.83770  0.10337  0.58642  1.0000
  H   H5612     1.0  0.85733  0.11587  0.59235  1.0000
  H   H5613     1.0  0.84699  0.15111  0.60553  1.0000
  H   H5614     1.0  0.82661  0.17513  0.61429  1.0000
  H   H5615     1.0  0.81543  0.17496  0.64391  1.0000
  H   H5616     1.0  0.82566  0.15061  0.66510  1.0000
  H   H5617     1.0  0.84649  0.12684  0.65652  1.0000
  H   H5618     1.0  0.87629  0.14885  0.60844  1.0000
  H   H5619     1.0  0.89941  0.15453  0.58520  1.0000
  H   H5620     1.0  0.81083  0.13142  0.59571  1.0000
  H   H5621     1.0  0.91094  0.21954  0.69403  1.0000
  C   C7056     1.0  0.78122  0.19034  0.53118  1.0000
  H   H5622     1.0  0.89601  0.07653  0.67319  1.0000
  H   H5623     1.0  0.89488  0.10675  0.66614  1.0000
  H   H5624     1.0  0.88004  0.12528  0.64488  1.0000
  C   C7057     1.0  0.76903  0.19078  0.85861  1.0000
  H   H5625     1.0  0.79226  0.13567  0.79385  1.0000
  H   H5626     1.0  0.75158  0.12152  0.72336  1.0000
  Fe  Fe485     1.0  0.79545  0.22367  0.92280  1.0000
  H   H5627     1.0  0.82550  0.22842  0.93890  1.0000
  C   C7058     1.0  0.79138  0.11271  0.92519  1.0000
  C   C7059     1.0  0.88281  0.15786  0.80485  1.0000
  C   C7060     1.0  0.97286  0.16379  0.80237  1.0000
  H   H5628     1.0  0.95221  0.14153  0.79117  1.0000
  H   H5629     1.0  0.94173  0.18419  0.60676  1.0000
  H   H5630     1.0  0.94175  0.18310  0.70398  1.0000
  H   H5631     1.0  0.96194  0.20681  0.73885  1.0000
  C   C7061     1.0  0.82939  0.20608  0.69968  1.0000
  C   C7062     1.0  0.82760  0.19240  0.71276  1.0000
  C   C7063     1.0  0.83653  0.18858  0.72507  1.0000
  C   C7064     1.0  0.84723  0.19849  0.72437  1.0000
  C   C7065     1.0  0.76372  0.17606  0.86122  1.0000
  C   C7066     1.0  0.80787  0.16826  0.93618  1.0000
  C   C7067     1.0  0.84560  0.21680  0.86270  1.0000
  H   H5632     1.0  0.80813  0.18428  0.95125  1.0000
  S   S954      1.0  0.75291  0.03457  0.78031  1.0000
  C   C7068     1.0  0.78108  0.11477  0.91446  1.0000
  C   C7069     1.0  0.83243  0.21197  0.81759  1.0000
  H   H5633     1.0  0.82251  0.20907  0.69009  1.0000
  H   H5634     1.0  0.81929  0.18477  0.71339  1.0000
  H   H5635     1.0  0.83525  0.17791  0.73517  1.0000
  H   H5636     1.0  0.85385  0.19546  0.73417  1.0000
  C   C7070     1.0  0.81484  0.11491  0.56110  1.0000
  C   C7071     1.0  0.83125  0.10932  0.55328  1.0000
  C   C7072     1.0  0.84278  0.11921  0.54971  1.0000
  C   C7073     1.0  0.83795  0.13463  0.55410  1.0000
  C   C7074     1.0  0.82156  0.14013  0.56231  1.0000
  C   C7075     1.0  0.80997  0.13033  0.56540  1.0000
  P   P238      1.0  0.81460  0.16021  0.56756  1.0000
  C   C7076     1.0  0.83135  0.17032  0.56439  1.0000
  C   C7077     1.0  0.80128  0.17233  0.55368  1.0000
  C   C7078     1.0  0.80774  0.17408  0.53659  1.0000
  C   C7079     1.0  0.79136  0.07957  0.75539  1.0000
  H   H5637     1.0  0.89494  0.14965  0.80279  1.0000
  C   C7080     1.0  0.77474  0.18871  0.54812  1.0000
  C   C7081     1.0  0.78467  0.17970  0.55943  1.0000
  C   C7082     1.0  0.83016  0.18707  0.55618  1.0000
  C   C7083     1.0  0.84258  0.19519  0.55498  1.0000
  C   C7084     1.0  0.85607  0.18678  0.56223  1.0000
  C   C7085     1.0  0.85726  0.17018  0.57052  1.0000
  C   C7086     1.0  0.84493  0.16198  0.57165  1.0000
  C   C7087     1.0  0.80514  0.15836  0.58931  1.0000
  C   C7088     1.0  0.79891  0.17266  0.59584  1.0000
  C   C7089     1.0  0.79366  0.17128  0.61293  1.0000
  C   C7090     1.0  0.79465  0.15567  0.62361  1.0000
  C   C7091     1.0  0.80073  0.14141  0.61722  1.0000
  C   C7092     1.0  0.80596  0.14271  0.60018  1.0000
  H   H5638     1.0  0.80579  0.10738  0.56380  1.0000
  H   H5639     1.0  0.83498  0.09739  0.54988  1.0000
  H   H5640     1.0  0.85544  0.11498  0.54340  1.0000
  H   H5641     1.0  0.84695  0.14225  0.55083  1.0000
  H   H5642     1.0  0.79712  0.13461  0.57123  1.0000
  H   H5643     1.0  0.82054  0.16844  0.53195  1.0000
  C   C7093     1.0  0.93003  0.18490  0.84564  1.0000
  C   C7094     1.0  0.90568  0.13008  0.58007  1.0000
  C   C7095     1.0  0.97829  0.09335  0.74137  1.0000
  H   H5644     1.0  0.77926  0.17843  0.57252  1.0000
  H   H5645     1.0  0.81941  0.19411  0.55122  1.0000
  H   H5646     1.0  0.84138  0.20822  0.54900  1.0000
  C   C7096     1.0  0.80658  0.17225  0.95114  1.0000
  H   H5647     1.0  0.86747  0.16392  0.57656  1.0000
  H   H5648     1.0  0.84575  0.14927  0.57854  1.0000
  H   H5649     1.0  0.79846  0.18488  0.58779  1.0000
  H   H5650     1.0  0.78922  0.18231  0.61794  1.0000
  H   H5651     1.0  0.79092  0.15462  0.63683  1.0000
  H   H5652     1.0  0.80146  0.12929  0.62549  1.0000
  H   H5653     1.0  0.74840  0.98868  0.76475  1.0000
  C   C7097     1.0  0.98841  0.11801  0.85817  1.0000
  H   H5654     1.0  0.91943  0.18093  0.66845  1.0000
  H   H5655     1.0  0.80001  0.00683  0.66786  1.0000
  H   H5656     1.0  0.76944  0.06198  0.70593  1.0000
  H   H5657     1.0  0.90239  0.22856  0.73984  1.0000
  H   H5658     1.0  0.82368  0.06349  0.71848  1.0000
  H   H5659     1.0  0.77366  0.22212  0.57397  1.0000
  H   H5660     1.0  0.87176  0.21031  0.61175  1.0000
  H   H5661     1.0  0.76035  0.16732  0.63946  1.0000
  C   C7098     1.0  0.93023  0.20246  0.62176  1.0000
  H   H5662     1.0  0.85398  0.21577  0.79790  1.0000
  H   H5663     1.0  0.90590  0.19295  0.69251  1.0000
  C   C7099     1.0  0.87976  0.16991  0.81395  1.0000
  H   H5664     1.0  0.75233  0.21907  0.49652  1.0000
  C   C7100     1.0  0.80304  0.16082  0.96599  1.0000
  H   H5665     1.0  0.96319  0.20338  0.60460  1.0000
  H   H5666     1.0  0.78479  0.10176  0.73709  1.0000
  H   H5667     1.0  0.93917  0.14811  0.89733  1.0000
  H   H5668     1.0  0.92114  0.15434  0.87743  1.0000
  C   C7101     1.0  0.86210  0.19029  0.95949  1.0000
  H   H5669     1.0  0.75435  0.18446  0.96266  1.0000
  H   H5670     1.0  0.75891  0.22471  0.95305  1.0000
  H   H5671     1.0  0.80920  0.12679  0.76816  1.0000
  H   H5672     1.0  0.91690  0.17455  0.63958  1.0000
  H   H5673     1.0  0.93248  0.15185  0.68207  1.0000
  P   P239      1.0  0.94233  0.19212  0.63729  1.0000
  H   H5674     1.0  0.80059  0.05540  0.76997  1.0000
  C   C7102     1.0  0.96699  0.15511  0.69200  1.0000
  C   C7103     1.0  0.93274  0.20046  0.65553  1.0000
  H   H5675     1.0  0.80668  0.15002  0.92427  1.0000
  C   C7104     1.0  0.94717  0.17992  0.72763  1.0000
  C   C7105     1.0  0.73936  0.20080  0.51318  1.0000
  H   H5676     1.0  0.95069  0.20959  0.69226  1.0000
  C   C7106     1.0  0.81149  0.17016  0.82671  1.0000
  H   H5677     1.0  0.89175  0.16840  0.88449  1.0000
  C   C7107     1.0  0.95665  0.19797  0.82462  1.0000
  S   S955      1.0  0.78424  0.21482  0.62834  1.0000
  C   C7108     1.0  0.84905  0.21230  0.71132  1.0000
  H   H5678     1.0  0.91705  0.21028  0.84529  1.0000
  C   C7109     1.0  0.96751  0.09178  0.67260  1.0000
  C   C7110     1.0  0.81579  0.99328  0.63205  1.0000
  H   H5679     1.0  0.78377  0.98546  0.67333  1.0000
  C   C7111     1.0  0.96023  0.14972  0.78995  1.0000
  C   C7112     1.0  0.97025  0.20084  0.61394  1.0000
  C   C7113     1.0  0.91426  0.19927  0.68256  1.0000
  C   C7114     1.0  0.82052  0.10804  0.94502  1.0000
  C   C7115     1.0  0.90102  0.19492  0.72737  1.0000
  C   C7116     1.0  0.82216  0.09090  0.94714  1.0000
  H   H5680     1.0  0.83141  0.21123  0.75338  1.0000
  H   H5681     1.0  0.74418  0.19183  0.72139  1.0000
  C   C7117     1.0  0.87994  0.20758  0.88893  1.0000
  C   C7118     1.0  0.74676  0.15700  0.68126  1.0000
  S   S956      1.0  0.75247  0.17412  0.84787  1.0000
  H   H5682     1.0  0.90768  0.18225  0.72718  1.0000
  C   C7119     1.0  0.82299  0.22422  0.95218  1.0000
  C   C7120     1.0  0.85435  0.21356  0.90911  1.0000
  C   C7121     1.0  0.87791  0.21768  0.72148  1.0000
  H   H5683     1.0  0.76754  0.11172  0.96262  1.0000
  P   P240      1.0  0.83151  0.19319  0.81288  1.0000
  H   H5684     1.0  0.91725  0.19948  0.73985  1.0000
  H   H5685     1.0  0.95105  0.17121  0.67615  1.0000
  H   H5686     1.0  0.96772  0.18801  0.65551  1.0000
  C   C7122     1.0  0.94280  0.14848  0.68806  1.0000
  H   H5687     1.0  0.98698  0.06952  0.71333  1.0000
  C   C7123     1.0  0.80804  0.15511  0.85516  1.0000
  H   H5688     1.0  0.96617  0.13197  0.65369  1.0000
  H   H5689     1.0  0.79676  0.07070  0.79577  1.0000
  H   H5690     1.0  0.87992  0.21119  0.63678  1.0000
  H   H5691     1.0  0.83405  0.12761  0.93851  1.0000
  Fe  Fe486     1.0  0.91691  0.19372  0.78029  1.0000
  H   H5692     1.0  0.81021  0.17725  0.92466  1.0000
  H   H5693     1.0  0.92371  0.19685  0.58667  1.0000
  C   C7124     1.0  0.95339  0.15940  0.68460  1.0000
  H   H5694     1.0  0.78283  0.04038  0.75657  1.0000
  H   H5695     1.0  0.76613  0.20095  0.84848  1.0000
  H   H5696     1.0  0.78343  0.10589  0.90686  1.0000
  C   C7125     1.0  0.80075  0.14537  0.96595  1.0000
  H   H5697     1.0  0.80965  0.17168  0.81445  1.0000
  H   H5698     1.0  0.94375  0.22197  0.64623  1.0000
  H   H5699     1.0  0.95420  0.09619  0.67635  1.0000
  C   C7126     1.0  0.74741  0.22138  0.82234  1.0000
  C   C7127     1.0  0.92226  0.20257  0.59683  1.0000
  C   C7128     1.0  0.94594  0.13296  0.69869  1.0000
  C   C7129     1.0  0.77459  0.10672  0.97218  1.0000
  C   C7130     1.0  0.95716  0.21025  0.71453  1.0000
  C   C7131     1.0  0.98048  0.14775  0.83530  1.0000
  H   H5700     1.0  0.77141  0.14640  0.94208  1.0000
  H   H5701     1.0  0.97027  0.07183  0.74129  1.0000
  H   H5702     1.0  0.75918  0.07287  0.75562  1.0000
  C   C7132     1.0  0.85187  0.23025  0.90098  1.0000
  P   P241      1.0  0.97676  0.16711  0.82055  1.0000
  H   H5703     1.0  0.74800  0.04492  0.81417  1.0000
  C   C7133     1.0  0.97802  0.08058  0.73447  1.0000
  H   H5704     1.0  0.80303  0.14569  0.86502  1.0000
  C   C7134     1.0  0.85500  0.16789  0.79987  1.0000
  C   C7135     1.0  0.80664  0.21280  0.76829  1.0000
  C   C7136     1.0  0.87315  0.21091  0.84528  1.0000
  C   C7137     1.0  0.94630  0.18830  0.71144  1.0000
  C   C7138     1.0  0.95136  0.20334  0.70487  1.0000
  H   H5705     1.0  0.77343  0.19727  0.52256  1.0000
  H   H5706     1.0  0.86417  0.07899  0.93625  1.0000
  C   C7139     1.0  0.96331  0.19524  0.63068  1.0000
  H   H5707     1.0  0.98251  0.17543  0.76032  1.0000
  H   H5708     1.0  0.86534  0.19327  0.56191  1.0000
  C   C7140     1.0  0.91710  0.21422  0.68333  1.0000
  C   C7141     1.0  0.95783  0.20181  0.73087  1.0000
  H   H5709     1.0  0.86158  0.10908  0.93305  1.0000
  C   C7142     1.0  0.87033  0.15666  0.79808  1.0000
  C   C7143     1.0  0.90656  0.20467  0.73431  1.0000
  H   H5710     1.0  0.75260  0.04951  0.66903  1.0000
  H   H5711     1.0  0.97313  0.15928  0.85629  1.0000
  H   H5712     1.0  0.87277  0.14738  0.79089  1.0000
  H   H5713     1.0  0.87381  0.21512  0.68091  1.0000
  C   C7144     1.0  0.92864  0.20205  0.84110  1.0000
  S   S957      1.0  0.79370  0.21804  0.95026  1.0000
  H   H5714     1.0  0.88234  0.19346  0.71611  1.0000
  C   C7145     1.0  0.80446  0.20443  0.79788  1.0000
  C   C7146     1.0  0.75636  0.09455  0.76513  1.0000
  S   S958      1.0  0.77499  0.21621  0.91730  1.0000
  C   C7147     1.0  0.78815  0.12415  0.93517  1.0000
  H   H5715     1.0  0.98004  0.13670  0.70916  1.0000
  C   C7148     1.0  0.95943  0.12872  0.70630  1.0000
  C   C7149     1.0  0.92779  0.22231  0.67019  1.0000
  C   C7150     1.0  0.95277  0.18680  0.73735  1.0000
  C   C7151     1.0  0.80576  0.15279  0.93603  1.0000
  S   S959      1.0  0.92466  0.21740  0.76582  1.0000
  H   H5716     1.0  0.83085  0.18385  0.84820  1.0000
  H   H5717     1.0  0.96725  0.16145  0.64625  1.0000
  C   C7152     1.0  0.81717  0.16457  0.85828  1.0000
  H   H5718     1.0  0.74323  0.06389  0.85510  1.0000
  H   H5719     1.0  0.75009  0.06690  0.78923  1.0000
  C   C7153     1.0  0.83151  0.20306  0.77930  1.0000
  C   C7154     1.0  0.89809  0.22102  0.73445  1.0000
  C   C7155     1.0  0.88655  0.20128  0.72125  1.0000
  H   H5720     1.0  0.94531  0.16106  0.84270  1.0000
  C   C7156     1.0  0.75190  0.16614  0.65145  1.0000
  H   H5721     1.0  0.79674  0.20303  0.81027  1.0000
  C   C7157     1.0  0.93245  0.19545  0.60822  1.0000
  H   H5722     1.0  0.84465  0.23031  0.95501  1.0000
  Fe  Fe487     1.0  0.93525  0.21553  0.78758  1.0000
  H   H5723     1.0  0.82452  0.99563  0.62039  1.0000
  H   H5724     1.0  0.79751  0.15102  0.83720  1.0000
  H   H5725     1.0  0.75620  0.18512  0.76691  1.0000
  C   C7158     1.0  0.82391  0.20919  0.76580  1.0000
  H   H5726     1.0  0.81907  0.16255  0.87059  1.0000
  C   C7159     1.0  0.80497  0.15808  0.83946  1.0000
  H   H5727     1.0  0.76679  0.20117  0.73925  1.0000
  C   C7160     1.0  0.93562  0.21546  0.65636  1.0000
  C   C7161     1.0  0.98767  0.13283  0.82997  1.0000
  C   C7162     1.0  0.74309  0.22441  0.52094  1.0000
  C   C7163     1.0  0.83996  0.21610  0.69902  1.0000
  H   H5728     1.0  0.96173  0.11685  0.71474  1.0000
  S   S960      1.0  0.74602  0.12837  0.86915  1.0000
  C   C7164     1.0  0.87293  0.22789  0.84048  1.0000
  S   S961      1.0  0.74545  0.16580  0.57146  1.0000
  C   C7165     1.0  0.75783  0.15844  0.66586  1.0000
  C   C7166     1.0  0.79446  0.10969  0.76948  1.0000
  S   S962      1.0  0.96265  0.21545  0.78184  1.0000
  C   C7167     1.0  0.97723  0.16887  0.77251  1.0000
  H   H5729     1.0  0.76828  0.12309  0.81010  1.0000
  C   C7168     1.0  0.75224  0.05823  0.65728  1.0000
  C   C7169     1.0  0.74058  0.07340  0.65621  1.0000
  C   C7170     1.0  0.79278  0.98750  0.66182  1.0000
  H   H5730     1.0  0.80214  0.10586  0.75836  1.0000
  H   H5731     1.0  0.88613  0.22844  0.86970  1.0000
  H   H5732     1.0  0.96620  0.08493  0.65093  1.0000
  C   C7171     1.0  0.77148  0.10760  0.79321  1.0000
  H   H5733     1.0  0.75050  0.05530  0.73308  1.0000
  C   C7172     1.0  0.87747  0.22432  0.88092  1.0000
  C   C7173     1.0  0.96274  0.15288  0.80399  1.0000
  C   C7174     1.0  0.75032  0.06876  0.69217  1.0000
  H   H5734     1.0  0.96664  0.20322  0.81613  1.0000
  H   H5735     1.0  0.74073  0.17223  0.90126  1.0000
  H   H5736     1.0  0.78350  0.21334  0.78632  1.0000
  C   C7175     1.0  0.75141  0.07998  0.62653  1.0000
  H   H5737     1.0  0.91568  0.22253  0.63388  1.0000
  H   H5738     1.0  0.78815  0.22554  0.59315  1.0000
  H   H5739     1.0  0.86592  0.19808  0.96504  1.0000
  H   H5740     1.0  0.74866  0.99950  0.78831  1.0000
  S   S963      1.0  0.91190  0.23023  0.80117  1.0000
  H   H5741     1.0  0.75152  0.15114  0.69230  1.0000
  C   C7176     1.0  0.79152  0.22529  0.53782  1.0000
  C   C7177     1.0  0.78903  0.12654  0.78953  1.0000
  C   C7178     1.0  0.75751  0.00650  0.82531  1.0000
  C   C7179     1.0  0.75123  0.19313  0.97065  1.0000
  C   C7180     1.0  0.75641  0.06331  0.70661  1.0000
  H   H5742     1.0  0.97082  0.09452  0.75353  1.0000
  C   C7181     1.0  0.90778  0.22405  0.61204  1.0000
  C   C7182     1.0  0.74144  0.00480  0.85355  1.0000
  C   C7183     1.0  0.74360  0.01251  0.83673  1.0000
  H   H5743     1.0  0.74052  0.00805  0.89316  1.0000
  C   C7184     1.0  0.98811  0.10477  0.73249  1.0000
  H   H5744     1.0  0.83483  0.16539  0.96884  1.0000
  C   C7185     1.0  0.97789  0.14775  0.85208  1.0000
  C   C7186     1.0  0.97428  0.08554  0.65828  1.0000
  H   H5745     1.0  0.79379  0.22290  0.55007  1.0000
  C   C7187     1.0  0.73997  0.08405  0.64065  1.0000
  C   C7188     1.0  0.75340  0.99089  0.85883  1.0000
  H   H5746     1.0  0.75123  0.08852  0.61465  1.0000
  H   H5747     1.0  0.98123  0.20751  0.68432  1.0000
  H   H5748     1.0  0.73888  0.20059  0.61476  1.0000
  C   C7189     1.0  0.97358  0.22562  0.78904  1.0000
  H   H5749     1.0  0.98667  0.19121  0.83266  1.0000
  C   C7190     1.0  0.74022  0.21009  0.90653  1.0000
  C   C7191     1.0  0.88411  0.22764  0.72762  1.0000
  C   C7192     1.0  0.84994  0.18149  0.96883  1.0000
  H   H5750     1.0  0.81255  0.22426  0.49835  1.0000
  H   H5751     1.0  0.98655  0.18153  0.78486  1.0000
  Fe  Fe488     1.0  0.90086  0.23009  0.78042  1.0000
  C   C7193     1.0  0.80215  0.22608  0.50865  1.0000
  H   H5752     1.0  0.88738  0.22804  0.65317  1.0000
  C   C7194     1.0  0.98199  0.22923  0.69197  1.0000
  H   H5753     1.0  0.98698  0.22348  0.72610  1.0000
  C   C7195     1.0  0.98171  0.13290  0.86349  1.0000
  H   H5754     1.0  0.97974  0.13299  0.87641  1.0000
  P   P242      1.0  0.86051  0.22672  0.71176  1.0000
  H   H5755     1.0  0.84970  0.98574  0.65039  1.0000
  H   H5756     1.0  0.84861  0.98712  0.67890  1.0000
  C   C7196     1.0  0.98798  0.21697  0.68260  1.0000
  C   C7197     1.0  0.98647  0.20335  0.60913  1.0000
  H   H5757     1.0  0.98827  0.11472  0.73783  1.0000
  C   C7198     1.0  0.77535  0.23101  0.53528  1.0000
  S   S964      1.0  0.84831  0.23106  0.58100  1.0000
  C   C7199     1.0  0.74497  0.98163  0.77718  1.0000
  P   P243      1.0  0.88744  0.26279  0.01497  1.0000
  H   H5758     1.0  0.78768  0.35267  0.27300  1.0000
  C   C7200     1.0  0.83495  0.23647  0.13987  1.0000
  H   H5759     1.0  0.87699  0.29076  0.98839  1.0000
  C   C7201     1.0  0.77254  0.29613  0.30626  1.0000
  C   C7202     1.0  0.75322  0.32297  0.45460  1.0000
  C   C7203     1.0  0.89241  0.23886  0.99661  1.0000
  H   H5760     1.0  0.75007  0.24448  0.20855  1.0000
  C   C7204     1.0  0.75252  0.38476  0.23967  1.0000
  H   H5761     1.0  0.76281  0.26702  0.12321  1.0000
  H   H5762     1.0  0.73903  0.23534  0.27002  1.0000
  C   C7205     1.0  0.78756  0.25699  0.36346  1.0000
  C   C7206     1.0  0.82793  0.24784  0.11311  1.0000
  C   C7207     1.0  0.96353  0.26684  0.12716  1.0000
  C   C7208     1.0  0.85406  0.27477  0.01382  1.0000
  H   H5763     1.0  0.75828  0.32499  0.32931  1.0000
  C   C7209     1.0  0.94981  0.23987  0.22224  1.0000
  C   C7210     1.0  0.81018  0.24951  0.33475  1.0000
  Fe  Fe489     1.0  0.80539  0.25003  0.03474  1.0000
  H   H5764     1.0  0.78934  0.33205  0.37445  1.0000
  S   S965      1.0  0.79302  0.27689  0.02784  1.0000
  H   H5765     1.0  0.77142  0.32603  0.43169  1.0000
  C   C7211     1.0  0.78059  0.40363  0.29194  1.0000
  H   H5766     1.0  0.75547  0.37807  0.31666  1.0000
  C   C7212     1.0  0.75999  0.34121  0.11634  1.0000
  S   S966      1.0  0.90088  0.27010  0.12297  1.0000
  S   S967      1.0  0.87748  0.24686  0.16687  1.0000
  Fe  Fe490     1.0  0.76355  0.33031  0.20667  1.0000
  S   S968      1.0  0.75871  0.31051  0.22946  1.0000
  S   S969      1.0  0.74680  0.35568  0.20550  1.0000
  Fe  Fe491     1.0  0.79363  0.30755  0.18993  1.0000
  S   S970      1.0  0.79111  0.28595  0.21127  1.0000
  S   S971      1.0  0.81475  0.30696  0.16754  1.0000
  Fe  Fe492     1.0  0.76383  0.29398  0.21181  1.0000
  S   S972      1.0  0.74886  0.27450  0.21750  1.0000
  Fe  Fe493     1.0  0.78619  0.30451  0.22677  1.0000
  S   S973      1.0  0.79836  0.29908  0.24803  1.0000
  S   S974      1.0  0.76659  0.31423  0.18899  1.0000
  S   S975      1.0  0.79069  0.32563  0.20538  1.0000
  H   H5767     1.0  0.85408  0.25027  0.28114  1.0000
  H   H5768     1.0  0.82153  0.24799  0.10390  1.0000
  S   S976      1.0  0.76121  0.31755  0.08395  1.0000
  H   H5769     1.0  0.92224  0.23520  0.20048  1.0000
  C   C7213     1.0  0.75391  0.27187  0.46207  1.0000
  S   S977      1.0  0.88274  0.26707  0.08617  1.0000
  H   H5770     1.0  0.75813  0.47430  0.25656  1.0000
  C   C7214     1.0  0.75255  0.31493  0.42980  1.0000
  C   C7215     1.0  0.76357  0.36269  0.22455  1.0000
  C   C7216     1.0  0.76546  0.37194  0.23467  1.0000
  C   C7217     1.0  0.84598  0.24701  0.13574  1.0000
  C   C7218     1.0  0.77266  0.30014  0.28946  1.0000
  C   C7219     1.0  0.76604  0.38937  0.45399  1.0000
  C   C7220     1.0  0.73994  0.28430  0.18751  1.0000
  H   H5771     1.0  0.88383  0.26431  0.18729  1.0000
  C   C7221     1.0  0.80225  0.31957  0.30171  1.0000
  C   C7222     1.0  0.80533  0.24345  0.26768  1.0000
  C   C7223     1.0  0.79050  0.26927  0.25336  1.0000
  C   C7224     1.0  0.80025  0.27792  0.25674  1.0000
  C   C7225     1.0  0.81208  0.26945  0.26622  1.0000
  H   H5772     1.0  0.82405  0.24556  0.27863  1.0000
  H   H5773     1.0  0.78099  0.27583  0.24649  1.0000
  H   H5774     1.0  0.81961  0.27614  0.26888  1.0000
  C   C7226     1.0  0.95723  0.26561  0.14415  1.0000
  C   C7227     1.0  0.77118  0.25601  0.11953  1.0000
  H   H5775     1.0  0.94458  0.26427  0.14944  1.0000
  C   C7228     1.0  0.87518  0.23406  0.02418  1.0000
  C   C7229     1.0  0.86023  0.26373  0.16733  1.0000
  C   C7230     1.0  0.84708  0.26360  0.18124  1.0000
  C   C7231     1.0  0.83321  0.27696  0.18174  1.0000
  C   C7232     1.0  0.83236  0.29046  0.16822  1.0000
  C   C7233     1.0  0.84565  0.29060  0.15447  1.0000
  C   C7234     1.0  0.85943  0.27728  0.15394  1.0000
  H   H5776     1.0  0.84751  0.25309  0.19155  1.0000
  H   H5777     1.0  0.82318  0.27671  0.19248  1.0000
  H   H5778     1.0  0.84515  0.30097  0.14406  1.0000
  H   H5779     1.0  0.86937  0.27755  0.14312  1.0000
  C   C7235     1.0  0.78388  0.28757  0.04389  1.0000
  C   C7236     1.0  0.78387  0.30443  0.04051  1.0000
  C   C7237     1.0  0.77685  0.31344  0.05292  1.0000
  C   C7238     1.0  0.76924  0.30582  0.06867  1.0000
  C   C7239     1.0  0.76890  0.28900  0.07205  1.0000
  C   C7240     1.0  0.77649  0.27976  0.05972  1.0000
  H   H5780     1.0  0.78948  0.31052  0.02829  1.0000
  H   H5781     1.0  0.77717  0.32641  0.05029  1.0000
  C   C7241     1.0  0.84780  0.25807  0.12044  1.0000
  H   H5782     1.0  0.77639  0.26674  0.06237  1.0000
  H   H5783     1.0  0.78614  0.25250  0.13684  1.0000
  C   C7242     1.0  0.86269  0.26000  0.07023  1.0000
  C   C7243     1.0  0.81461  0.25216  0.27173  1.0000
  H   H5784     1.0  0.85933  0.27326  0.06581  1.0000
  H   H5785     1.0  0.75464  0.27854  0.44934  1.0000
  C   C7244     1.0  0.79022  0.26972  0.34952  1.0000
  C   C7245     1.0  0.80156  0.26596  0.33514  1.0000
  H   H5786     1.0  0.80376  0.27574  0.32435  1.0000
  H   H5787     1.0  0.92274  0.25864  0.99967  1.0000
  Fe  Fe494     1.0  0.89837  0.25605  0.10558  1.0000
  H   H5788     1.0  0.74621  0.28487  0.25923  1.0000
  C   C7246     1.0  0.74889  0.36651  0.21902  1.0000
  S   S978      1.0  0.92562  0.24497  0.10039  1.0000
  H   H5789     1.0  0.98439  0.24289  0.09884  1.0000
  C   C7247     1.0  0.78244  0.34279  0.32968  1.0000
  H   H5790     1.0  0.82137  0.30673  0.26578  1.0000
  H   H5791     1.0  0.78350  0.30341  0.28052  1.0000
  H   H5792     1.0  0.92316  0.25138  0.06507  1.0000
  H   H5793     1.0  0.80484  0.39582  0.27723  1.0000
  H   H5794     1.0  0.77903  0.25975  0.37464  1.0000
  Fe  Fe495     1.0  0.74083  0.30981  0.10513  1.0000
  C   C7248     1.0  0.80498  0.33047  0.26759  1.0000
  H   H5795     1.0  0.77947  0.32765  0.10048  1.0000
  C   C7249     1.0  0.79854  0.33716  0.33260  1.0000
  C   C7250     1.0  0.89267  0.26649  0.19279  1.0000
  H   H5796     1.0  0.81900  0.24666  0.32370  1.0000
  C   C7251     1.0  0.79313  0.25205  0.25870  1.0000
  H   H5797     1.0  0.89612  0.23344  0.04165  1.0000
  H   H5798     1.0  0.81891  0.29699  0.29609  1.0000
  C   C7252     1.0  0.87400  0.25351  0.08066  1.0000
  C   C7253     1.0  0.91607  0.26885  0.99171  1.0000
  C   C7254     1.0  0.81250  0.30937  0.29106  1.0000
  C   C7255     1.0  0.97128  0.25091  0.20059  1.0000
  H   H5799     1.0  0.84505  0.30304  0.04466  1.0000
  C   C7256     1.0  0.76150  0.26279  0.00934  1.0000
  H   H5800     1.0  0.75838  0.25651  0.10118  1.0000
  H   H5801     1.0  0.74239  0.34703  0.41557  1.0000
  H   H5802     1.0  0.82812  0.28353  0.01320  1.0000
  H   H5803     1.0  0.85295  0.24691  0.14448  1.0000
  C   C7257     1.0  0.77322  0.24882  0.32429  1.0000
  H   H5804     1.0  0.93292  0.26983  0.18306  1.0000
  H   H5805     1.0  0.76277  0.39719  0.17286  1.0000
  C   C7258     1.0  0.85528  0.24950  0.06600  1.0000
  H   H5806     1.0  0.74176  0.35248  0.13515  1.0000
  C   C7259     1.0  0.80100  0.33316  0.34872  1.0000
  C   C7260     1.0  0.76680  0.39853  0.30317  1.0000
  H   H5807     1.0  0.88265  0.23836  0.21060  1.0000
  C   C7261     1.0  0.76627  0.46950  0.22373  1.0000
  C   C7262     1.0  0.75637  0.45840  0.23385  1.0000
  C   C7263     1.0  0.76230  0.44131  0.23540  1.0000
  C   C7264     1.0  0.77818  0.43509  0.22689  1.0000
  C   C7265     1.0  0.78819  0.44600  0.21682  1.0000
  C   C7266     1.0  0.78228  0.46315  0.21523  1.0000
  H   H5808     1.0  0.76357  0.42249  0.15032  1.0000
  C   C7267     1.0  0.85759  0.26023  0.27095  1.0000
  C   C7268     1.0  0.75186  0.41895  0.15652  1.0000
  C   C7269     1.0  0.95939  0.25187  0.21529  1.0000
  S   S979      1.0  0.74197  0.31581  0.37790  1.0000
  H   H5809     1.0  0.83586  0.29258  0.23387  1.0000
  C   C7270     1.0  0.75920  0.34592  0.30836  1.0000
  C   C7271     1.0  0.86355  0.28571  0.03164  1.0000
  C   C7272     1.0  0.90581  0.27136  0.03199  1.0000
  C   C7273     1.0  0.77964  0.23614  0.10213  1.0000
  C   C7274     1.0  0.75882  0.37567  0.46133  1.0000
  H   H5810     1.0  0.94066  0.24090  0.23358  1.0000
  H   H5811     1.0  0.79024  0.47136  0.20743  1.0000
  C   C7275     1.0  0.96729  0.26634  0.15424  1.0000
  C   C7276     1.0  0.89036  0.28683  0.98543  1.0000
  H   H5812     1.0  0.78268  0.42178  0.22821  1.0000
  H   H5813     1.0  0.80055  0.44113  0.21029  1.0000
  C   C7277     1.0  0.77677  0.23396  0.31916  1.0000
  H   H5814     1.0  0.80921  0.33582  0.32247  1.0000
  C   C7278     1.0  0.78438  0.24771  0.12728  1.0000
  C   C7279     1.0  0.86954  0.23890  0.21534  1.0000
  C   C7280     1.0  0.86689  0.27525  0.02067  1.0000
  H   H5815     1.0  0.75939  0.27138  0.01722  1.0000
  C   C7281     1.0  0.83808  0.28427  0.01821  1.0000
  S   S980      1.0  0.75571  0.39660  0.25161  1.0000
  C   C7282     1.0  0.78745  0.33528  0.36195  1.0000
  C   C7283     1.0  0.89903  0.25877  0.03077  1.0000
  H   H5816     1.0  0.75792  0.31404  0.41708  1.0000
  H   H5817     1.0  0.78588  0.26687  0.99682  1.0000
  C   C7284     1.0  0.83859  0.25864  0.10924  1.0000
  H   H5818     1.0  0.75770  0.33833  0.15694  1.0000
  C   C7285     1.0  0.85953  0.27456  0.27411  1.0000
  C   C7286     1.0  0.76896  0.34549  0.34299  1.0000
  H   H5819     1.0  0.75649  0.35057  0.34099  1.0000
  C   C7287     1.0  0.75196  0.33347  0.31995  1.0000
  H   H5820     1.0  0.97502  0.23319  0.15458  1.0000
  Fe  Fe496     1.0  0.75519  0.29239  0.36871  1.0000
  H   H5821     1.0  0.83989  0.26732  0.09742  1.0000
  H   H5822     1.0  0.85634  0.26624  0.11726  1.0000
  C   C7288     1.0  0.77147  0.34167  0.35905  1.0000
  H   H5823     1.0  0.82235  0.30161  0.03280  1.0000
  C   C7289     1.0  0.75880  0.29994  0.28419  1.0000
  H   H5824     1.0  0.74406  0.46295  0.24062  1.0000
  H   H5825     1.0  0.87312  0.28640  0.03713  1.0000
  C   C7290     1.0  0.89872  0.27370  0.99605  1.0000
  H   H5826     1.0  0.78319  0.29624  0.31048  1.0000
  C   C7291     1.0  0.75761  0.40347  0.44454  1.0000
  C   C7292     1.0  0.86385  0.28748  0.26099  1.0000
  C   C7293     1.0  0.91017  0.24068  0.05416  1.0000
  C   C7294     1.0  0.79487  0.34077  0.27818  1.0000
  C   C7295     1.0  0.97991  0.26889  0.12049  1.0000
  H   H5827     1.0  0.84649  0.25467  0.05807  1.0000
  C   C7296     1.0  0.79363  0.33551  0.29532  1.0000
  C   C7297     1.0  0.92495  0.27709  0.97702  1.0000
  H   H5828     1.0  0.80553  0.33439  0.25441  1.0000
  S   S981      1.0  0.95144  0.26638  0.11365  1.0000
  H   H5829     1.0  0.75657  0.36566  0.28657  1.0000
  H   H5830     1.0  0.75172  0.25835  0.25117  1.0000
  C   C7298     1.0  0.81389  0.31483  0.27401  1.0000
  Fe  Fe497     1.0  0.89594  0.24732  0.14238  1.0000
  H   H5831     1.0  0.77910  0.25422  0.22206  1.0000
  C   C7299     1.0  0.76633  0.38174  0.30799  1.0000
  Fe  Fe498     1.0  0.92780  0.25653  0.11988  1.0000
  S   S982      1.0  0.74280  0.30504  0.13138  1.0000
  H   H5832     1.0  0.77234  0.28223  0.46568  1.0000
  C   C7300     1.0  0.74635  0.25475  0.19882  1.0000
  H   H5833     1.0  0.91938  0.27853  0.04544  1.0000
  C   C7301     1.0  0.74193  0.40390  0.44244  1.0000
  H   H5834     1.0  0.80449  0.36602  0.28626  1.0000
  C   C7302     1.0  0.80085  0.23719  0.21260  1.0000
  C   C7303     1.0  0.85926  0.23234  0.07213  1.0000
  C   C7304     1.0  0.83481  0.29444  0.02932  1.0000
  S   S983      1.0  0.77961  0.29036  0.35003  1.0000
  C   C7305     1.0  0.79379  0.37499  0.29084  1.0000
  C   C7306     1.0  0.74962  0.25378  0.01114  1.0000
  C   C7307     1.0  0.77645  0.26031  0.99777  1.0000
  H   H5835     1.0  0.76322  0.41410  0.43887  1.0000
  H   H5836     1.0  0.77366  0.35287  0.22073  1.0000
  H   H5837     1.0  0.78582  0.24540  0.25568  1.0000
  H   H5838     1.0  0.98275  0.23742  0.18132  1.0000
  H   H5839     1.0  0.75929  0.30293  0.27103  1.0000
  C   C7308     1.0  0.81169  0.30370  0.07265  1.0000
  C   C7309     1.0  0.80826  0.28855  0.07336  1.0000
  C   C7310     1.0  0.80221  0.27883  0.08859  1.0000
  C   C7311     1.0  0.80000  0.28405  0.10317  1.0000
  C   C7312     1.0  0.80396  0.29895  0.10261  1.0000
  C   C7313     1.0  0.80959  0.30888  0.08721  1.0000
  P   P244      1.0  0.80222  0.30532  0.12139  1.0000
  C   C7314     1.0  0.78388  0.32146  0.12519  1.0000
  C   C7315     1.0  0.80032  0.28799  0.13888  1.0000
  C   C7316     1.0  0.78477  0.28404  0.14635  1.0000
  C   C7317     1.0  0.78304  0.27108  0.16025  1.0000
  C   C7318     1.0  0.79677  0.26191  0.16680  1.0000
  C   C7319     1.0  0.81229  0.26567  0.15937  1.0000
  C   C7320     1.0  0.81410  0.27856  0.14537  1.0000
  C   C7321     1.0  0.77767  0.32477  0.14108  1.0000
  C   C7322     1.0  0.76264  0.33610  0.14458  1.0000
  H   H5840     1.0  0.85632  0.26692  0.00520  1.0000
  C   C7323     1.0  0.74314  0.37607  0.45933  1.0000
  C   C7324     1.0  0.77506  0.32998  0.11279  1.0000
  C   C7325     1.0  0.82085  0.31240  0.11895  1.0000
  C   C7326     1.0  0.82032  0.32597  0.12523  1.0000
  C   C7327     1.0  0.83474  0.33170  0.12266  1.0000
  C   C7328     1.0  0.84980  0.32389  0.11386  1.0000
  C   C7329     1.0  0.85046  0.31025  0.10773  1.0000
  C   C7330     1.0  0.83606  0.30455  0.11025  1.0000
  H   H5841     1.0  0.81562  0.31160  0.06082  1.0000
  H   H5842     1.0  0.80969  0.28458  0.06209  1.0000
  H   H5843     1.0  0.79894  0.26741  0.08903  1.0000
  H   H5844     1.0  0.79528  0.27644  0.11481  1.0000
  H   H5845     1.0  0.81227  0.32068  0.08648  1.0000
  H   H5846     1.0  0.77393  0.29111  0.14157  1.0000
  H   H5847     1.0  0.77099  0.26830  0.16604  1.0000
  H   H5848     1.0  0.79529  0.25208  0.17774  1.0000
  H   H5849     1.0  0.82293  0.25883  0.16459  1.0000
  H   H5850     1.0  0.82616  0.28139  0.13990  1.0000
  H   H5851     1.0  0.78428  0.31833  0.15086  1.0000
  S   S984      1.0  0.92294  0.23473  0.14054  1.0000
  S   S985      1.0  0.80146  0.23221  0.02240  1.0000
  C   C7331     1.0  0.75870  0.29167  0.31777  1.0000
  C   C7332     1.0  0.91456  0.26865  0.04425  1.0000
  H   H5852     1.0  0.80889  0.33201  0.13232  1.0000
  H   H5853     1.0  0.83426  0.34203  0.12776  1.0000
  H   H5854     1.0  0.86099  0.32822  0.11204  1.0000
  H   H5855     1.0  0.86216  0.30400  0.10110  1.0000
  H   H5856     1.0  0.83682  0.29404  0.10534  1.0000
  H   H5857     1.0  0.76316  0.28311  0.08425  1.0000
  C   C7333     1.0  0.74064  0.27497  0.26768  1.0000
  C   C7334     1.0  0.91613  0.27141  0.20662  1.0000
  C   C7335     1.0  0.77940  0.24906  0.98778  1.0000
  C   C7336     1.0  0.98385  0.26788  0.14759  1.0000
  H   H5858     1.0  0.77817  0.38900  0.45564  1.0000
  C   C7337     1.0  0.88796  0.26908  0.20897  1.0000
  C   C7338     1.0  0.89997  0.27123  0.21592  1.0000
  P   P245      1.0  0.86651  0.27056  0.22022  1.0000
  C   C7339     1.0  0.85876  0.25302  0.22045  1.0000
  C   C7340     1.0  0.86435  0.27170  0.24139  1.0000
  C   C7341     1.0  0.86624  0.28608  0.24470  1.0000
  H   H5859     1.0  0.81914  0.31885  0.22160  1.0000
  H   H5860     1.0  0.86938  0.29629  0.23464  1.0000
  H   H5861     1.0  0.79104  0.24710  0.97884  1.0000
  C   C7342     1.0  0.85993  0.25879  0.25469  1.0000
  H   H5862     1.0  0.76100  0.34357  0.36927  1.0000
  C   C7343     1.0  0.90128  0.24338  0.04200  1.0000
  C   C7344     1.0  0.75371  0.34418  0.13226  1.0000
  C   C7345     1.0  0.83592  0.23893  0.22844  1.0000
  C   C7346     1.0  0.84185  0.25298  0.22689  1.0000
  C   C7347     1.0  0.85350  0.28936  0.21085  1.0000
  C   C7348     1.0  0.85715  0.29602  0.19375  1.0000
  C   C7349     1.0  0.84727  0.31078  0.18683  1.0000
  C   C7350     1.0  0.83370  0.31910  0.19686  1.0000
  C   C7351     1.0  0.82985  0.31255  0.21382  1.0000
  C   C7352     1.0  0.83950  0.29762  0.22076  1.0000
  H   H5863     1.0  0.92525  0.27332  0.21196  1.0000
  H   H5864     1.0  0.77702  0.36917  0.23858  1.0000
  S   S986      1.0  0.83307  0.24373  0.02679  1.0000
  H   H5865     1.0  0.77851  0.25909  0.31632  1.0000
  H   H5866     1.0  0.89698  0.27287  0.22845  1.0000
  H   H5867     1.0  0.91021  0.23336  0.17834  1.0000
  H   H5868     1.0  0.74774  0.27683  0.97971  1.0000
  H   H5869     1.0  0.75886  0.28856  0.33070  1.0000
  C   C7353     1.0  0.75698  0.23678  0.35042  1.0000
  H   H5870     1.0  0.85799  0.24769  0.25267  1.0000
  H   H5871     1.0  0.75458  0.43284  0.24330  1.0000
  C   C7354     1.0  0.79411  0.39186  0.28583  1.0000
  C   C7355     1.0  0.76871  0.25013  0.10708  1.0000
  H   H5872     1.0  0.82298  0.23879  0.23397  1.0000
  H   H5873     1.0  0.83331  0.26362  0.23116  1.0000
  H   H5874     1.0  0.86733  0.28989  0.18550  1.0000
  H   H5875     1.0  0.84987  0.31557  0.17358  1.0000
  H   H5876     1.0  0.82593  0.33041  0.19139  1.0000
  C   C7356     1.0  0.76320  0.25024  0.33986  1.0000
  H   H5877     1.0  0.74493  0.23918  0.18374  1.0000
  H   H5878     1.0  0.78078  0.41670  0.28805  1.0000
  H   H5879     1.0  0.86524  0.29865  0.26345  1.0000
  C   C7357     1.0  0.74377  0.25990  0.26305  1.0000
  H   H5880     1.0  0.77789  0.23181  0.09222  1.0000
  C   C7358     1.0  0.92046  0.26946  0.19033  1.0000
  C   C7359     1.0  0.74453  0.29605  0.29579  1.0000
  H   H5881     1.0  0.81340  0.32837  0.35097  1.0000
  S   S987      1.0  0.89204  0.23416  0.12520  1.0000
  H   H5882     1.0  0.74926  0.23830  0.36241  1.0000
  P   P246      1.0  0.77917  0.34823  0.30890  1.0000
  H   H5883     1.0  0.90412  0.28338  0.02360  1.0000
  C   C7360     1.0  0.84756  0.29522  0.03598  1.0000
  C   C7361     1.0  0.76017  0.32168  0.43810  1.0000
  H   H5884     1.0  0.85759  0.27564  0.28675  1.0000
  S   S988      1.0  0.76258  0.33213  0.46452  1.0000
  H   H5885     1.0  0.80057  0.31466  0.31492  1.0000
  H   H5886     1.0  0.74683  0.47242  0.11175  1.0000
  C   C7362     1.0  0.80785  0.23690  0.34892  1.0000
  C   C7363     1.0  0.77973  0.36987  0.30168  1.0000
  C   C7364     1.0  0.79515  0.23334  0.12276  1.0000
  C   C7365     1.0  0.75145  0.40470  0.16915  1.0000
  H   H5887     1.0  0.75636  0.40757  0.30813  1.0000
  C   C7366     1.0  0.75282  0.24184  0.00171  1.0000
  S   S989      1.0  0.74843  0.27522  0.39331  1.0000
  C   C7367     1.0  0.76763  0.23989  0.98968  1.0000
  C   C7368     1.0  0.75104  0.35620  0.29593  1.0000
  C   C7369     1.0  0.87792  0.23638  0.08675  1.0000
  H   H5888     1.0  0.89988  0.24618  0.98661  1.0000
  C   C7370     1.0  0.74494  0.27102  0.20001  1.0000
  H   H5889     1.0  0.76068  0.26156  0.34412  1.0000
  H   H5890     1.0  0.75293  0.34718  0.10685  1.0000
  C   C7371     1.0  0.90874  0.26692  0.18344  1.0000
  C   C7372     1.0  0.78501  0.24132  0.22233  1.0000
  H   H5891     1.0  0.96224  0.26564  0.16728  1.0000
  S   S990      1.0  0.80459  0.23265  0.05961  1.0000
  C   C7373     1.0  0.74343  0.25175  0.18484  1.0000
  C   C7374     1.0  0.79651  0.24068  0.36323  1.0000
  H   H5892     1.0  0.91208  0.26530  0.17082  1.0000
  H   H5893     1.0  0.76541  0.36464  0.46851  1.0000
  C   C7375     1.0  0.82583  0.23679  0.12854  1.0000
  H   H5894     1.0  0.97872  0.26021  0.19519  1.0000
  H   H5895     1.0  0.86906  0.23781  0.03575  1.0000
  H   H5896     1.0  0.76469  0.23239  0.24010  1.0000
  H   H5897     1.0  0.95766  0.26192  0.22129  1.0000
  C   C7376     1.0  0.91674  0.25332  0.05533  1.0000
  H   H5898     1.0  0.98471  0.27043  0.10736  1.0000
  C   C7377     1.0  0.88518  0.24372  0.01175  1.0000
  C   C7378     1.0  0.74232  0.26195  0.46951  1.0000
  H   H5899     1.0  0.78481  0.23283  0.30719  1.0000
  H   H5900     1.0  0.80709  0.24693  0.20480  1.0000
  H   H5901     1.0  0.74753  0.45713  0.18447  1.0000
  C   C7379     1.0  0.73885  0.31711  0.46286  1.0000
  C   C7380     1.0  0.73878  0.26502  0.17213  1.0000
  C   C7381     1.0  0.76403  0.27376  0.47124  1.0000
  C   C7382     1.0  0.97357  0.23801  0.19277  1.0000
  H   H5902     1.0  0.74096  0.36399  0.43464  1.0000
  C   C7383     1.0  0.74488  0.29117  0.31262  1.0000
  H   H5903     1.0  0.73884  0.47716  0.20848  1.0000
  H   H5904     1.0  0.93834  0.27330  0.97374  1.0000
  H   H5905     1.0  0.92639  0.23298  0.71329  1.0000
  H   H5906     1.0  0.85544  0.24158  0.80391  1.0000
  H   H5907     1.0  0.83780  0.29121  0.52346  1.0000
  H   H5908     1.0  0.84780  0.38203  0.51284  1.0000
  S   S991      1.0  0.77427  0.31404  0.54375  1.0000
  H   H5909     1.0  0.91112  0.27380  0.67501  1.0000
  C   C7384     1.0  0.73991  0.25697  0.52885  1.0000
  Fe  Fe499     1.0  0.78217  0.40451  0.59607  1.0000
  S   S992      1.0  0.80878  0.39205  0.58813  1.0000
  S   S993      1.0  0.77287  0.43007  0.58169  1.0000
  C   C7385     1.0  0.84018  0.29260  0.53463  1.0000
  C   C7386     1.0  0.96563  0.23851  0.79732  1.0000
  C   C7387     1.0  0.75650  0.29869  0.92370  1.0000
  S   S994      1.0  0.87988  0.25032  0.77215  1.0000
  C   C7388     1.0  0.97503  0.24601  0.80293  1.0000
  C   C7389     1.0  0.89928  0.29503  0.97073  1.0000
  H   H5910     1.0  0.75938  0.33862  0.90490  1.0000
  H   H5911     1.0  0.75404  0.32106  0.63422  1.0000
  C   C7390     1.0  0.74895  0.27658  0.62971  1.0000
  S   S995      1.0  0.74746  0.25579  0.89639  1.0000
  C   C7391     1.0  0.80421  0.32502  0.62552  1.0000
  H   H5912     1.0  0.89278  0.30516  0.96257  1.0000
  Fe  Fe500     1.0  0.83032  0.29754  0.67966  1.0000
  S   S996      1.0  0.85577  0.30106  0.66609  1.0000
  S   S997      1.0  0.81914  0.27778  0.67740  1.0000
  Fe  Fe501     1.0  0.82461  0.32456  0.69790  1.0000
  S   S998      1.0  0.84956  0.33050  0.68572  1.0000
  S   S999      1.0  0.80710  0.33679  0.71792  1.0000
  Fe  Fe502     1.0  0.84392  0.32818  0.66266  1.0000
  S   S1000     1.0  0.85245  0.34392  0.63773  1.0000
  Fe  Fe503     1.0  0.85904  0.30287  0.69029  1.0000
  S   S1001     1.0  0.88329  0.28994  0.69811  1.0000
  S   S1002     1.0  0.81807  0.32457  0.67445  1.0000
  S   S1003     1.0  0.83448  0.29718  0.70421  1.0000
  C   C7392     1.0  0.78483  0.36045  0.56295  1.0000
  S   S1004     1.0  0.80886  0.24592  0.59580  1.0000
  C   C7393     1.0  0.77742  0.28925  0.95933  1.0000
  C   C7394     1.0  0.77252  0.23468  0.51928  1.0000
  S   S1005     1.0  0.84093  0.26407  0.60559  1.0000
  C   C7395     1.0  0.74045  0.35640  0.58231  1.0000
  C   C7396     1.0  0.86434  0.32669  0.59690  1.0000
  C   C7397     1.0  0.85929  0.23925  0.84728  1.0000
  C   C7398     1.0  0.74504  0.28801  0.70027  1.0000
  H   H5913     1.0  0.73956  0.24862  0.85390  1.0000
  S   S1006     1.0  0.74005  0.42694  0.55996  1.0000
  C   C7399     1.0  0.74838  0.26687  0.94351  1.0000
  C   C7400     1.0  0.82574  0.27345  0.65763  1.0000
  C   C7401     1.0  0.83566  0.28286  0.64496  1.0000
  C   C7402     1.0  0.84079  0.27943  0.62917  1.0000
  C   C7403     1.0  0.83564  0.26687  0.62586  1.0000
  C   C7404     1.0  0.82570  0.25741  0.63850  1.0000
  C   C7405     1.0  0.82079  0.26068  0.65442  1.0000
  H   H5914     1.0  0.83908  0.29304  0.64717  1.0000
  H   H5915     1.0  0.84839  0.28683  0.61939  1.0000
  H   H5916     1.0  0.82157  0.24780  0.63597  1.0000
  H   H5917     1.0  0.81304  0.25343  0.66418  1.0000
  H   H5918     1.0  0.74004  0.45586  0.67551  1.0000
  C   C7406     1.0  0.79147  0.32560  0.72762  1.0000
  C   C7407     1.0  0.79031  0.31303  0.72092  1.0000
  C   C7408     1.0  0.77734  0.30467  0.72804  1.0000
  H   H5919     1.0  0.77448  0.26828  0.87257  1.0000
  H   H5920     1.0  0.79913  0.31000  0.70998  1.0000
  C   C7409     1.0  0.75807  0.29280  0.90959  1.0000
  H   H5921     1.0  0.86843  0.32124  0.52948  1.0000
  C   C7410     1.0  0.84511  0.24171  0.72209  1.0000
  S   S1007     1.0  0.74907  0.29849  0.74998  1.0000
  C   C7411     1.0  0.88331  0.23494  0.66286  1.0000
  C   C7412     1.0  0.84960  0.34254  0.53588  1.0000
  Fe  Fe504     1.0  0.75911  0.43563  0.60646  1.0000
  C   C7413     1.0  0.79751  0.29814  0.63166  1.0000
  C   C7414     1.0  0.76347  0.27301  0.86752  1.0000
  H   H5922     1.0  0.78662  0.24634  0.77983  1.0000
  C   C7415     1.0  0.80395  0.26709  0.94443  1.0000
  H   H5923     1.0  0.92345  0.29655  0.95513  1.0000
  S   S1008     1.0  0.82907  0.24789  0.86767  1.0000
  C   C7416     1.0  0.81747  0.34145  0.55920  1.0000
  H   H5924     1.0  0.78044  0.34437  0.55016  1.0000
  H   H5925     1.0  0.74062  0.31329  0.58026  1.0000
  H   H5926     1.0  0.91336  0.47445  0.74148  1.0000
  H   H5927     1.0  0.78759  0.45981  0.64707  1.0000
  C   C7417     1.0  0.84098  0.31030  0.55187  1.0000
  C   C7418     1.0  0.82109  0.23361  0.83319  1.0000
  C   C7419     1.0  0.88156  0.25971  0.75111  1.0000
  C   C7420     1.0  0.89665  0.26265  0.74081  1.0000
  C   C7421     1.0  0.89709  0.27189  0.72452  1.0000
  C   C7422     1.0  0.88255  0.27783  0.71836  1.0000
  C   C7423     1.0  0.86765  0.27427  0.72852  1.0000
  C   C7424     1.0  0.86712  0.26551  0.74492  1.0000
  H   H5928     1.0  0.90781  0.25838  0.74562  1.0000
  H   H5929     1.0  0.90865  0.27474  0.71678  1.0000
  H   H5930     1.0  0.85639  0.27870  0.72402  1.0000
  H   H5931     1.0  0.85540  0.26365  0.75300  1.0000
  H   H5932     1.0  0.78933  0.45092  0.60663  1.0000
  H   H5933     1.0  0.77092  0.26683  0.49465  1.0000
  H   H5934     1.0  0.85933  0.25233  0.84387  1.0000
  H   H5935     1.0  0.88451  0.47762  0.73912  1.0000
  C   C7425     1.0  0.74155  0.24104  0.84511  1.0000
  C   C7426     1.0  0.74452  0.33256  0.65535  1.0000
  C   C7427     1.0  0.81982  0.37820  0.60264  1.0000
  C   C7428     1.0  0.81213  0.37165  0.61890  1.0000
  C   C7429     1.0  0.82186  0.36077  0.62996  1.0000
  C   C7430     1.0  0.83921  0.35682  0.62476  1.0000
  C   C7431     1.0  0.84666  0.36349  0.60858  1.0000
  C   C7432     1.0  0.83704  0.37390  0.59754  1.0000
  H   H5936     1.0  0.79879  0.37494  0.62290  1.0000
  H   H5937     1.0  0.81603  0.35569  0.64249  1.0000
  H   H5938     1.0  0.86002  0.36055  0.60452  1.0000
  H   H5939     1.0  0.84304  0.37890  0.58505  1.0000
  C   C7433     1.0  0.78727  0.29425  0.54395  1.0000
  C   C7434     1.0  0.78680  0.28400  0.53411  1.0000
  C   C7435     1.0  0.79668  0.26777  0.53569  1.0000
  C   C7436     1.0  0.80668  0.26174  0.54738  1.0000
  C   C7437     1.0  0.80735  0.27222  0.55682  1.0000
  C   C7438     1.0  0.79792  0.28847  0.55489  1.0000
  H   H5940     1.0  0.77875  0.28848  0.52545  1.0000
  H   H5941     1.0  0.79625  0.25980  0.52818  1.0000
  H   H5942     1.0  0.81541  0.26794  0.56542  1.0000
  H   H5943     1.0  0.79869  0.29657  0.56206  1.0000
  H   H5944     1.0  0.84580  0.26629  0.54476  1.0000
  H   H5945     1.0  0.81424  0.25860  0.93854  1.0000
  C   C7439     1.0  0.76868  0.46881  0.61650  1.0000
  C   C7440     1.0  0.74051  0.38734  0.54169  1.0000
  C   C7441     1.0  0.84019  0.32671  0.58773  1.0000
  C   C7442     1.0  0.81265  0.35461  0.56740  1.0000
  C   C7443     1.0  0.78728  0.45965  0.65973  1.0000
  C   C7444     1.0  0.86556  0.33075  0.56771  1.0000
  C   C7445     1.0  0.87317  0.32946  0.58052  1.0000
  C   C7446     1.0  0.86346  0.23564  0.88694  1.0000
  P   P247      1.0  0.83904  0.33084  0.55479  1.0000
  H   H5946     1.0  0.83746  0.44386  0.61724  1.0000
  C   C7447     1.0  0.81820  0.43623  0.63778  1.0000
  H   H5947     1.0  0.79501  0.29243  0.97114  1.0000
  C   C7448     1.0  0.75226  0.26022  0.66202  1.0000
  H   H5948     1.0  0.93917  0.26514  0.74821  1.0000
  C   C7449     1.0  0.82823  0.43633  0.62193  1.0000
  C   C7450     1.0  0.75007  0.42693  0.65466  1.0000
  H   H5949     1.0  0.74874  0.32884  0.71604  1.0000
  C   C7451     1.0  0.80634  0.27498  0.95541  1.0000
  C   C7452     1.0  0.76551  0.30876  0.74192  1.0000
  C   C7453     1.0  0.75886  0.32587  0.90625  1.0000
  C   C7454     1.0  0.83844  0.30840  0.53717  1.0000
  C   C7455     1.0  0.79060  0.32987  0.63775  1.0000
  C   C7456     1.0  0.80500  0.25252  0.78828  1.0000
  C   C7457     1.0  0.79175  0.25618  0.78054  1.0000
  C   C7458     1.0  0.78523  0.27261  0.77349  1.0000
  C   C7459     1.0  0.79178  0.28542  0.77437  1.0000
  C   C7460     1.0  0.80465  0.28192  0.78267  1.0000
  C   C7461     1.0  0.81161  0.26533  0.78910  1.0000
  P   P248      1.0  0.81267  0.29841  0.78461  1.0000
  C   C7462     1.0  0.83069  0.30057  0.76803  1.0000
  C   C7463     1.0  0.79738  0.31771  0.78326  1.0000
  C   C7464     1.0  0.80197  0.33286  0.77499  1.0000
  C   C7465     1.0  0.78999  0.34771  0.77420  1.0000
  C   C7466     1.0  0.77343  0.34760  0.78201  1.0000
  C   C7467     1.0  0.76889  0.33265  0.79069  1.0000
  C   C7468     1.0  0.78081  0.31777  0.79131  1.0000
  C   C7469     1.0  0.84679  0.29446  0.77090  1.0000
  C   C7470     1.0  0.86045  0.29791  0.75828  1.0000
  C   C7471     1.0  0.85819  0.30683  0.74256  1.0000
  C   C7472     1.0  0.84229  0.31199  0.73935  1.0000
  C   C7473     1.0  0.82859  0.30876  0.75200  1.0000
  C   C7474     1.0  0.81677  0.29413  0.80500  1.0000
  C   C7475     1.0  0.80785  0.28427  0.81848  1.0000
  C   C7476     1.0  0.81128  0.28070  0.83416  1.0000
  C   C7477     1.0  0.82335  0.28720  0.83660  1.0000
  C   C7478     1.0  0.83170  0.29766  0.82344  1.0000
  C   C7479     1.0  0.82826  0.30132  0.80775  1.0000
  C   C7480     1.0  0.74294  0.39669  0.55170  1.0000
  S   S1009     1.0  0.74273  0.28077  0.79721  1.0000
  H   H5950     1.0  0.77510  0.27547  0.76727  1.0000
  H   H5951     1.0  0.78669  0.29802  0.76866  1.0000
  H   H5952     1.0  0.82202  0.26234  0.79491  1.0000
  H   H5953     1.0  0.81476  0.33329  0.76915  1.0000
  H   H5954     1.0  0.79358  0.35930  0.76753  1.0000
  H   H5955     1.0  0.76414  0.35908  0.78146  1.0000
  H   H5956     1.0  0.75616  0.33251  0.79710  1.0000
  H   H5957     1.0  0.77711  0.30628  0.79813  1.0000
  H   H5958     1.0  0.84894  0.28693  0.78275  1.0000
  H   H5959     1.0  0.87288  0.29307  0.76051  1.0000
  H   H5960     1.0  0.86883  0.30905  0.73265  1.0000
  H   H5961     1.0  0.84056  0.31843  0.72703  1.0000
  H   H5962     1.0  0.81634  0.31296  0.74930  1.0000
  H   H5963     1.0  0.79822  0.27931  0.81697  1.0000
  H   H5964     1.0  0.80476  0.27268  0.84445  1.0000
  H   H5965     1.0  0.82617  0.28411  0.84872  1.0000
  H   H5966     1.0  0.84090  0.30288  0.82541  1.0000
  H   H5967     1.0  0.83464  0.30967  0.79777  1.0000
  C   C7481     1.0  0.84895  0.32947  0.57122  1.0000
  H   H5968     1.0  0.80874  0.32762  0.54698  1.0000
  C   C7482     1.0  0.77272  0.36625  0.68115  1.0000
  H   H5969     1.0  0.87271  0.33279  0.55516  1.0000
  H   H5970     1.0  0.88591  0.33065  0.57777  1.0000
  H   H5971     1.0  0.78837  0.34215  0.63995  1.0000
  C   C7483     1.0  0.81445  0.41711  0.61823  1.0000
  C   C7484     1.0  0.82629  0.42685  0.61213  1.0000
  C   C7485     1.0  0.80602  0.42674  0.64385  1.0000
  C   C7486     1.0  0.80451  0.41685  0.63412  1.0000
  P   P249      1.0  0.79423  0.42523  0.66486  1.0000
  C   C7487     1.0  0.80615  0.40737  0.67653  1.0000
  C   C7488     1.0  0.79035  0.44455  0.67117  1.0000
  C   C7489     1.0  0.78914  0.44479  0.68766  1.0000
  S   S1010     1.0  0.75326  0.45917  0.61601  1.0000
  C   C7490     1.0  0.81731  0.40910  0.68477  1.0000
  C   C7491     1.0  0.82660  0.39503  0.69352  1.0000
  C   C7492     1.0  0.82506  0.37918  0.69380  1.0000
  C   C7493     1.0  0.81453  0.37737  0.68503  1.0000
  C   C7494     1.0  0.80530  0.39138  0.67623  1.0000
  C   C7495     1.0  0.77393  0.42201  0.66652  1.0000
  C   C7496     1.0  0.76639  0.41160  0.68057  1.0000
  C   C7497     1.0  0.74055  0.47566  0.57873  1.0000
  H   H5972     1.0  0.76769  0.24889  0.95460  1.0000
  C   C7498     1.0  0.76687  0.36989  0.66672  1.0000
  C   C7499     1.0  0.76542  0.43005  0.65380  1.0000
  H   H5973     1.0  0.81312  0.40957  0.61072  1.0000
  H   H5974     1.0  0.79584  0.40876  0.63883  1.0000
  H   H5975     1.0  0.79072  0.43336  0.69689  1.0000
  S   S1011     1.0  0.77029  0.41090  0.62069  1.0000
  H   H5976     1.0  0.81911  0.42121  0.68420  1.0000
  H   H5977     1.0  0.83518  0.39636  0.69991  1.0000
  H   H5978     1.0  0.83225  0.36825  0.70053  1.0000
  H   H5979     1.0  0.81371  0.36503  0.68492  1.0000
  H   H5980     1.0  0.79769  0.38971  0.66899  1.0000
  H   H5981     1.0  0.77245  0.40569  0.69081  1.0000
  S   S1012     1.0  0.75111  0.30373  0.82599  1.0000
  C   C7500     1.0  0.93733  0.26701  0.67440  1.0000
  H   H5982     1.0  0.75868  0.26671  0.71479  1.0000
  H   H5983     1.0  0.77080  0.43843  0.64301  1.0000
  H   H5984     1.0  0.74063  0.28389  0.66832  1.0000
  C   C7501     1.0  0.86617  0.36061  0.50656  1.0000
  H   H5985     1.0  0.90432  0.25177  0.69955  1.0000
  C   C7502     1.0  0.92094  0.26528  0.68068  1.0000
  C   C7503     1.0  0.78381  0.47473  0.66450  1.0000
  H   H5986     1.0  0.87814  0.24055  0.72715  1.0000
  P   P250      1.0  0.75472  0.28500  0.94388  1.0000
  H   H5987     1.0  0.80906  0.44223  0.57784  1.0000
  C   C7504     1.0  0.77479  0.28086  0.94878  1.0000
  C   C7505     1.0  0.78829  0.27008  0.94105  1.0000
  C   C7506     1.0  0.74922  0.27303  0.59673  1.0000
  C   C7507     1.0  0.75232  0.25413  0.49488  1.0000
  C   C7508     1.0  0.84570  0.23368  0.85857  1.0000
  H   H5988     1.0  0.95230  0.24273  0.79933  1.0000
  H   H5989     1.0  0.75822  0.27995  0.91044  1.0000
  H   H5990     1.0  0.74563  0.39980  0.69184  1.0000
  C   C7509     1.0  0.74491  0.27712  0.65855  1.0000
  C   C7510     1.0  0.92963  0.24222  0.70226  1.0000
  H   H5991     1.0  0.79291  0.37440  0.57523  1.0000
  Fe  Fe505     1.0  0.75724  0.32400  0.52602  1.0000
  C   C7511     1.0  0.77568  0.34997  0.69025  1.0000
  H   H5992     1.0  0.83501  0.31915  0.52769  1.0000
  H   H5993     1.0  0.81845  0.27240  0.95823  1.0000
  C   C7512     1.0  0.94974  0.25638  0.74304  1.0000
  C   C7513     1.0  0.75804  0.25149  0.64936  1.0000
  C   C7514     1.0  0.96279  0.23880  0.72321  1.0000
  H   H5994     1.0  0.75971  0.36012  0.65013  1.0000
  H   H5995     1.0  0.78670  0.26391  0.93247  1.0000
  H   H5996     1.0  0.74565  0.45028  0.72475  1.0000
  C   C7515     1.0  0.79576  0.46745  0.57099  1.0000
  C   C7516     1.0  0.94993  0.25632  0.68201  1.0000
  C   C7517     1.0  0.74417  0.35970  0.59565  1.0000
  C   C7518     1.0  0.79740  0.47077  0.61084  1.0000
  S   S1013     1.0  0.79164  0.24869  0.90560  1.0000
  H   H5997     1.0  0.78050  0.33944  0.74674  1.0000
  H   H5998     1.0  0.82153  0.35804  0.57188  1.0000
  C   C7519     1.0  0.75719  0.31523  0.92189  1.0000
  C   C7520     1.0  0.77968  0.32967  0.74158  1.0000
  H   H5999     1.0  0.82004  0.44351  0.64525  1.0000
  H   H6000     1.0  0.75651  0.31986  0.93256  1.0000
  C   C7521     1.0  0.78382  0.30297  0.64382  1.0000
  H   H6001     1.0  0.76152  0.25265  0.62359  1.0000
  C   C7522     1.0  0.87192  0.34349  0.51130  1.0000
  H   H6002     1.0  0.74162  0.23940  0.76373  1.0000
  H   H6003     1.0  0.75640  0.35475  0.59832  1.0000
  C   C7523     1.0  0.94930  0.25054  0.72962  1.0000
  C   C7524     1.0  0.77482  0.28155  0.69692  1.0000
  Fe  Fe506     1.0  0.77271  0.24018  0.89865  1.0000
  H   H6004     1.0  0.75757  0.32450  0.75944  1.0000
  C   C7525     1.0  0.79639  0.36402  0.56926  1.0000
  C   C7526     1.0  0.74851  0.26873  0.87667  1.0000
  C   C7527     1.0  0.84467  0.27856  0.54663  1.0000
  C   C7528     1.0  0.76003  0.32001  0.89232  1.0000
  C   C7529     1.0  0.76141  0.30637  0.67975  1.0000
  C   C7530     1.0  0.94618  0.24375  0.69594  1.0000
  H   H6005     1.0  0.75366  0.25391  0.67446  1.0000
  C   C7531     1.0  0.74773  0.26722  0.53277  1.0000
  C   C7532     1.0  0.76315  0.26504  0.48764  1.0000
  H   H6006     1.0  0.76073  0.29888  0.88319  1.0000
  H   H6007     1.0  0.78399  0.46382  0.57426  1.0000
  H   H6008     1.0  0.83463  0.25300  0.82653  1.0000
  C   C7533     1.0  0.91711  0.25284  0.69454  1.0000
  H   H6009     1.0  0.76746  0.29818  0.96495  1.0000
  H   H6010     1.0  0.98741  0.23374  0.74985  1.0000
  C   C7534     1.0  0.78556  0.45993  0.69243  1.0000
  C   C7535     1.0  0.91656  0.29018  0.96653  1.0000
  H   H6011     1.0  0.75414  0.32171  0.59937  1.0000
  H   H6012     1.0  0.74979  0.34879  0.57453  1.0000
  H   H6013     1.0  0.78477  0.46010  0.70511  1.0000
  H   H6014     1.0  0.96249  0.25803  0.67710  1.0000
  H   H6015     1.0  0.76089  0.26663  0.52809  1.0000
  H   H6016     1.0  0.74913  0.39060  0.56177  1.0000
  H   H6017     1.0  0.88275  0.33719  0.50365  1.0000
  Fe  Fe507     1.0  0.75145  0.41957  0.58230  1.0000
  C   C7536     1.0  0.75111  0.40836  0.68130  1.0000
  H   H6018     1.0  0.77537  0.32472  0.69223  1.0000
  H   H6019     1.0  0.84072  0.23897  0.90525  1.0000
  H   H6020     1.0  0.76137  0.32819  0.88018  1.0000
  C   C7537     1.0  0.76677  0.34081  0.67064  1.0000
  P   P251      1.0  0.75171  0.24258  0.51591  1.0000
  Fe  Fe508     1.0  0.83313  0.24258  0.60232  1.0000
  Fe  Fe509     1.0  0.75110  0.33365  0.49127  1.0000
  C   C7538     1.0  0.75967  0.30348  0.89400  1.0000
  C   C7539     1.0  0.78038  0.31882  0.64711  1.0000
  C   C7540     1.0  0.76394  0.35721  0.66149  1.0000
  H   H6021     1.0  0.85035  0.26939  0.57069  1.0000
  H   H6022     1.0  0.80037  0.28575  0.62944  1.0000
  H   H6023     1.0  0.88347  0.23222  0.83191  1.0000
  H   H6024     1.0  0.82999  0.25212  0.75957  1.0000
  C   C7541     1.0  0.74365  0.32891  0.64078  1.0000
  H   H6025     1.0  0.74386  0.43275  0.64452  1.0000
  C   C7542     1.0  0.82020  0.26362  0.72192  1.0000
  C   C7543     1.0  0.81918  0.26358  0.73833  1.0000
  C   C7544     1.0  0.83075  0.25222  0.74684  1.0000
  S   S1014     1.0  0.74839  0.31116  0.51181  1.0000
  C   C7545     1.0  0.97704  0.23886  0.74382  1.0000
  C   C7546     1.0  0.83319  0.25282  0.71380  1.0000
  H   H6026     1.0  0.81026  0.23978  0.79356  1.0000
  H   H6027     1.0  0.78410  0.23384  0.49369  1.0000
  C   C7547     1.0  0.88599  0.25093  0.65973  1.0000
  C   C7548     1.0  0.88080  0.25961  0.67241  1.0000
  C   C7549     1.0  0.87262  0.25249  0.68811  1.0000
  H   H6028     1.0  0.81120  0.27236  0.71529  1.0000
  H   H6029     1.0  0.80951  0.27246  0.74434  1.0000
  C   C7550     1.0  0.74305  0.41588  0.66823  1.0000
  C   C7551     1.0  0.86371  0.33448  0.52592  1.0000
  C   C7552     1.0  0.84513  0.29610  0.56405  1.0000
  H   H6030     1.0  0.82740  0.32575  0.59068  1.0000
  H   H6031     1.0  0.89205  0.25660  0.64751  1.0000
  H   H6032     1.0  0.88306  0.27192  0.67011  1.0000
  H   H6033     1.0  0.86872  0.25942  0.69779  1.0000
  C   C7553     1.0  0.75947  0.26245  0.57166  1.0000
  C   C7554     1.0  0.79312  0.28620  0.96272  1.0000
  C   C7555     1.0  0.75648  0.25962  0.63326  1.0000
  H   H6034     1.0  0.89797  0.23493  0.61370  1.0000
  H   H6035     1.0  0.83393  0.25309  0.70102  1.0000
  C   C7556     1.0  0.76015  0.27275  0.58131  1.0000
  H   H6036     1.0  0.96372  0.25460  0.76089  1.0000
  C   C7557     1.0  0.74336  0.28531  0.64243  1.0000
  C   C7558     1.0  0.86972  0.23653  0.69124  1.0000
  H   H6037     1.0  0.77616  0.29419  0.65082  1.0000
  C   C7559     1.0  0.74437  0.45168  0.69980  1.0000
  C   C7560     1.0  0.76694  0.29592  0.60165  1.0000
  C   C7561     1.0  0.76598  0.31306  0.59803  1.0000
  C   C7562     1.0  0.78049  0.31917  0.59260  1.0000
  C   C7563     1.0  0.79597  0.30823  0.59082  1.0000
  C   C7564     1.0  0.79700  0.29115  0.59515  1.0000
  C   C7565     1.0  0.78251  0.28504  0.60066  1.0000
  H   H6038     1.0  0.76812  0.26201  0.55991  1.0000
  S   S1015     1.0  0.81813  0.24111  0.55043  1.0000
  Fe  Fe510     1.0  0.74871  0.40263  0.61841  1.0000
  C   C7566     1.0  0.75697  0.25086  0.94956  1.0000
  H   H6039     1.0  0.76905  0.28059  0.57656  1.0000
  H   H6040     1.0  0.74502  0.37404  0.54397  1.0000
  H   H6041     1.0  0.77642  0.29509  0.72271  1.0000
  H   H6042     1.0  0.83407  0.42686  0.59988  1.0000
  C   C7567     1.0  0.74009  0.47060  0.56488  1.0000
  H   H6043     1.0  0.77982  0.33236  0.58969  1.0000
  H   H6044     1.0  0.80720  0.31293  0.58628  1.0000
  H   H6045     1.0  0.80903  0.28265  0.59409  1.0000
  H   H6046     1.0  0.78335  0.27182  0.60403  1.0000
  C   C7568     1.0  0.84790  0.32525  0.60051  1.0000
  C   C7569     1.0  0.80778  0.30908  0.62263  1.0000
  H   H6047     1.0  0.87012  0.32588  0.60687  1.0000
  H   H6048     1.0  0.84121  0.32316  0.61329  1.0000
  C   C7570     1.0  0.82537  0.45933  0.56939  1.0000
  C   C7571     1.0  0.77281  0.33724  0.68502  1.0000
  H   H6049     1.0  0.78777  0.29891  0.67859  1.0000
  S   S1016     1.0  0.76169  0.39372  0.59503  1.0000
  H   H6050     1.0  0.74672  0.24518  0.56939  1.0000
  C   C7572     1.0  0.78940  0.34720  0.55508  1.0000
  H   H6051     1.0  0.78606  0.27360  0.70045  1.0000
  H   H6052     1.0  0.84695  0.29705  0.57563  1.0000
  H   H6053     1.0  0.81209  0.33362  0.61856  1.0000
  H   H6054     1.0  0.81859  0.30503  0.61351  1.0000
  H   H6055     1.0  0.77505  0.37594  0.68531  1.0000
  H   H6056     1.0  0.75961  0.25372  0.82740  1.0000
  H   H6057     1.0  0.81037  0.46598  0.60606  1.0000
  H   H6058     1.0  0.86123  0.24849  0.88034  1.0000
  C   C7573     1.0  0.74598  0.30241  0.68778  1.0000
  H   H6059     1.0  0.77550  0.28765  0.84515  1.0000
  C   C7574     1.0  0.84400  0.35978  0.53109  1.0000
  C   C7575     1.0  0.76408  0.28390  0.85201  1.0000
  H   H6060     1.0  0.83330  0.36639  0.53858  1.0000
  C   C7576     1.0  0.82654  0.47591  0.56337  1.0000
  C   C7577     1.0  0.74745  0.25293  0.57702  1.0000
  C   C7578     1.0  0.77578  0.29591  0.68450  1.0000
  C   C7579     1.0  0.96360  0.25054  0.75013  1.0000
  C   C7580     1.0  0.75190  0.23704  0.94888  1.0000
  C   C7581     1.0  0.84710  0.28032  0.56131  1.0000
  C   C7582     1.0  0.78550  0.46232  0.61098  1.0000
  C   C7583     1.0  0.80561  0.33768  0.55326  1.0000
  P   P252      1.0  0.74859  0.28745  0.60865  1.0000
  H   H6061     1.0  0.78026  0.34723  0.70136  1.0000
  S   S1017     1.0  0.76225  0.34527  0.50476  1.0000
  H   H6062     1.0  0.87252  0.36759  0.49522  1.0000
  C   C7584     1.0  0.75944  0.27765  0.70488  1.0000
  H   H6063     1.0  0.76461  0.38250  0.65950  1.0000
  H   H6064     1.0  0.93831  0.25502  0.72455  1.0000
  H   H6065     1.0  0.83844  0.47920  0.56057  1.0000
  C   C7585     1.0  0.85225  0.36874  0.51647  1.0000
  P   P253      1.0  0.76313  0.32465  0.66341  1.0000
  C   C7586     1.0  0.76671  0.32122  0.74877  1.0000
  C   C7587     1.0  0.75304  0.24386  0.83014  1.0000
  C   C7588     1.0  0.74996  0.28992  0.84530  1.0000
  H   H6066     1.0  0.94021  0.27684  0.66380  1.0000
  H   H6067     1.0  0.77240  0.36807  0.56400  1.0000
  H   H6068     1.0  0.96888  0.25601  0.80929  1.0000
  H   H6069     1.0  0.98689  0.25079  0.69645  1.0000
  H   H6070     1.0  0.75047  0.47112  0.53910  1.0000
  H   H6071     1.0  0.92999  0.23392  0.67065  1.0000
  C   C7589     1.0  0.78298  0.47489  0.68082  1.0000
  C   C7590     1.0  0.84554  0.23530  0.81111  1.0000
  H   H6072     1.0  0.74021  0.35933  0.70657  1.0000
  Fe  Fe511     1.0  0.80962  0.23558  0.88639  1.0000
  H   H6073     1.0  0.75599  0.44292  0.69723  1.0000
  C   C7591     1.0  0.75059  0.47542  0.54972  1.0000
  C   C7592     1.0  0.74136  0.25327  0.48594  1.0000
  H   H6074     1.0  0.81210  0.23865  0.84313  1.0000
  H   H6075     1.0  0.76451  0.23653  0.80697  1.0000
  C   C7593     1.0  0.75584  0.23415  0.81867  1.0000
  H   H6076     1.0  0.76402  0.23843  0.65190  1.0000
  H   H6077     1.0  0.83636  0.44976  0.57121  1.0000
  H   H6078     1.0  0.74456  0.28660  0.54543  1.0000
  C   C7594     1.0  0.83374  0.24179  0.82378  1.0000
  C   C7595     1.0  0.84355  0.24113  0.73885  1.0000
  C   C7596     1.0  0.81001  0.45509  0.57311  1.0000
  H   H6079     1.0  0.76509  0.23260  0.54577  1.0000
  C   C7597     1.0  0.78600  0.23169  0.50605  1.0000
  Fe  Fe512     1.0  0.82377  0.23253  0.57582  1.0000
  H   H6080     1.0  0.85215  0.23222  0.74579  1.0000
  C   C7598     1.0  0.97667  0.23299  0.73042  1.0000
  H   H6081     1.0  0.74843  0.61672  0.07222  1.0000
  H   H6082     1.0  0.83014  0.60925  0.27520  1.0000
  C   C7599     1.0  0.75602  0.72854  0.38499  1.0000
  Fe  Fe513     1.0  0.83080  0.68880  0.98684  1.0000
  C   C7600     1.0  0.84268  0.61433  0.31846  1.0000
  C   C7601     1.0  0.74238  0.63621  0.29286  1.0000
  C   C7602     1.0  0.98155  0.68913  0.18573  1.0000
  S   S1018     1.0  0.77540  0.56159  0.25317  1.0000
  C   C7603     1.0  0.76147  0.65865  0.32659  1.0000
  C   C7604     1.0  0.87627  0.71302  0.98881  1.0000
  C   C7605     1.0  0.78910  0.65115  0.31016  1.0000
  C   C7606     1.0  0.78463  0.50630  0.20274  1.0000
  H   H6083     1.0  0.76317  0.51194  0.27732  1.0000
  S   S1019     1.0  0.83005  0.70707  0.00151  1.0000
  C   C7607     1.0  0.86136  0.65509  0.25267  1.0000
  Fe  Fe514     1.0  0.84410  0.68563  0.01757  1.0000
  C   C7608     1.0  0.78580  0.63627  0.30960  1.0000
  S   S1020     1.0  0.86535  0.68561  0.02841  1.0000
  S   S1021     1.0  0.80742  0.68142  0.00233  1.0000
  Fe  Fe515     1.0  0.82346  0.66197  0.01782  1.0000
  S   S1022     1.0  0.82081  0.63552  0.02398  1.0000
  S   S1023     1.0  0.84720  0.66807  0.00121  1.0000
  C   C7609     1.0  0.76115  0.49176  0.26832  1.0000
  H   H6084     1.0  0.95943  0.70421  0.13710  1.0000
  Fe  Fe516     1.0  0.88195  0.71457  0.12165  1.0000
  S   S1024     1.0  0.85078  0.71493  0.30363  1.0000
  S   S1025     1.0  0.87461  0.69304  0.14204  1.0000
  H   H6085     1.0  0.76397  0.53167  0.25019  1.0000
  H   H6086     1.0  0.83024  0.62690  0.43761  1.0000
  C   C7610     1.0  0.82904  0.71081  0.40717  1.0000
  C   C7611     1.0  0.76294  0.51908  0.25139  1.0000
  S   S1026     1.0  0.89605  0.71126  0.09608  1.0000
  C   C7612     1.0  0.74743  0.72768  0.45823  1.0000
  Fe  Fe517     1.0  0.83629  0.72299  0.26273  1.0000
  C   C7613     1.0  0.79630  0.56242  0.16058  1.0000
  H   H6087     1.0  0.87664  0.70953  0.00176  1.0000
  Fe  Fe518     1.0  0.75822  0.61230  0.10620  1.0000
  H   H6088     1.0  0.75355  0.58375  0.21821  1.0000
  S   S1027     1.0  0.77964  0.59838  0.09015  1.0000
  C   C7614     1.0  0.76498  0.72958  0.98942  1.0000
  Fe  Fe519     1.0  0.91066  0.72864  0.09771  1.0000
  S   S1028     1.0  0.78436  0.66759  0.46700  1.0000
  S   S1029     1.0  0.78302  0.71435  0.02720  1.0000
  S   S1030     1.0  0.75764  0.61154  0.13249  1.0000
  H   H6089     1.0  0.97249  0.72908  0.07739  1.0000
  Fe  Fe520     1.0  0.79135  0.64870  0.21492  1.0000
  S   S1031     1.0  0.76734  0.65544  0.23269  1.0000
  S   S1032     1.0  0.80831  0.62341  0.21837  1.0000
  Fe  Fe521     1.0  0.78786  0.68358  0.19282  1.0000
  S   S1033     1.0  0.76326  0.69266  0.20874  1.0000
  S   S1034     1.0  0.79721  0.70333  0.17166  1.0000
  Fe  Fe522     1.0  0.77552  0.67880  0.22979  1.0000
  S   S1035     1.0  0.77216  0.69007  0.25136  1.0000
  Fe  Fe523     1.0  0.75774  0.66854  0.20979  1.0000
  H   H6090     1.0  0.89685  0.71360  0.20479  1.0000
  S   S1036     1.0  0.80050  0.67102  0.21385  1.0000
  S   S1037     1.0  0.78131  0.66042  0.19199  1.0000
  H   H6091     1.0  0.89245  0.64890  0.44812  1.0000
  H   H6092     1.0  0.79308  0.52861  0.16327  1.0000
  H   H6093     1.0  0.80921  0.58493  0.31097  1.0000
  H   H6094     1.0  0.76318  0.71784  0.33277  1.0000
  S   S1038     1.0  0.85952  0.70440  0.26746  1.0000
  S   S1039     1.0  0.93813  0.72721  0.08621  1.0000
  Fe  Fe524     1.0  0.84463  0.69687  0.29305  1.0000
  S   S1040     1.0  0.84371  0.67064  0.30685  1.0000
  C   C7615     1.0  0.75604  0.67816  0.08568  1.0000
  C   C7616     1.0  0.78197  0.60969  0.28743  1.0000
  S   S1041     1.0  0.82097  0.71344  0.28725  1.0000
  C   C7617     1.0  0.86801  0.63779  0.21468  1.0000
  S   S1042     1.0  0.74859  0.64343  0.36771  1.0000
  C   C7618     1.0  0.83048  0.67659  0.25931  1.0000
  C   C7619     1.0  0.94981  0.71423  0.11501  1.0000
  C   C7620     1.0  0.78679  0.70219  0.24735  1.0000
  C   C7621     1.0  0.78775  0.70933  0.25964  1.0000
  C   C7622     1.0  0.80012  0.71815  0.25669  1.0000
  C   C7623     1.0  0.81155  0.71979  0.24153  1.0000
  C   C7624     1.0  0.80979  0.71374  0.22885  1.0000
  C   C7625     1.0  0.79754  0.70481  0.23185  1.0000
  H   H6095     1.0  0.77911  0.70787  0.27148  1.0000
  H   H6096     1.0  0.80053  0.72402  0.26602  1.0000
  H   H6097     1.0  0.81837  0.71526  0.21698  1.0000
  H   H6098     1.0  0.79648  0.69994  0.22213  1.0000
  C   C7626     1.0  0.78540  0.71615  0.10662  1.0000
  S   S1043     1.0  0.74772  0.55391  0.29762  1.0000
  H   H6099     1.0  0.76046  0.48329  0.28029  1.0000
  H   H6100     1.0  0.74123  0.48371  0.16454  1.0000
  C   C7627     1.0  0.74045  0.60674  0.34948  1.0000
  H   H6101     1.0  0.74210  0.63198  0.24881  1.0000
  C   C7628     1.0  0.76145  0.51414  0.23786  1.0000
  C   C7629     1.0  0.74834  0.57478  0.21580  1.0000
  C   C7630     1.0  0.97736  0.71900  0.17736  1.0000
  H   H6102     1.0  0.76295  0.62851  0.15883  1.0000
  C   C7631     1.0  0.89623  0.66602  0.22907  1.0000
  C   C7632     1.0  0.85316  0.69580  0.15078  1.0000
  C   C7633     1.0  0.84311  0.71172  0.15026  1.0000
  C   C7634     1.0  0.82604  0.71386  0.15706  1.0000
  C   C7635     1.0  0.81884  0.70012  0.16442  1.0000
  C   C7636     1.0  0.82885  0.68416  0.16526  1.0000
  C   C7637     1.0  0.84603  0.68199  0.15859  1.0000
  Fe  Fe525     1.0  0.74479  0.63841  0.12711  1.0000
  H   H6103     1.0  0.79869  0.69552  0.45981  1.0000
  H   H6104     1.0  0.82324  0.67355  0.17053  1.0000
  H   H6105     1.0  0.85373  0.66962  0.15907  1.0000
  C   C7638     1.0  0.80905  0.62617  0.04275  1.0000
  C   C7639     1.0  0.80920  0.60937  0.04517  1.0000
  C   C7640     1.0  0.80015  0.60116  0.05975  1.0000
  C   C7641     1.0  0.79057  0.60967  0.07204  1.0000
  C   C7642     1.0  0.79024  0.62658  0.06971  1.0000
  C   C7643     1.0  0.79959  0.63482  0.05508  1.0000
  H   H6106     1.0  0.81649  0.60262  0.03574  1.0000
  H   H6107     1.0  0.80054  0.58812  0.06147  1.0000
  H   H6108     1.0  0.78308  0.63321  0.07926  1.0000
  H   H6109     1.0  0.79957  0.64776  0.05336  1.0000
  C   C7644     1.0  0.86425  0.70050  0.03955  1.0000
  C   C7645     1.0  0.85496  0.71667  0.03588  1.0000
  C   C7646     1.0  0.82921  0.63297  0.44740  1.0000
  H   H6110     1.0  0.74872  0.63531  0.45198  1.0000
  C   C7647     1.0  0.87317  0.70805  0.06048  1.0000
  C   C7648     1.0  0.87351  0.69630  0.05176  1.0000
  C   C7649     1.0  0.74299  0.72049  0.07094  1.0000
  H   H6111     1.0  0.82916  0.53525  0.22214  1.0000
  H   H6112     1.0  0.75588  0.57645  0.31963  1.0000
  H   H6113     1.0  0.76375  0.59883  0.16500  1.0000
  H   H6114     1.0  0.93727  0.65332  0.21264  1.0000
  H   H6115     1.0  0.81847  0.68482  0.26189  1.0000
  C   C7650     1.0  0.85186  0.65381  0.26885  1.0000
  C   C7651     1.0  0.82985  0.65719  0.45628  1.0000
  C   C7652     1.0  0.87736  0.68988  0.44817  1.0000
  C   C7653     1.0  0.79284  0.55966  0.20036  1.0000
  C   C7654     1.0  0.82166  0.68781  0.46830  1.0000
  C   C7655     1.0  0.90009  0.65686  0.20389  1.0000
  H   H6116     1.0  0.79344  0.68244  0.06072  1.0000
  C   C7656     1.0  0.79305  0.51561  0.18851  1.0000
  C   C7657     1.0  0.79484  0.67416  0.34503  1.0000
  C   C7658     1.0  0.80109  0.68831  0.33678  1.0000
  C   C7659     1.0  0.81647  0.68701  0.32571  1.0000
  C   C7660     1.0  0.82531  0.67169  0.32211  1.0000
  C   C7661     1.0  0.81910  0.65745  0.33033  1.0000
  C   C7662     1.0  0.80389  0.65866  0.34190  1.0000
  H   H6117     1.0  0.79401  0.70033  0.33891  1.0000
  H   H6118     1.0  0.82141  0.69797  0.31997  1.0000
  H   H6119     1.0  0.82586  0.64556  0.32759  1.0000
  H   H6120     1.0  0.79895  0.64773  0.34795  1.0000
  C   C7663     1.0  0.78422  0.57907  0.24451  1.0000
  C   C7664     1.0  0.80102  0.57677  0.23672  1.0000
  C   C7665     1.0  0.80834  0.59043  0.22901  1.0000
  C   C7666     1.0  0.79891  0.60654  0.22907  1.0000
  C   C7667     1.0  0.78216  0.60886  0.23721  1.0000
  C   C7668     1.0  0.77478  0.59514  0.24483  1.0000
  H   H6121     1.0  0.80842  0.56437  0.23669  1.0000
  H   H6122     1.0  0.82130  0.58851  0.22284  1.0000
  H   H6123     1.0  0.77487  0.62118  0.23756  1.0000
  H   H6124     1.0  0.76180  0.59700  0.25083  1.0000
  S   S1044     1.0  0.82145  0.67795  0.03504  1.0000
  Fe  Fe526     1.0  0.80752  0.69818  0.01789  1.0000
  C   C7669     1.0  0.78092  0.68054  0.06446  1.0000
  C   C7670     1.0  0.79801  0.71932  0.11192  1.0000
  C   C7671     1.0  0.75693  0.67657  0.05778  1.0000
  H   H6125     1.0  0.80966  0.57557  0.18561  1.0000
  H   H6126     1.0  0.87315  0.64649  0.25029  1.0000
  C   C7672     1.0  0.78479  0.62545  0.45408  1.0000
  H   H6127     1.0  0.92350  0.72387  0.15519  1.0000
  H   H6128     1.0  0.77111  0.70226  0.31077  1.0000
  C   C7673     1.0  0.78306  0.65347  0.45622  1.0000
  C   C7674     1.0  0.78274  0.63122  0.43774  1.0000
  C   C7675     1.0  0.78069  0.64822  0.43072  1.0000
  C   C7676     1.0  0.78103  0.65927  0.43988  1.0000
  H   H6129     1.0  0.77926  0.65280  0.41810  1.0000
  H   H6130     1.0  0.77962  0.67234  0.43427  1.0000
  C   C7677     1.0  0.89284  0.65557  0.34172  1.0000
  C   C7678     1.0  0.89090  0.66204  0.32547  1.0000
  C   C7679     1.0  0.87564  0.67169  0.32242  1.0000
  C   C7680     1.0  0.86230  0.67495  0.33556  1.0000
  C   C7681     1.0  0.86429  0.66903  0.35190  1.0000
  C   C7682     1.0  0.87959  0.65898  0.35489  1.0000
  P   P254      1.0  0.84739  0.67375  0.36902  1.0000
  C   C7683     1.0  0.83670  0.65689  0.37732  1.0000
  C   C7684     1.0  0.85683  0.67653  0.38405  1.0000
  C   C7685     1.0  0.86115  0.69164  0.38216  1.0000
  C   C7686     1.0  0.86997  0.69329  0.39277  1.0000
  C   C7687     1.0  0.87457  0.67988  0.40532  1.0000
  C   C7688     1.0  0.87045  0.66477  0.40721  1.0000
  C   C7689     1.0  0.86174  0.66304  0.39657  1.0000
  C   C7690     1.0  0.83602  0.64716  0.36700  1.0000
  C   C7691     1.0  0.82734  0.63439  0.37336  1.0000
  C   C7692     1.0  0.81935  0.63124  0.39003  1.0000
  C   C7693     1.0  0.81968  0.64108  0.40028  1.0000
  C   C7694     1.0  0.82811  0.65401  0.39393  1.0000
  C   C7695     1.0  0.83267  0.69257  0.36260  1.0000
  C   C7696     1.0  0.81556  0.69357  0.36872  1.0000
  C   C7697     1.0  0.74965  0.67444  0.15736  1.0000
  C   C7698     1.0  0.74829  0.67656  0.07416  1.0000
  C   C7699     1.0  0.75671  0.59733  0.34778  1.0000
  C   C7700     1.0  0.83811  0.70620  0.35109  1.0000
  H   H6131     1.0  0.90464  0.64791  0.34408  1.0000
  H   H6132     1.0  0.90115  0.65948  0.31523  1.0000
  H   H6133     1.0  0.87406  0.67653  0.30982  1.0000
  H   H6134     1.0  0.85047  0.68208  0.33287  1.0000
  H   H6135     1.0  0.88136  0.65379  0.36736  1.0000
  H   H6136     1.0  0.85807  0.70206  0.37231  1.0000
  H   H6137     1.0  0.87345  0.70493  0.39108  1.0000
  H   H6138     1.0  0.88157  0.68114  0.41339  1.0000
  H   H6139     1.0  0.87438  0.65422  0.41664  1.0000
  H   H6140     1.0  0.85938  0.65099  0.39778  1.0000
  H   H6141     1.0  0.84185  0.64963  0.35397  1.0000
  H   H6142     1.0  0.82652  0.62715  0.36528  1.0000
  H   H6143     1.0  0.81255  0.62139  0.39499  1.0000
  H   H6144     1.0  0.81311  0.63879  0.41308  1.0000
  H   H6145     1.0  0.82770  0.66190  0.40191  1.0000
  H   H6146     1.0  0.81083  0.68320  0.37719  1.0000
  C   C7701     1.0  0.75413  0.71053  0.46197  1.0000
  H   H6147     1.0  0.82208  0.61260  0.46680  1.0000
  C   C7702     1.0  0.75704  0.72803  0.36870  1.0000
  H   H6148     1.0  0.85119  0.70569  0.34586  1.0000
  C   C7703     1.0  0.90425  0.70799  0.21399  1.0000
  H   H6149     1.0  0.77692  0.72636  0.14607  1.0000
  H   H6150     1.0  0.74935  0.67783  0.09839  1.0000
  C   C7704     1.0  0.81457  0.71439  0.05359  1.0000
  H   H6151     1.0  0.78994  0.50170  0.21359  1.0000
  S   S1045     1.0  0.74780  0.63947  0.10025  1.0000
  P   P255      1.0  0.83351  0.67790  0.45141  1.0000
  C   C7705     1.0  0.77610  0.59739  0.28455  1.0000
  C   C7706     1.0  0.86687  0.66157  0.44911  1.0000
  C   C7707     1.0  0.76797  0.60353  0.17306  1.0000
  C   C7708     1.0  0.83641  0.66453  0.27213  1.0000
  C   C7709     1.0  0.82652  0.68968  0.43268  1.0000
  C   C7710     1.0  0.81282  0.68669  0.42907  1.0000
  C   C7711     1.0  0.80739  0.69553  0.41461  1.0000
  H   H6152     1.0  0.80317  0.66530  0.24831  1.0000
  H   H6153     1.0  0.80119  0.65399  0.30439  1.0000
  H   H6154     1.0  0.79103  0.70821  0.36777  1.0000
  H   H6155     1.0  0.76099  0.52315  0.22636  1.0000
  H   H6156     1.0  0.83557  0.65508  0.43078  1.0000
  C   C7712     1.0  0.82112  0.55577  0.20306  1.0000
  P   P256      1.0  0.75828  0.49162  0.22169  1.0000
  C   C7713     1.0  0.81080  0.63107  0.27875  1.0000
  C   C7714     1.0  0.83201  0.64900  0.44360  1.0000
  P   P257      1.0  0.74613  0.67509  0.04332  1.0000
  C   C7715     1.0  0.76266  0.50793  0.26665  1.0000
  H   H6157     1.0  0.77928  0.54189  0.21769  1.0000
  C   C7716     1.0  0.79990  0.58862  0.30369  1.0000
  C   C7717     1.0  0.77695  0.66229  0.31858  1.0000
  C   C7718     1.0  0.77225  0.62712  0.17995  1.0000
  H   H6158     1.0  0.79197  0.65403  0.27733  1.0000
  C   C7719     1.0  0.91030  0.71721  0.03046  1.0000
  H   H6159     1.0  0.78596  0.71985  0.20127  1.0000
  C   C7720     1.0  0.75861  0.67182  0.02342  1.0000
  C   C7721     1.0  0.77325  0.67883  0.05290  1.0000
  C   C7722     1.0  0.77364  0.65999  0.02241  1.0000
  C   C7723     1.0  0.78243  0.65603  0.00724  1.0000
  C   C7724     1.0  0.77631  0.66381  0.99297  1.0000
  C   C7725     1.0  0.76113  0.67528  0.99394  1.0000
  C   C7726     1.0  0.86189  0.70305  0.21445  1.0000
  Fe  Fe527     1.0  0.77091  0.62602  0.40447  1.0000
  C   C7727     1.0  0.80402  0.53694  0.22106  1.0000
  C   C7728     1.0  0.95340  0.72136  0.09813  1.0000
  H   H6160     1.0  0.79688  0.69297  0.41193  1.0000
  H   H6161     1.0  0.80225  0.52659  0.23144  1.0000
  H   H6162     1.0  0.80683  0.56120  0.16563  1.0000
  H   H6163     1.0  0.89513  0.65512  0.19440  1.0000
  H   H6164     1.0  0.77999  0.67952  0.04021  1.0000
  H   H6165     1.0  0.77845  0.65355  0.03336  1.0000
  H   H6166     1.0  0.79408  0.64692  0.00659  1.0000
  H   H6167     1.0  0.78797  0.56343  0.12393  1.0000
  C   C7729     1.0  0.80801  0.56467  0.19535  1.0000
  C   C7730     1.0  0.75678  0.56621  0.20316  1.0000
  H   H6168     1.0  0.77751  0.62253  0.28183  1.0000
  H   H6169     1.0  0.84596  0.60236  0.34319  1.0000
  H   H6170     1.0  0.88140  0.70078  0.44807  1.0000
  H   H6171     1.0  0.85184  0.70253  0.44986  1.0000
  C   C7731     1.0  0.81661  0.61434  0.31269  1.0000
  C   C7732     1.0  0.83207  0.61879  0.30753  1.0000
  H   H6172     1.0  0.83164  0.65329  0.19215  1.0000
  C   C7733     1.0  0.83784  0.60562  0.33466  1.0000
  C   C7734     1.0  0.82235  0.60142  0.33994  1.0000
  C   C7735     1.0  0.81176  0.60582  0.32902  1.0000
  S   S1046     1.0  0.77554  0.67642  0.35886  1.0000
  H   H6173     1.0  0.74753  0.62701  0.30261  1.0000
  C   C7736     1.0  0.77047  0.63237  0.31818  1.0000
  C   C7737     1.0  0.75984  0.48671  0.25476  1.0000
  C   C7738     1.0  0.76941  0.50308  0.20301  1.0000
  H   H6174     1.0  0.81833  0.59498  0.35258  1.0000
  H   H6175     1.0  0.79961  0.60287  0.33342  1.0000
  H   H6176     1.0  0.87138  0.68975  0.98917  1.0000
  C   C7739     1.0  0.77822  0.61671  0.19362  1.0000
  H   H6177     1.0  0.76805  0.62049  0.31888  1.0000
  C   C7740     1.0  0.80915  0.65315  0.25425  1.0000
  C   C7741     1.0  0.83047  0.62809  0.25285  1.0000
  C   C7742     1.0  0.80965  0.72124  0.35177  1.0000
  H   H6178     1.0  0.85448  0.61801  0.31450  1.0000
  H   H6179     1.0  0.95968  0.67921  0.19280  1.0000
  C   C7743     1.0  0.82281  0.64381  0.24522  1.0000
  C   C7744     1.0  0.77142  0.51829  0.17446  1.0000
  C   C7745     1.0  0.95372  0.70600  0.18535  1.0000
  H   H6180     1.0  0.81169  0.55907  0.13678  1.0000
  P   P258      1.0  0.80191  0.62158  0.29956  1.0000
  C   C7746     1.0  0.88883  0.67479  0.44773  1.0000
  C   C7747     1.0  0.82447  0.62170  0.26956  1.0000
  C   C7748     1.0  0.86064  0.69084  0.44908  1.0000
  H   H6181     1.0  0.83575  0.62609  0.29528  1.0000
  H   H6182     1.0  0.83269  0.55988  0.19933  1.0000
  C   C7749     1.0  0.82662  0.72041  0.34565  1.0000
  H   H6183     1.0  0.80469  0.51821  0.18844  1.0000
  C   C7750     1.0  0.77240  0.71294  0.98952  1.0000
  C   C7751     1.0  0.74220  0.70650  0.44149  1.0000
  C   C7752     1.0  0.96447  0.69041  0.18856  1.0000
  H   H6184     1.0  0.74850  0.70853  0.02508  1.0000
  H   H6185     1.0  0.74560  0.72515  0.11347  1.0000
  H   H6186     1.0  0.78637  0.61232  0.45959  1.0000
  H   H6187     1.0  0.84854  0.72240  0.14488  1.0000
  H   H6188     1.0  0.86309  0.65039  0.44973  1.0000
  H   H6189     1.0  0.75621  0.68105  0.98294  1.0000
  H   H6190     1.0  0.76089  0.71744  0.39339  1.0000
  C   C7753     1.0  0.77243  0.67995  0.08087  1.0000
  H   H6191     1.0  0.85648  0.64463  0.27891  1.0000
  H   H6192     1.0  0.82900  0.66354  0.28463  1.0000
  C   C7754     1.0  0.84203  0.64912  0.19811  1.0000
  Fe  Fe528     1.0  0.86369  0.72398  0.27743  1.0000
  C   C7755     1.0  0.92395  0.65597  0.21401  1.0000
  H   H6193     1.0  0.76945  0.70352  0.00045  1.0000
  S   S1047     1.0  0.75598  0.65191  0.39963  1.0000
  S   S1048     1.0  0.77054  0.59893  0.35884  1.0000
  C   C7756     1.0  0.84919  0.63221  0.20172  1.0000
  H   H6194     1.0  0.90176  0.67402  0.44721  1.0000
  C   C7757     1.0  0.74605  0.67579  0.17382  1.0000
  H   H6195     1.0  0.78226  0.62189  0.20151  1.0000
  H   H6196     1.0  0.87781  0.63314  0.22147  1.0000
  H   H6197     1.0  0.75728  0.65356  0.29053  1.0000
  H   H6198     1.0  0.90734  0.71307  0.99351  1.0000
  H   H6199     1.0  0.77794  0.57118  0.28845  1.0000
  H   H6200     1.0  0.88829  0.67151  0.23921  1.0000
  H   H6201     1.0  0.94423  0.69368  0.21855  1.0000
  C   C7758     1.0  0.92160  0.70307  0.20931  1.0000
  C   C7759     1.0  0.92848  0.69398  0.17657  1.0000
  C   C7760     1.0  0.91228  0.69292  0.17722  1.0000
  C   C7761     1.0  0.90942  0.68475  0.16669  1.0000
  C   C7762     1.0  0.92263  0.67742  0.15555  1.0000
  C   C7763     1.0  0.93877  0.67821  0.15492  1.0000
  C   C7764     1.0  0.94169  0.68651  0.16528  1.0000
  C   C7765     1.0  0.85463  0.72845  0.04453  1.0000
  P   P259      1.0  0.93182  0.70742  0.18767  1.0000
  C   C7766     1.0  0.90565  0.70091  0.24279  1.0000
  C   C7767     1.0  0.89635  0.70692  0.23063  1.0000
  H   H6202     1.0  0.80255  0.73056  0.10632  1.0000
  C   C7768     1.0  0.93085  0.69700  0.22166  1.0000
  C   C7769     1.0  0.75830  0.72611  0.08788  1.0000
  Fe  Fe529     1.0  0.76817  0.65244  0.37307  1.0000
  S   S1049     1.0  0.78473  0.62721  0.37805  1.0000
  H   H6203     1.0  0.84434  0.62349  0.19843  1.0000
  C   C7770     1.0  0.76220  0.58644  0.33691  1.0000
  P   P260      1.0  0.86740  0.66886  0.21877  1.0000
  C   C7771     1.0  0.96952  0.72384  0.09048  1.0000
  H   H6204     1.0  0.90176  0.69896  0.18529  1.0000
  H   H6205     1.0  0.89691  0.68450  0.16670  1.0000
  H   H6206     1.0  0.92028  0.67154  0.14709  1.0000
  H   H6207     1.0  0.94900  0.67299  0.14589  1.0000
  C   C7772     1.0  0.96027  0.72033  0.18003  1.0000
  C   C7773     1.0  0.78648  0.52154  0.17436  1.0000
  H   H6208     1.0  0.88306  0.71139  0.23408  1.0000
  H   H6209     1.0  0.89954  0.70061  0.25565  1.0000
  C   C7774     1.0  0.86222  0.62654  0.20996  1.0000
  C   C7775     1.0  0.75364  0.71484  0.32891  1.0000
  H   H6210     1.0  0.76264  0.71655  0.36446  1.0000
  P   P261      1.0  0.77609  0.57079  0.19002  1.0000
  H   H6211     1.0  0.84172  0.67346  0.20025  1.0000
  C   C7776     1.0  0.81914  0.54189  0.21588  1.0000
  H   H6212     1.0  0.77978  0.67346  0.31943  1.0000
  H   H6213     1.0  0.92543  0.64879  0.19157  1.0000
  C   C7777     1.0  0.75021  0.55385  0.20116  1.0000
  C   C7778     1.0  0.87309  0.70183  0.98171  1.0000
  C   C7779     1.0  0.86094  0.65484  0.21100  1.0000
  C   C7780     1.0  0.73884  0.64635  0.45186  1.0000
  H   H6214     1.0  0.91684  0.71091  0.04031  1.0000
  C   C7781     1.0  0.74131  0.62763  0.06538  1.0000
  C   C7782     1.0  0.97828  0.71233  0.11656  1.0000
  C   C7783     1.0  0.79415  0.57632  0.30058  1.0000
  C   C7784     1.0  0.74423  0.66258  0.15314  1.0000
  H   H6215     1.0  0.83534  0.72015  0.39862  1.0000
  C   C7785     1.0  0.80517  0.70777  0.12437  1.0000
  C   C7786     1.0  0.79996  0.69287  0.13148  1.0000
  C   C7787     1.0  0.78773  0.68942  0.12601  1.0000
  C   C7788     1.0  0.78038  0.70103  0.11370  1.0000
  H   H6216     1.0  0.83496  0.68705  0.23330  1.0000
  H   H6217     1.0  0.76685  0.60078  0.27720  1.0000
  H   H6218     1.0  0.82721  0.64861  0.23223  1.0000
  C   C7789     1.0  0.76723  0.62050  0.16964  1.0000
  H   H6219     1.0  0.75073  0.68464  0.17704  1.0000
  H   H6220     1.0  0.75584  0.68675  0.45718  1.0000
  C   C7790     1.0  0.96227  0.70958  0.12408  1.0000
  C   C7791     1.0  0.77427  0.59287  0.18652  1.0000
  C   C7792     1.0  0.80408  0.71547  0.06902  1.0000
  C   C7793     1.0  0.88944  0.66302  0.21746  1.0000
  H   H6221     1.0  0.88037  0.70465  0.06984  1.0000
  Fe  Fe530     1.0  0.75025  0.56450  0.27037  1.0000
  S   S1050     1.0  0.75096  0.65975  0.13278  1.0000
  C   C7794     1.0  0.74690  0.64240  0.06006  1.0000
  C   C7795     1.0  0.74598  0.70137  0.31190  1.0000
  H   H6222     1.0  0.74658  0.64044  0.33324  1.0000
  H   H6223     1.0  0.80554  0.68395  0.14115  1.0000
  H   H6224     1.0  0.78404  0.67763  0.13121  1.0000
  H   H6225     1.0  0.77099  0.69798  0.10967  1.0000
  H   H6226     1.0  0.86024  0.70099  0.22771  1.0000
  C   C7796     1.0  0.76674  0.56803  0.16259  1.0000
  C   C7797     1.0  0.76286  0.50913  0.18873  1.0000
  Fe  Fe531     1.0  0.76399  0.61796  0.37475  1.0000
  C   C7798     1.0  0.79095  0.54574  0.21328  1.0000
  C   C7799     1.0  0.85528  0.67673  0.44939  1.0000
  H   H6227     1.0  0.80533  0.70489  0.07926  1.0000
  H   H6228     1.0  0.86872  0.68301  0.18340  1.0000
  H   H6229     1.0  0.86760  0.61339  0.21291  1.0000
  H   H6230     1.0  0.78380  0.59176  0.20766  1.0000
  H   H6231     1.0  0.77152  0.64033  0.17719  1.0000
  H   H6232     1.0  0.79885  0.56336  0.30564  1.0000
  C   C7800     1.0  0.81550  0.70760  0.40366  1.0000
  C   C7801     1.0  0.78002  0.56597  0.16995  1.0000
  H   H6233     1.0  0.81130  0.71446  0.39244  1.0000
  H   H6234     1.0  0.88094  0.68387  0.05453  1.0000
  H   H6235     1.0  0.80633  0.67744  0.43741  1.0000
  C   C7802     1.0  0.91728  0.65332  0.20220  1.0000
  C   C7803     1.0  0.88358  0.66065  0.44823  1.0000
  H   H6236     1.0  0.75920  0.56935  0.14040  1.0000
  C   C7804     1.0  0.76960  0.56682  0.14618  1.0000
  H   H6237     1.0  0.76639  0.52291  0.16346  1.0000
  C   C7805     1.0  0.80416  0.70788  0.36343  1.0000
  H   H6238     1.0  0.75223  0.66714  0.33349  1.0000
  C   C7806     1.0  0.78468  0.63656  0.46338  1.0000
  C   C7807     1.0  0.79376  0.60541  0.29717  1.0000
  C   C7808     1.0  0.91342  0.66225  0.22747  1.0000
  H   H6239     1.0  0.75412  0.57165  0.16919  1.0000
  C   C7809     1.0  0.80300  0.64677  0.27090  1.0000
  H   H6240     1.0  0.93009  0.69176  0.24775  1.0000
  H   H6241     1.0  0.75699  0.68232  0.14795  1.0000
  C   C7810     1.0  0.77918  0.59962  0.19698  1.0000
  H   H6242     1.0  0.77856  0.68086  0.08983  1.0000
  H   H6243     1.0  0.86018  0.72918  0.21093  1.0000
  C   C7811     1.0  0.85557  0.66740  0.23975  1.0000
  H   H6244     1.0  0.84072  0.62069  0.24564  1.0000
  C   C7812     1.0  0.74780  0.65107  0.28612  1.0000
  C   C7813     1.0  0.78232  0.58070  0.29095  1.0000
  H   H6245     1.0  0.93750  0.71217  0.12103  1.0000
  C   C7814     1.0  0.75814  0.70587  0.31656  1.0000
  H   H6246     1.0  0.91858  0.66445  0.23654  1.0000
  C   C7815     1.0  0.78579  0.56355  0.13690  1.0000
  C   C7816     1.0  0.75113  0.70000  0.45391  1.0000
  S   S1051     1.0  0.75155  0.61443  0.40183  1.0000
  C   C7817     1.0  0.92288  0.69593  0.23831  1.0000
  H   H6247     1.0  0.92243  0.69894  0.01577  1.0000
  C   C7818     1.0  0.83456  0.70189  0.42159  1.0000
  H   H6248     1.0  0.84514  0.70454  0.42389  1.0000
  C   C7819     1.0  0.84782  0.66046  0.20273  1.0000
  H   H6249     1.0  0.86931  0.71130  0.16679  1.0000
  H   H6250     1.0  0.84837  0.72012  0.02609  1.0000
  H   H6251     1.0  0.95423  0.68768  0.16372  1.0000
  H   H6252     1.0  0.82399  0.70320  0.05208  1.0000
  S   S1052     1.0  0.78333  0.61686  0.42632  1.0000
  C   C7820     1.0  0.91339  0.71047  0.01666  1.0000
  C   C7821     1.0  0.83991  0.67790  0.24315  1.0000
  C   C7822     1.0  0.79914  0.56120  0.14414  1.0000
  C   C7823     1.0  0.86209  0.71908  0.20491  1.0000
  C   C7824     1.0  0.86496  0.72197  0.18774  1.0000
  C   C7825     1.0  0.86702  0.70900  0.18013  1.0000
  C   C7826     1.0  0.86659  0.69299  0.18963  1.0000
  C   C7827     1.0  0.86407  0.68988  0.20689  1.0000
  H   H6253     1.0  0.75847  0.64258  0.06261  1.0000
  C   C7828     1.0  0.75827  0.64365  0.32643  1.0000
  H   H6254     1.0  0.81491  0.71023  0.12845  1.0000
  H   H6255     1.0  0.77471  0.57902  0.33560  1.0000
  H   H6256     1.0  0.75681  0.54655  0.19201  1.0000
  H   H6257     1.0  0.74263  0.49648  0.08840  1.0000
  H   H6258     1.0  0.74979  0.69372  0.30286  1.0000
  C   C7829     1.0  0.75221  0.67913  0.00913  1.0000
  C   C7830     1.0  0.75157  0.58498  0.32781  1.0000
  H   H6259     1.0  0.76173  0.70521  0.47104  1.0000
  C   C7831     1.0  0.98187  0.71955  0.09969  1.0000
  H   H6260     1.0  0.74563  0.67400  0.26793  1.0000
  S   S1053     1.0  0.82870  0.72829  0.23861  1.0000
  H   H6261     1.0  0.76457  0.71946  0.22748  1.0000
  H   H6262     1.0  0.79036  0.69565  0.97603  1.0000
  H   H6263     1.0  0.75117  0.50686  0.18856  1.0000
  C   C7832     1.0  0.80476  0.69516  0.46933  1.0000
  H   H6264     1.0  0.78328  0.66078  0.98124  1.0000
  C   C7833     1.0  0.75725  0.72401  0.07262  1.0000
  C   C7834     1.0  0.82464  0.62486  0.46387  1.0000
  H   H6265     1.0  0.75400  0.62109  0.22352  1.0000
  C   C7835     1.0  0.76017  0.49782  0.23934  1.0000
  H   H6266     1.0  0.79071  0.72827  0.30520  1.0000
  C   C7836     1.0  0.74491  0.72420  0.10146  1.0000
  H   H6267     1.0  0.81843  0.72618  0.15676  1.0000
  S   S1054     1.0  0.89813  0.72994  0.12405  1.0000
  C   C7837     1.0  0.92184  0.72830  0.17923  1.0000
  H   H6268     1.0  0.74542  0.65425  0.47028  1.0000
  C   C7838     1.0  0.77424  0.72880  0.20178  1.0000
  C   C7839     1.0  0.81275  0.72761  0.04000  1.0000
  C   C7840     1.0  0.86374  0.72421  0.05689  1.0000
  C   C7841     1.0  0.90463  0.71843  0.00416  1.0000
  C   C7842     1.0  0.74088  0.62248  0.22886  1.0000
  H   H6269     1.0  0.76741  0.72478  0.06191  1.0000
  H   H6270     1.0  0.80725  0.73073  0.42945  1.0000
  H   H6271     1.0  0.74160  0.71884  0.25472  1.0000
  C   C7843     1.0  0.76221  0.72859  0.21647  1.0000
  H   H6272     1.0  0.82033  0.72647  0.02793  1.0000
  H   H6273     1.0  0.74242  0.71869  0.05920  1.0000
  C   C7844     1.0  0.82566  0.64878  0.47280  1.0000
  C   C7845     1.0  0.87860  0.72868  0.97940  1.0000
  C   C7846     1.0  0.74118  0.66266  0.27339  1.0000
  H   H6274     1.0  0.74025  0.68765  0.00972  1.0000
  S   S1055     1.0  0.88872  0.73037  0.27003  1.0000
  C   C7847     1.0  0.78436  0.70854  0.97589  1.0000
  H   H6275     1.0  0.98246  0.73003  0.17285  1.0000
  C   C7848     1.0  0.79186  0.72994  0.07094  1.0000
  H   H6276     1.0  0.74019  0.69826  0.43511  1.0000
  H   H6277     1.0  0.74353  0.54571  0.14538  1.0000
  C   C7849     1.0  0.98800  0.70341  0.17997  1.0000
  H   H6278     1.0  0.83081  0.73061  0.33622  1.0000
  P   P262      1.0  0.77674  0.73091  0.09005  1.0000
  C   C7850     1.0  0.73902  0.48416  0.11414  1.0000
  C   C7851     1.0  0.79263  0.48538  0.61679  1.0000
  H   H6279     1.0  0.82868  0.54512  0.69246  1.0000
  Fe  Fe532     1.0  0.78544  0.53385  0.65679  1.0000
  S   S1056     1.0  0.81045  0.51744  0.65002  1.0000
  S   S1057     1.0  0.77086  0.52879  0.68289  1.0000
  Fe  Fe533     1.0  0.78737  0.55527  0.62244  1.0000
  S   S1058     1.0  0.81245  0.54070  0.61270  1.0000
  S   S1059     1.0  0.77174  0.57719  0.60847  1.0000
  Fe  Fe534     1.0  0.80224  0.51822  0.62724  1.0000
  C   C7852     1.0  0.76122  0.50161  0.73611  1.0000
  Fe  Fe535     1.0  0.81828  0.54133  0.63637  1.0000
  S   S1060     1.0  0.84323  0.54606  0.63499  1.0000
  S   S1061     1.0  0.77660  0.53286  0.63515  1.0000
  S   S1062     1.0  0.79390  0.55768  0.64492  1.0000
  Fe  Fe536     1.0  0.77855  0.66122  0.49489  1.0000
  S   S1063     1.0  0.77073  0.63788  0.50997  1.0000
  Fe  Fe537     1.0  0.77336  0.67554  0.52517  1.0000
  S   S1064     1.0  0.76468  0.65344  0.54249  1.0000
  S   S1065     1.0  0.77238  0.69662  0.53662  1.0000
  Fe  Fe538     1.0  0.78578  0.63853  0.52711  1.0000
  S   S1066     1.0  0.80326  0.61563  0.53777  1.0000
  C   C7853     1.0  0.91848  0.72095  0.68060  1.0000
  C   C7854     1.0  0.90208  0.65398  0.65351  1.0000
  S   S1067     1.0  0.79557  0.66066  0.51077  1.0000
  C   C7855     1.0  0.74082  0.58060  0.74835  1.0000
  Fe  Fe539     1.0  0.94538  0.67687  0.76556  1.0000
  S   S1068     1.0  0.92456  0.68958  0.78327  1.0000
  S   S1069     1.0  0.97316  0.67567  0.76043  1.0000
  Fe  Fe540     1.0  0.92127  0.66844  0.75019  1.0000
  S   S1070     1.0  0.89857  0.68049  0.76659  1.0000
  S   S1071     1.0  0.92099  0.65786  0.72902  1.0000
  Fe  Fe541     1.0  0.91214  0.70072  0.76180  1.0000
  C   C7856     1.0  0.84224  0.71131  0.68342  1.0000
  Fe  Fe542     1.0  0.91268  0.66836  0.78671  1.0000
  S   S1072     1.0  0.90018  0.65543  0.81175  1.0000
  S   S1073     1.0  0.93373  0.68983  0.74372  1.0000
  S   S1074     1.0  0.93449  0.65449  0.77068  1.0000
  Fe  Fe543     1.0  0.81035  0.68247  0.86128  1.0000
  S   S1075     1.0  0.81713  0.65600  0.87430  1.0000
  S   S1076     1.0  0.82856  0.69517  0.84063  1.0000
  Fe  Fe544     1.0  0.77489  0.68592  0.88096  1.0000
  S   S1077     1.0  0.77920  0.65957  0.89519  1.0000
  H   H6280     1.0  0.89525  0.57979  0.74337  1.0000
  Fe  Fe545     1.0  0.80259  0.66475  0.89750  1.0000
  S   S1078     1.0  0.80997  0.65532  0.92238  1.0000
  Fe  Fe546     1.0  0.79307  0.65375  0.87066  1.0000
  S   S1079     1.0  0.79335  0.63310  0.85904  1.0000
  S   S1080     1.0  0.79733  0.69157  0.88474  1.0000
  S   S1081     1.0  0.78707  0.67984  0.85621  1.0000
  Fe  Fe547     1.0  0.85554  0.59710  0.69278  1.0000
  S   S1082     1.0  0.82866  0.60851  0.69393  1.0000
  S   S1083     1.0  0.87032  0.57989  0.67581  1.0000
  Fe  Fe548     1.0  0.85738  0.61280  0.72002  1.0000
  S   S1084     1.0  0.83057  0.62551  0.72299  1.0000
  S   S1085     1.0  0.86884  0.61414  0.74009  1.0000
  Fe  Fe549     1.0  0.82633  0.60163  0.72128  1.0000
  S   S1086     1.0  0.80785  0.58770  0.73902  1.0000
  Fe  Fe550     1.0  0.83556  0.63128  0.69540  1.0000
  S   S1087     1.0  0.82268  0.65617  0.68289  1.0000
  S   S1088     1.0  0.85264  0.58844  0.72016  1.0000
  S   S1089     1.0  0.86298  0.62046  0.69231  1.0000
  Fe  Fe551     1.0  0.83565  0.71922  0.57271  1.0000
  S   S1090     1.0  0.82682  0.70766  0.59928  1.0000
  S   S1091     1.0  0.83603  0.70616  0.55303  1.0000
  Fe  Fe552     1.0  0.85061  0.71061  0.60264  1.0000
  S   S1092     1.0  0.86634  0.69006  0.61754  1.0000
  S   S1093     1.0  0.86033  0.72057  0.57589  1.0000
  C   C7857     1.0  0.74131  0.72271  0.49895  1.0000
  H   H6281     1.0  0.77930  0.69276  0.95411  1.0000
  C   C7858     1.0  0.89314  0.57380  0.73487  1.0000
  C   C7859     1.0  0.76263  0.53614  0.59682  1.0000
  C   C7860     1.0  0.74918  0.51042  0.74702  1.0000
  C   C7861     1.0  0.89831  0.57955  0.71787  1.0000
  H   H6282     1.0  0.81337  0.64003  0.75356  1.0000
  S   S1094     1.0  0.83325  0.69684  0.95899  1.0000
  C   C7862     1.0  0.78973  0.60124  0.74653  1.0000
  C   C7863     1.0  0.78801  0.61839  0.74094  1.0000
  C   C7864     1.0  0.77374  0.62917  0.74753  1.0000
  C   C7865     1.0  0.76123  0.62274  0.75977  1.0000
  C   C7866     1.0  0.76278  0.60558  0.76508  1.0000
  C   C7867     1.0  0.77706  0.59484  0.75850  1.0000
  H   H6283     1.0  0.79766  0.62336  0.73159  1.0000
  H   H6284     1.0  0.77252  0.64244  0.74334  1.0000
  H   H6285     1.0  0.75301  0.60054  0.77433  1.0000
  H   H6286     1.0  0.77837  0.58159  0.76286  1.0000
  C   C7868     1.0  0.83446  0.66472  0.66394  1.0000
  C   C7869     1.0  0.82726  0.67944  0.65418  1.0000
  C   C7870     1.0  0.83692  0.68713  0.63966  1.0000
  C   C7871     1.0  0.85372  0.67995  0.63478  1.0000
  C   C7872     1.0  0.86073  0.66491  0.64418  1.0000
  C   C7873     1.0  0.85112  0.65733  0.65877  1.0000
  H   H6287     1.0  0.81434  0.68517  0.65810  1.0000
  H   H6288     1.0  0.83150  0.69890  0.63261  1.0000
  H   H6289     1.0  0.87366  0.65927  0.64026  1.0000
  H   H6290     1.0  0.85672  0.64593  0.66607  1.0000
  C   C7874     1.0  0.81513  0.66775  0.93267  1.0000
  C   C7875     1.0  0.81789  0.68364  0.92486  1.0000
  C   C7876     1.0  0.82320  0.69256  0.93311  1.0000
  C   C7877     1.0  0.82556  0.68579  0.94931  1.0000
  C   C7878     1.0  0.82215  0.67019  0.95734  1.0000
  C   C7879     1.0  0.81707  0.66119  0.94902  1.0000
  H   H6291     1.0  0.81634  0.68886  0.91232  1.0000
  H   H6292     1.0  0.82567  0.70468  0.92684  1.0000
  C   C7880     1.0  0.76680  0.66405  0.82847  1.0000
  H   H6293     1.0  0.81493  0.64893  0.95519  1.0000
  C   C7881     1.0  0.77477  0.62997  0.85662  1.0000
  C   C7882     1.0  0.75964  0.63432  0.86744  1.0000
  C   C7883     1.0  0.78369  0.51582  0.58347  1.0000
  C   C7884     1.0  0.76226  0.49027  0.56232  1.0000
  S   S1095     1.0  0.75709  0.67819  0.50778  1.0000
  C   C7885     1.0  0.76076  0.61937  0.84199  1.0000
  H   H6294     1.0  0.75909  0.64004  0.87731  1.0000
  H   H6295     1.0  0.93670  0.66160  0.62464  1.0000
  C   C7886     1.0  0.78367  0.51311  0.54112  1.0000
  H   H6296     1.0  0.76024  0.48952  0.73556  1.0000
  H   H6297     1.0  0.77470  0.69236  0.65017  1.0000
  H   H6298     1.0  0.75760  0.71867  0.95526  1.0000
  C   C7887     1.0  0.89262  0.72234  0.72969  1.0000
  H   H6299     1.0  0.88709  0.71841  0.70840  1.0000
  H   H6300     1.0  0.89579  0.70926  0.73517  1.0000
  C   C7888     1.0  0.90639  0.64580  0.73215  1.0000
  C   C7889     1.0  0.89568  0.64220  0.74750  1.0000
  C   C7890     1.0  0.88406  0.63269  0.74964  1.0000
  C   C7891     1.0  0.88288  0.62692  0.73643  1.0000
  C   C7892     1.0  0.89347  0.63064  0.72101  1.0000
  C   C7893     1.0  0.90534  0.63989  0.71895  1.0000
  H   H6301     1.0  0.89644  0.64668  0.75773  1.0000
  H   H6302     1.0  0.87584  0.62993  0.76155  1.0000
  H   H6303     1.0  0.89273  0.62613  0.71080  1.0000
  H   H6304     1.0  0.91364  0.64261  0.70706  1.0000
  C   C7894     1.0  0.88075  0.66673  0.82040  1.0000
  C   C7895     1.0  0.86969  0.65831  0.83283  1.0000
  C   C7896     1.0  0.85373  0.66689  0.83926  1.0000
  C   C7897     1.0  0.84877  0.68401  0.83344  1.0000
  C   C7898     1.0  0.85999  0.69247  0.82121  1.0000
  C   C7899     1.0  0.87591  0.68386  0.81466  1.0000
  H   H6305     1.0  0.87337  0.64505  0.83714  1.0000
  H   H6306     1.0  0.84523  0.66016  0.84849  1.0000
  H   H6307     1.0  0.85627  0.70568  0.81658  1.0000
  H   H6308     1.0  0.88434  0.69045  0.80500  1.0000
  H   H6309     1.0  0.93168  0.67988  0.69628  1.0000
  C   C7900     1.0  0.75170  0.67100  0.83790  1.0000
  C   C7901     1.0  0.85375  0.68206  0.72556  1.0000
  C   C7902     1.0  0.98385  0.67866  0.77381  1.0000
  C   C7903     1.0  0.79866  0.51597  0.51243  1.0000
  H   H6310     1.0  0.90439  0.58992  0.71329  1.0000
  S   S1096     1.0  0.80810  0.49533  0.61667  1.0000
  C   C7904     1.0  0.78923  0.72078  0.96232  1.0000
  C   C7905     1.0  0.87036  0.71428  0.67903  1.0000
  C   C7906     1.0  0.88679  0.55924  0.71276  1.0000
  C   C7907     1.0  0.78984  0.69757  0.54299  1.0000
  C   C7908     1.0  0.78820  0.70909  0.55242  1.0000
  C   C7909     1.0  0.80219  0.71127  0.55628  1.0000
  C   C7910     1.0  0.81795  0.70225  0.55036  1.0000
  C   C7911     1.0  0.81953  0.69032  0.54142  1.0000
  C   C7912     1.0  0.80549  0.68779  0.53799  1.0000
  H   H6311     1.0  0.83808  0.69893  0.66703  1.0000
  C   C7913     1.0  0.91215  0.72586  0.62942  1.0000
  H   H6312     1.0  0.83167  0.68312  0.53700  1.0000
  H   H6313     1.0  0.80684  0.67863  0.53104  1.0000
  H   H6314     1.0  0.83509  0.55668  0.73500  1.0000
  C   C7914     1.0  0.84940  0.55504  0.64778  1.0000
  C   C7915     1.0  0.83828  0.56380  0.65940  1.0000
  C   C7916     1.0  0.84434  0.57152  0.66835  1.0000
  C   C7917     1.0  0.86149  0.57021  0.66582  1.0000
  C   C7918     1.0  0.87239  0.56118  0.65445  1.0000
  C   C7919     1.0  0.86641  0.55379  0.64546  1.0000
  H   H6315     1.0  0.82510  0.56494  0.66119  1.0000
  H   H6316     1.0  0.83580  0.57856  0.67705  1.0000
  H   H6317     1.0  0.88561  0.56012  0.65235  1.0000
  H   H6318     1.0  0.87508  0.54711  0.63651  1.0000
  C   C7920     1.0  0.78134  0.58815  0.58940  1.0000
  C   C7921     1.0  0.77186  0.60257  0.58137  1.0000
  C   C7922     1.0  0.77863  0.61098  0.56561  1.0000
  C   C7923     1.0  0.79502  0.60533  0.55786  1.0000
  C   C7924     1.0  0.80471  0.59116  0.56607  1.0000
  C   C7925     1.0  0.79785  0.58251  0.58179  1.0000
  H   H6319     1.0  0.75910  0.60700  0.58712  1.0000
  H   H6320     1.0  0.77102  0.62155  0.55926  1.0000
  H   H6321     1.0  0.81745  0.58673  0.56017  1.0000
  H   H6322     1.0  0.80528  0.57141  0.58788  1.0000
  H   H6323     1.0  0.82611  0.54265  0.80032  1.0000
  C   C7926     1.0  0.84257  0.58885  0.58799  1.0000
  H   H6324     1.0  0.75289  0.57004  0.58143  1.0000
  H   H6325     1.0  0.87983  0.61853  0.96043  1.0000
  C   C7927     1.0  0.97685  0.67820  0.79057  1.0000
  C   C7928     1.0  0.75659  0.57735  0.56925  1.0000
  H   H6326     1.0  0.78387  0.56678  0.67649  1.0000
  H   H6327     1.0  0.74272  0.53106  0.63156  1.0000
  H   H6328     1.0  0.96469  0.67547  0.79584  1.0000
  H   H6329     1.0  0.98020  0.68091  0.81350  1.0000
  H   H6330     1.0  0.79425  0.70050  0.62382  1.0000
  C   C7929     1.0  0.87780  0.50384  0.73846  1.0000
  C   C7930     1.0  0.77579  0.49166  0.62266  1.0000
  C   C7931     1.0  0.77528  0.62245  0.84392  1.0000
  C   C7932     1.0  0.77501  0.56465  0.71786  1.0000
  H   H6331     1.0  0.75794  0.64071  0.61029  1.0000
  H   H6332     1.0  0.77197  0.50293  0.62720  1.0000
  C   C7933     1.0  0.76437  0.63181  0.61931  1.0000
  C   C7934     1.0  0.79308  0.58050  0.68811  1.0000
  C   C7935     1.0  0.79262  0.58418  0.70301  1.0000
  C   C7936     1.0  0.78342  0.57647  0.71779  1.0000
  C   C7937     1.0  0.77424  0.55091  0.75377  1.0000
  C   C7938     1.0  0.76497  0.55078  0.76998  1.0000
  C   C7939     1.0  0.77289  0.54849  0.78280  1.0000
  C   C7940     1.0  0.79013  0.54614  0.77957  1.0000
  C   C7941     1.0  0.79949  0.54577  0.76355  1.0000
  C   C7942     1.0  0.79159  0.54793  0.75074  1.0000
  H   H6333     1.0  0.80045  0.58630  0.67671  1.0000
  H   H6334     1.0  0.79942  0.59298  0.70319  1.0000
  H   H6335     1.0  0.78302  0.57959  0.72920  1.0000
  H   H6336     1.0  0.85364  0.57990  0.58401  1.0000
  H   H6337     1.0  0.76558  0.54874  0.79522  1.0000
  H   H6338     1.0  0.79619  0.54466  0.78947  1.0000
  H   H6339     1.0  0.81285  0.54404  0.76099  1.0000
  H   H6340     1.0  0.79900  0.54743  0.73846  1.0000
  H   H6341     1.0  0.92156  0.63901  0.63864  1.0000
  C   C7943     1.0  0.82965  0.58341  0.60040  1.0000
  C   C7944     1.0  0.78387  0.56949  0.68798  1.0000
  H   H6342     1.0  0.77600  0.55342  0.51996  1.0000
  C   C7945     1.0  0.74520  0.71459  0.93855  1.0000
  C   C7946     1.0  0.91753  0.68983  0.67730  1.0000
  C   C7947     1.0  0.84423  0.68450  0.76025  1.0000
  H   H6343     1.0  0.86522  0.50502  0.73749  1.0000
  S   S1097     1.0  0.74386  0.60053  0.80951  1.0000
  C   C7948     1.0  0.88016  0.67112  0.70083  1.0000
  C   C7949     1.0  0.75167  0.48533  0.57751  1.0000
  C   C7950     1.0  0.76386  0.48345  0.62242  1.0000
  C   C7951     1.0  0.80862  0.59950  0.79412  1.0000
  C   C7952     1.0  0.81466  0.60144  0.77708  1.0000
  C   C7953     1.0  0.82924  0.60715  0.76963  1.0000
  C   C7954     1.0  0.83762  0.61127  0.77912  1.0000
  C   C7955     1.0  0.83198  0.60886  0.79634  1.0000
  C   C7956     1.0  0.81723  0.60316  0.80373  1.0000
  P   P263      1.0  0.84214  0.61532  0.80848  1.0000
  C   C7957     1.0  0.83184  0.63649  0.80979  1.0000
  C   C7958     1.0  0.84028  0.60210  0.82897  1.0000
  C   C7959     1.0  0.85365  0.58947  0.83351  1.0000
  C   C7960     1.0  0.85205  0.57964  0.84956  1.0000
  C   C7961     1.0  0.83709  0.58229  0.86115  1.0000
  C   C7962     1.0  0.82373  0.59474  0.85667  1.0000
  C   C7963     1.0  0.82535  0.60459  0.84068  1.0000
  C   C7964     1.0  0.83111  0.64245  0.82361  1.0000
  C   C7965     1.0  0.82224  0.65847  0.82505  1.0000
  C   C7966     1.0  0.81416  0.66872  0.81271  1.0000
  C   C7967     1.0  0.81512  0.66305  0.79873  1.0000
  C   C7968     1.0  0.82398  0.64704  0.79722  1.0000
  C   C7969     1.0  0.86401  0.61393  0.79951  1.0000
  C   C7970     1.0  0.87240  0.62424  0.80255  1.0000
  C   C7971     1.0  0.88937  0.62303  0.79584  1.0000
  C   C7972     1.0  0.89814  0.61142  0.78624  1.0000
  C   C7973     1.0  0.89001  0.60074  0.78359  1.0000
  C   C7974     1.0  0.87305  0.60185  0.79035  1.0000
  H   H6344     1.0  0.79714  0.59531  0.79986  1.0000
  H   H6345     1.0  0.80804  0.59852  0.76964  1.0000
  H   H6346     1.0  0.83400  0.60858  0.75643  1.0000
  H   H6347     1.0  0.84841  0.61651  0.77291  1.0000
  H   H6348     1.0  0.81213  0.60177  0.81684  1.0000
  H   H6349     1.0  0.86535  0.58719  0.82479  1.0000
  H   H6350     1.0  0.86242  0.57000  0.85304  1.0000
  H   H6351     1.0  0.83584  0.57473  0.87359  1.0000
  H   H6352     1.0  0.81208  0.59695  0.86558  1.0000
  H   H6353     1.0  0.81496  0.61428  0.83745  1.0000
  H   H6354     1.0  0.83713  0.63470  0.83343  1.0000
  H   H6355     1.0  0.82150  0.66294  0.83583  1.0000
  H   H6356     1.0  0.79641  0.50898  0.58146  1.0000
  H   H6357     1.0  0.80905  0.67109  0.78904  1.0000
  H   H6358     1.0  0.82458  0.64295  0.78627  1.0000
  H   H6359     1.0  0.86591  0.63335  0.80998  1.0000
  H   H6360     1.0  0.89574  0.63124  0.79794  1.0000
  H   H6361     1.0  0.91120  0.61082  0.78074  1.0000
  H   H6362     1.0  0.89679  0.59182  0.77603  1.0000
  H   H6363     1.0  0.86705  0.59334  0.78828  1.0000
  C   C7975     1.0  0.74361  0.56712  0.74105  1.0000
  H   H6364     1.0  0.76127  0.61362  0.83216  1.0000
  H   H6365     1.0  0.76754  0.55335  0.70241  1.0000
  C   C7976     1.0  0.75558  0.52228  0.57968  1.0000
  C   C7977     1.0  0.76309  0.53349  0.73672  1.0000
  C   C7978     1.0  0.79108  0.67827  0.75890  1.0000
  C   C7979     1.0  0.88472  0.56083  0.74086  1.0000
  C   C7980     1.0  0.81072  0.65315  0.75336  1.0000
  C   C7981     1.0  0.89529  0.57214  0.70683  1.0000
  H   H6366     1.0  0.75199  0.51468  0.65724  1.0000
  C   C7982     1.0  0.82294  0.63273  0.47657  1.0000
  C   C7983     1.0  0.89578  0.66962  0.65733  1.0000
  C   C7984     1.0  0.86963  0.68455  0.72392  1.0000
  C   C7985     1.0  0.78115  0.54018  0.52226  1.0000
  P   P264      1.0  0.89691  0.70265  0.65469  1.0000
  P   P265      1.0  0.76405  0.55405  0.73715  1.0000
  H   H6367     1.0  0.77851  0.68458  0.76347  1.0000
  H   H6368     1.0  0.78813  0.52906  0.59898  1.0000
  H   H6369     1.0  0.87536  0.52595  0.70689  1.0000
  C   C7986     1.0  0.81537  0.59487  0.60563  1.0000
  C   C7987     1.0  0.81411  0.61182  0.59867  1.0000
  C   C7988     1.0  0.82686  0.61736  0.58584  1.0000
  C   C7989     1.0  0.84119  0.60574  0.58070  1.0000
  P   P266      1.0  0.82558  0.63925  0.57684  1.0000
  C   C7990     1.0  0.83526  0.64143  0.55508  1.0000
  C   C7991     1.0  0.80413  0.65033  0.57888  1.0000
  C   C7992     1.0  0.79224  0.64303  0.57702  1.0000
  C   C7993     1.0  0.77571  0.65156  0.57831  1.0000
  C   C7994     1.0  0.77090  0.66757  0.58122  1.0000
  C   C7995     1.0  0.78257  0.67491  0.58321  1.0000
  C   C7996     1.0  0.79912  0.66638  0.58200  1.0000
  C   C7997     1.0  0.85200  0.64249  0.54941  1.0000
  C   C7998     1.0  0.85958  0.64379  0.53266  1.0000
  C   C7999     1.0  0.85065  0.64365  0.52148  1.0000
  C   C8000     1.0  0.83413  0.64228  0.52705  1.0000
  C   C8001     1.0  0.82641  0.64132  0.54373  1.0000
  C   C8002     1.0  0.83674  0.64753  0.58641  1.0000
  C   C8003     1.0  0.84229  0.63825  0.60078  1.0000
  C   C8004     1.0  0.85152  0.64454  0.60764  1.0000
  C   C8005     1.0  0.85535  0.66003  0.60018  1.0000
  C   C8006     1.0  0.84992  0.66932  0.58588  1.0000
  C   C8007     1.0  0.84068  0.66310  0.57900  1.0000
  H   H6370     1.0  0.80527  0.59056  0.61507  1.0000
  H   H6371     1.0  0.80314  0.62048  0.60328  1.0000
  H   H6372     1.0  0.85134  0.60969  0.57109  1.0000
  H   H6373     1.0  0.79578  0.63077  0.57438  1.0000
  H   H6374     1.0  0.76668  0.64579  0.57686  1.0000
  H   H6375     1.0  0.75820  0.67443  0.58161  1.0000
  H   H6376     1.0  0.77891  0.68744  0.58518  1.0000
  H   H6377     1.0  0.80789  0.67260  0.58316  1.0000
  H   H6378     1.0  0.85932  0.64218  0.55790  1.0000
  H   H6379     1.0  0.87245  0.64471  0.52841  1.0000
  H   H6380     1.0  0.85658  0.64436  0.50855  1.0000
  H   H6381     1.0  0.82730  0.64162  0.51854  1.0000
  H   H6382     1.0  0.81363  0.64021  0.54768  1.0000
  H   H6383     1.0  0.83961  0.62615  0.60666  1.0000
  H   H6384     1.0  0.85590  0.63741  0.61865  1.0000
  H   H6385     1.0  0.86269  0.66476  0.60538  1.0000
  H   H6386     1.0  0.85298  0.68132  0.58003  1.0000
  H   H6387     1.0  0.83679  0.67037  0.56776  1.0000
  C   C8008     1.0  0.92532  0.66381  0.63384  1.0000
  H   H6388     1.0  0.74644  0.52076  0.57411  1.0000
  C   C8009     1.0  0.91912  0.67942  0.63775  1.0000
  C   C8010     1.0  0.84739  0.55487  0.76107  1.0000
  C   C8011     1.0  0.77900  0.52726  0.59356  1.0000
  H   H6389     1.0  0.91983  0.72446  0.79396  1.0000
  C   C8012     1.0  0.76963  0.69586  0.94732  1.0000
  H   H6390     1.0  0.90390  0.52632  0.74050  1.0000
  H   H6391     1.0  0.81071  0.72607  0.88835  1.0000
  H   H6392     1.0  0.77003  0.48827  0.53667  1.0000
  H   H6393     1.0  0.74064  0.71345  0.49309  1.0000
  C   C8013     1.0  0.88867  0.48829  0.73945  1.0000
  C   C8014     1.0  0.79679  0.48417  0.56499  1.0000
  H   H6394     1.0  0.75250  0.65627  0.79908  1.0000
  H   H6395     1.0  0.87899  0.71862  0.68285  1.0000
  C   C8015     1.0  0.76711  0.65868  0.81454  1.0000
  C   C8016     1.0  0.81892  0.71846  0.72489  1.0000
  H   H6396     1.0  0.85763  0.52894  0.68772  1.0000
  C   C8017     1.0  0.85388  0.71689  0.68770  1.0000
  H   H6397     1.0  0.75915  0.54507  0.60459  1.0000
  H   H6398     1.0  0.75161  0.55256  0.77272  1.0000
  H   H6399     1.0  0.75774  0.68100  0.92091  1.0000
  H   H6400     1.0  0.90333  0.73111  0.66270  1.0000
  C   C8018     1.0  0.77278  0.57271  0.56035  1.0000
  H   H6401     1.0  0.76860  0.53618  0.54766  1.0000
  H   H6402     1.0  0.75423  0.73110  0.90622  1.0000
  H   H6403     1.0  0.78189  0.48632  0.65546  1.0000
  C   C8019     1.0  0.77808  0.58196  0.54458  1.0000
  H   H6404     1.0  0.82766  0.70550  0.76968  1.0000
  H   H6405     1.0  0.82528  0.69361  0.50457  1.0000
  H   H6406     1.0  0.88077  0.55664  0.75407  1.0000
  H   H6407     1.0  0.79907  0.71708  0.95221  1.0000
  H   H6408     1.0  0.85734  0.67111  0.80229  1.0000
  H   H6409     1.0  0.83874  0.67349  0.71459  1.0000
  H   H6410     1.0  0.92592  0.68912  0.63158  1.0000
  C   C8020     1.0  0.84201  0.68963  0.78711  1.0000
  C   C8021     1.0  0.85386  0.67503  0.79050  1.0000
  C   C8022     1.0  0.74393  0.72050  0.87785  1.0000
  C   C8023     1.0  0.75755  0.68915  0.92857  1.0000
  C   C8024     1.0  0.98566  0.68128  0.80053  1.0000
  H   H6411     1.0  0.85957  0.69764  0.90702  1.0000
  H   H6412     1.0  0.84180  0.68108  0.48113  1.0000
  H   H6413     1.0  0.81351  0.50104  0.55619  1.0000
  S   S1098     1.0  0.74393  0.63614  0.76876  1.0000
  H   H6414     1.0  0.78687  0.61915  0.83541  1.0000
  C   C8025     1.0  0.74960  0.53811  0.68583  1.0000
  H   H6415     1.0  0.79079  0.57873  0.53790  1.0000
  H   H6416     1.0  0.80704  0.51042  0.50249  1.0000
  H   H6417     1.0  0.74262  0.61123  0.54090  1.0000
  H   H6418     1.0  0.89539  0.64415  0.65956  1.0000
  C   C8026     1.0  0.77444  0.50851  0.72581  1.0000
  C   C8027     1.0  0.83711  0.69435  0.77203  1.0000
  H   H6419     1.0  0.75670  0.61110  0.61653  1.0000
  C   C8028     1.0  0.87542  0.70621  0.66579  1.0000
  H   H6420     1.0  0.78136  0.56222  0.56590  1.0000
  C   C8029     1.0  0.92588  0.69103  0.68855  1.0000
  C   C8030     1.0  0.77698  0.53029  0.53801  1.0000
  H   H6421     1.0  0.78214  0.70657  0.48425  1.0000
  H   H6422     1.0  0.81177  0.71071  0.72325  1.0000
  H   H6423     1.0  0.89509  0.68055  0.71080  1.0000
  C   C8031     1.0  0.86426  0.66919  0.70191  1.0000
  C   C8032     1.0  0.88276  0.67907  0.71162  1.0000
  C   C8033     1.0  0.82357  0.66172  0.74772  1.0000
  H   H6424     1.0  0.78368  0.50182  0.71716  1.0000
  H   H6425     1.0  0.88426  0.67155  0.66630  1.0000
  C   C8034     1.0  0.86111  0.66535  0.77874  1.0000
  C   C8035     1.0  0.85615  0.66991  0.76378  1.0000
  H   H6426     1.0  0.83616  0.65493  0.74395  1.0000
  H   H6427     1.0  0.86219  0.66317  0.69340  1.0000
  H   H6428     1.0  0.87067  0.65437  0.78117  1.0000
  H   H6429     1.0  0.86159  0.66200  0.75499  1.0000
  C   C8036     1.0  0.79532  0.70157  0.48310  1.0000
  H   H6430     1.0  0.78033  0.48665  0.68443  1.0000
  H   H6431     1.0  0.80112  0.69982  0.75387  1.0000
  H   H6432     1.0  0.86697  0.69483  0.65117  1.0000
  C   C8037     1.0  0.79370  0.68755  0.62876  1.0000
  C   C8038     1.0  0.78269  0.68294  0.64365  1.0000
  C   C8039     1.0  0.79448  0.66142  0.75886  1.0000
  C   C8040     1.0  0.83674  0.55603  0.77642  1.0000
  H   H6433     1.0  0.84888  0.56616  0.75191  1.0000
  C   C8041     1.0  0.86353  0.70096  0.66137  1.0000
  H   H6434     1.0  0.87840  0.71308  0.62841  1.0000
  C   C8042     1.0  0.91680  0.65109  0.64172  1.0000
  H   H6435     1.0  0.83652  0.69709  0.79634  1.0000
  C   C8043     1.0  0.92630  0.70657  0.69025  1.0000
  H   H6436     1.0  0.83025  0.56810  0.77894  1.0000
  C   C8044     1.0  0.91004  0.71980  0.66943  1.0000
  H   H6437     1.0  0.78456  0.65470  0.76324  1.0000
  C   C8045     1.0  0.81235  0.48827  0.56102  1.0000
  C   C8046     1.0  0.81961  0.69416  0.49464  1.0000
  C   C8047     1.0  0.88769  0.72755  0.71453  1.0000
  H   H6438     1.0  0.77907  0.67383  0.93742  1.0000
  C   C8048     1.0  0.89947  0.51583  0.74018  1.0000
  C   C8049     1.0  0.77471  0.56173  0.70278  1.0000
  C   C8050     1.0  0.90493  0.48649  0.74078  1.0000
  H   H6439     1.0  0.75185  0.67478  0.84877  1.0000
  Fe  Fe553     1.0  0.75037  0.65470  0.52403  1.0000
  H   H6440     1.0  0.93237  0.70745  0.69931  1.0000
  H   H6441     1.0  0.84080  0.51501  0.79438  1.0000
  H   H6442     1.0  0.85948  0.51274  0.76742  1.0000
  C   C8051     1.0  0.94633  0.71647  0.78645  1.0000
  C   C8052     1.0  0.93133  0.72819  0.78710  1.0000
  H   H6443     1.0  0.75382  0.61121  0.70157  1.0000
  H   H6444     1.0  0.87202  0.69045  0.73233  1.0000
  C   C8053     1.0  0.89006  0.61848  0.93460  1.0000
  C   C8054     1.0  0.87766  0.62291  0.94800  1.0000
  C   C8055     1.0  0.86246  0.63314  0.94538  1.0000
  C   C8056     1.0  0.85963  0.63886  0.92939  1.0000
  C   C8057     1.0  0.87198  0.63443  0.91581  1.0000
  C   C8058     1.0  0.88728  0.62424  0.91855  1.0000
  P   P267      1.0  0.86802  0.64245  0.89521  1.0000
  C   C8059     1.0  0.85416  0.63168  0.89208  1.0000
  C   C8060     1.0  0.85898  0.66437  0.89319  1.0000
  C   C8061     1.0  0.84893  0.67261  0.88181  1.0000
  C   C8062     1.0  0.84277  0.68975  0.87951  1.0000
  C   C8063     1.0  0.84665  0.69878  0.88853  1.0000
  C   C8064     1.0  0.85671  0.69069  0.89986  1.0000
  C   C8065     1.0  0.86299  0.67358  0.90208  1.0000
  C   C8066     1.0  0.85580  0.62871  0.87641  1.0000
  C   C8067     1.0  0.84535  0.62013  0.87399  1.0000
  C   C8068     1.0  0.83290  0.61476  0.88710  1.0000
  C   C8069     1.0  0.83104  0.61778  0.90265  1.0000
  C   C8070     1.0  0.84167  0.62609  0.90517  1.0000
  C   C8071     1.0  0.88665  0.63983  0.87913  1.0000
  C   C8072     1.0  0.89516  0.62381  0.87698  1.0000
  C   C8073     1.0  0.90828  0.62162  0.86335  1.0000
  C   C8074     1.0  0.91285  0.63541  0.85166  1.0000
  C   C8075     1.0  0.90451  0.65137  0.85372  1.0000
  C   C8076     1.0  0.89150  0.65362  0.86739  1.0000
  H   H6445     1.0  0.90190  0.61066  0.93666  1.0000
  C   C8077     1.0  0.85100  0.67488  0.71409  1.0000
  H   H6446     1.0  0.85285  0.63676  0.95572  1.0000
  H   H6447     1.0  0.84783  0.64697  0.92759  1.0000
  H   H6448     1.0  0.89719  0.62089  0.90840  1.0000
  H   H6449     1.0  0.84614  0.66588  0.87447  1.0000
  H   H6450     1.0  0.83507  0.69605  0.87065  1.0000
  H   H6451     1.0  0.82388  0.66483  0.96983  1.0000
  H   H6452     1.0  0.97585  0.71917  0.74256  1.0000
  H   H6453     1.0  0.87104  0.66764  0.91068  1.0000
  H   H6454     1.0  0.86498  0.63323  0.86595  1.0000
  H   H6455     1.0  0.84653  0.61813  0.86184  1.0000
  H   H6456     1.0  0.82433  0.60876  0.88508  1.0000
  H   H6457     1.0  0.82108  0.61410  0.91273  1.0000
  H   H6458     1.0  0.83974  0.62841  0.91729  1.0000
  H   H6459     1.0  0.89127  0.61302  0.88554  1.0000
  H   H6460     1.0  0.91462  0.60926  0.86159  1.0000
  H   H6461     1.0  0.92260  0.63380  0.84076  1.0000
  H   H6462     1.0  0.90777  0.66202  0.84434  1.0000
  H   H6463     1.0  0.88497  0.66615  0.86832  1.0000
  C   C8078     1.0  0.78214  0.66622  0.65021  1.0000
  C   C8079     1.0  0.79286  0.65398  0.64200  1.0000
  C   C8080     1.0  0.80356  0.65876  0.62685  1.0000
  P   P268      1.0  0.79278  0.63225  0.65024  1.0000
  C   C8081     1.0  0.81448  0.62170  0.64727  1.0000
  C   C8082     1.0  0.78358  0.62887  0.67223  1.0000
  C   C8083     1.0  0.78936  0.63491  0.68258  1.0000
  C   C8084     1.0  0.78247  0.63245  0.69952  1.0000
  C   C8085     1.0  0.76972  0.62384  0.70640  1.0000
  C   C8086     1.0  0.76361  0.61803  0.69622  1.0000
  C   C8087     1.0  0.77036  0.62067  0.67920  1.0000
  C   C8088     1.0  0.82064  0.60848  0.63910  1.0000
  C   C8089     1.0  0.83756  0.60111  0.63613  1.0000
  C   C8090     1.0  0.84847  0.60663  0.64156  1.0000
  C   C8091     1.0  0.84254  0.61977  0.64964  1.0000
  C   C8092     1.0  0.82572  0.62749  0.65218  1.0000
  C   C8093     1.0  0.78151  0.62553  0.63933  1.0000
  C   C8094     1.0  0.77337  0.63700  0.62739  1.0000
  H   H6464     1.0  0.77823  0.66229  0.83235  1.0000
  H   H6465     1.0  0.73872  0.52721  0.80575  1.0000
  C   C8095     1.0  0.77151  0.60371  0.63478  1.0000
  C   C8096     1.0  0.78042  0.60884  0.64299  1.0000
  H   H6466     1.0  0.77349  0.66293  0.66172  1.0000
  H   H6467     1.0  0.81164  0.64957  0.62015  1.0000
  H   H6468     1.0  0.79902  0.64182  0.67762  1.0000
  H   H6469     1.0  0.78713  0.63724  0.70726  1.0000
  H   H6470     1.0  0.76466  0.62161  0.71962  1.0000
  H   H6471     1.0  0.85170  0.71645  0.74084  1.0000
  H   H6472     1.0  0.76515  0.61621  0.67172  1.0000
  H   H6473     1.0  0.81264  0.60382  0.63481  1.0000
  H   H6474     1.0  0.84220  0.59085  0.62990  1.0000
  H   H6475     1.0  0.86151  0.60057  0.63971  1.0000
  H   H6476     1.0  0.85102  0.62402  0.65389  1.0000
  H   H6477     1.0  0.82165  0.63811  0.65779  1.0000
  H   H6478     1.0  0.77380  0.64998  0.62431  1.0000
  C   C8097     1.0  0.80404  0.67545  0.62031  1.0000
  H   H6479     1.0  0.89902  0.57675  0.69362  1.0000
  H   H6480     1.0  0.77073  0.59083  0.63756  1.0000
  H   H6481     1.0  0.78640  0.59976  0.65226  1.0000
  C   C8098     1.0  0.85581  0.53930  0.75754  1.0000
  C   C8099     1.0  0.85331  0.52493  0.76970  1.0000
  C   C8100     1.0  0.84266  0.52615  0.78507  1.0000
  C   C8101     1.0  0.83438  0.54170  0.78843  1.0000
  H   H6482     1.0  0.81259  0.67893  0.60877  1.0000
  C   C8102     1.0  0.82019  0.67880  0.74722  1.0000
  H   H6483     1.0  0.80088  0.72031  0.56332  1.0000
  H   H6484     1.0  0.82948  0.71320  0.69020  1.0000
  H   H6485     1.0  0.83071  0.57030  0.60597  1.0000
  H   H6486     1.0  0.92109  0.72401  0.63675  1.0000
  C   C8103     1.0  0.80389  0.68691  0.75323  1.0000
  H   H6487     1.0  0.79531  0.70601  0.50635  1.0000
  C   C8104     1.0  0.91031  0.50025  0.74117  1.0000
  C   C8105     1.0  0.77551  0.52430  0.72626  1.0000
  S   S1099     1.0  0.90001  0.72788  0.75643  1.0000
  C   C8106     1.0  0.76713  0.59574  0.53762  1.0000
  H   H6488     1.0  0.80732  0.68112  0.81396  1.0000
  C   C8107     1.0  0.89896  0.71759  0.63517  1.0000
  H   H6489     1.0  0.89060  0.66618  0.69190  1.0000
  C   C8108     1.0  0.96110  0.72111  0.77726  1.0000
  P   P269      1.0  0.83700  0.68945  0.74148  1.0000
  C   C8109     1.0  0.90948  0.70422  0.66766  1.0000
  C   C8110     1.0  0.84014  0.55009  0.72511  1.0000
  P   P270      1.0  0.86912  0.53786  0.73737  1.0000
  H   H6490     1.0  0.81801  0.55976  0.71556  1.0000
  C   C8111     1.0  0.76354  0.61517  0.62290  1.0000
  C   C8112     1.0  0.83028  0.55183  0.71409  1.0000
  C   C8113     1.0  0.88316  0.51776  0.73873  1.0000
  C   C8114     1.0  0.84139  0.72165  0.73471  1.0000
  H   H6491     1.0  0.97267  0.71198  0.77703  1.0000
  C   C8115     1.0  0.75019  0.52624  0.74743  1.0000
  C   C8116     1.0  0.74572  0.62331  0.85311  1.0000
  C   C8117     1.0  0.84709  0.70328  0.67032  1.0000
  C   C8118     1.0  0.85630  0.54024  0.72307  1.0000
  H   H6492     1.0  0.91704  0.67764  0.67653  1.0000
  H   H6493     1.0  0.98818  0.65745  0.73357  1.0000
  H   H6494     1.0  0.92292  0.49886  0.74219  1.0000
  C   C8119     1.0  0.83637  0.54373  0.70099  1.0000
  H   H6495     1.0  0.88420  0.55407  0.70392  1.0000
  C   C8120     1.0  0.88108  0.55375  0.72982  1.0000
  C   C8121     1.0  0.77208  0.51331  0.57630  1.0000
  C   C8122     1.0  0.85265  0.53448  0.69843  1.0000
  C   C8123     1.0  0.86265  0.53284  0.70932  1.0000
  C   C8124     1.0  0.83153  0.71153  0.73377  1.0000
  C   C8125     1.0  0.90426  0.68249  0.64950  1.0000
  H   H6496     1.0  0.78588  0.52936  0.71821  1.0000
  C   C8126     1.0  0.76962  0.68516  0.93779  1.0000
  H   H6497     1.0  0.73921  0.58965  0.60155  1.0000
  H   H6498     1.0  0.94654  0.70376  0.79310  1.0000
  C   C8127     1.0  0.82898  0.68722  0.48118  1.0000
  C   C8128     1.0  0.75394  0.72673  0.86284  1.0000
  C   C8129     1.0  0.74527  0.63071  0.86584  1.0000
  H   H6499     1.0  0.79988  0.49284  0.53024  1.0000
  H   H6500     1.0  0.79515  0.54070  0.49725  1.0000
  H   H6501     1.0  0.86888  0.69772  0.95989  1.0000
  H   H6502     1.0  0.77877  0.65276  0.80763  1.0000
  H   H6503     1.0  0.81917  0.62652  0.48935  1.0000
  C   C8130     1.0  0.76165  0.48519  0.54842  1.0000
  C   C8131     1.0  0.79151  0.73019  0.90981  1.0000
  C   C8132     1.0  0.79457  0.50604  0.52818  1.0000
  H   H6504     1.0  0.77610  0.71657  0.55651  1.0000
  H   H6505     1.0  0.80165  0.73078  0.50841  1.0000
  C   C8133     1.0  0.75739  0.71051  0.94782  1.0000
  H   H6506     1.0  0.77133  0.60293  0.52543  1.0000
  C   C8134     1.0  0.80276  0.70122  0.49564  1.0000
  H   H6507     1.0  0.78636  0.63194  0.47592  1.0000
  S   S1100     1.0  0.74895  0.69995  0.88850  1.0000
  H   H6508     1.0  0.84187  0.71203  0.88672  1.0000
  H   H6509     1.0  0.87295  0.72535  0.94295  1.0000
  H   H6510     1.0  0.85029  0.72322  0.69777  1.0000
  C   C8135     1.0  0.88829  0.71969  0.62470  1.0000
  C   C8136     1.0  0.74211  0.51186  0.65371  1.0000
  C   C8137     1.0  0.75088  0.53359  0.58996  1.0000
  C   C8138     1.0  0.89052  0.73008  0.60898  1.0000
  P   P271      1.0  0.77856  0.50017  0.56148  1.0000
  C   C8139     1.0  0.79197  0.53302  0.50946  1.0000
  H   H6511     1.0  0.82416  0.65468  0.48281  1.0000
  C   C8140     1.0  0.74218  0.54690  0.67249  1.0000
  C   C8141     1.0  0.75233  0.66061  0.80978  1.0000
  H   H6512     1.0  0.83603  0.72993  0.64532  1.0000
  H   H6513     1.0  0.74561  0.53000  0.71226  1.0000
  H   H6514     1.0  0.75244  0.48836  0.58859  1.0000
  H   H6515     1.0  0.75086  0.48848  0.62679  1.0000
  C   C8142     1.0  0.74545  0.70383  0.92884  1.0000
  C   C8143     1.0  0.87408  0.72189  0.95571  1.0000
  H   H6516     1.0  0.75079  0.58311  0.75197  1.0000
  H   H6517     1.0  0.76513  0.71874  0.85753  1.0000
  H   H6518     1.0  0.74959  0.54833  0.66004  1.0000
  H   H6519     1.0  0.78378  0.72342  0.90752  1.0000
  C   C8144     1.0  0.73994  0.53661  0.70192  1.0000
  C   C8145     1.0  0.87181  0.70629  0.96522  1.0000
  H   H6520     1.0  0.74075  0.53288  0.75596  1.0000
  H   H6521     1.0  0.74238  0.62389  0.56528  1.0000
  C   C8146     1.0  0.75094  0.60045  0.54650  1.0000
  C   C8147     1.0  0.74560  0.59142  0.56251  1.0000
  H   H6522     1.0  0.73863  0.49246  0.67510  1.0000
  H   H6523     1.0  0.81580  0.73087  0.96344  1.0000
  H   H6524     1.0  0.73889  0.50516  0.75504  1.0000
  H   H6525     1.0  0.80680  0.76177  0.23361  1.0000
  H   H6526     1.0  0.93622  0.75770  0.05878  1.0000
  Fe  Fe554     1.0  0.90679  0.80121  0.19413  1.0000
  S   S1101     1.0  0.90138  0.81886  0.17086  1.0000
  S   S1102     1.0  0.88492  0.78998  0.20846  1.0000
  Fe  Fe555     1.0  0.94280  0.80423  0.18544  1.0000
  S   S1103     1.0  0.94018  0.82186  0.16109  1.0000
  S   S1104     1.0  0.96764  0.79182  0.19270  1.0000
  Fe  Fe556     1.0  0.91608  0.83407  0.17547  1.0000
  S   S1105     1.0  0.90603  0.86147  0.16771  1.0000
  Fe  Fe557     1.0  0.92545  0.80547  0.15825  1.0000
  S   S1106     1.0  0.92810  0.79976  0.13356  1.0000
  S   S1107     1.0  0.91941  0.81767  0.20028  1.0000
  S   S1108     1.0  0.93010  0.78653  0.18118  1.0000
  Fe  Fe558     1.0  0.79763  0.90704  0.18991  1.0000
  S   S1109     1.0  0.77762  0.92352  0.20466  1.0000
  S   S1110     1.0  0.79609  0.90463  0.16501  1.0000
  Fe  Fe559     1.0  0.82056  0.89961  0.21351  1.0000
  S   S1111     1.0  0.80249  0.91586  0.22991  1.0000
  S   S1112     1.0  0.84357  0.88402  0.22192  1.0000
  Fe  Fe560     1.0  0.78382  0.90398  0.22667  1.0000
  S   S1113     1.0  0.76437  0.89487  0.24819  1.0000
  Fe  Fe561     1.0  0.79826  0.93385  0.20632  1.0000
  S   S1114     1.0  0.79589  0.96161  0.19918  1.0000
  S   S1115     1.0  0.80225  0.88645  0.21182  1.0000
  S   S1116     1.0  0.81799  0.91860  0.19008  1.0000
  C   C8148     1.0  0.77353  0.74447  0.29061  1.0000
  H   H6527     1.0  0.80007  0.75056  0.19660  1.0000
  C   C8149     1.0  0.90137  0.75533  0.24642  1.0000
  H   H6528     1.0  0.80384  0.88074  0.12047  1.0000
  C   C8150     1.0  0.81943  0.88753  0.26462  1.0000
  H   H6529     1.0  0.78073  0.82498  0.16413  1.0000
  C   C8151     1.0  0.78555  0.74098  0.29991  1.0000
  C   C8152     1.0  0.83154  0.96899  0.09972  1.0000
  C   C8153     1.0  0.76696  0.88937  0.14542  1.0000
  C   C8154     1.0  0.80589  0.88164  0.26453  1.0000
  C   C8155     1.0  0.82426  0.74607  0.18081  1.0000
  C   C8156     1.0  0.78999  0.75865  0.99745  1.0000
  H   H6530     1.0  0.75723  0.94930  0.22927  1.0000
  H   H6531     1.0  0.79952  0.76347  0.98762  1.0000
  H   H6532     1.0  0.77708  0.83258  0.23252  1.0000
  C   C8157     1.0  0.78023  0.89651  0.16319  1.0000
  C   C8158     1.0  0.77861  0.89689  0.14739  1.0000
  H   H6533     1.0  0.84299  0.79647  0.21158  1.0000
  C   C8159     1.0  0.75826  0.88126  0.17510  1.0000
  C   C8160     1.0  0.76969  0.88912  0.17707  1.0000
  H   H6534     1.0  0.78656  0.90285  0.13664  1.0000
  H   H6535     1.0  0.81953  0.79670  0.17151  1.0000
  H   H6536     1.0  0.77080  0.88893  0.18926  1.0000
  H   H6537     1.0  0.77694  0.93635  0.17142  1.0000
  H   H6538     1.0  0.81883  0.96629  0.24353  1.0000
  H   H6539     1.0  0.86989  0.77529  0.99948  1.0000
  C   C8161     1.0  0.95721  0.75675  0.11071  1.0000
  C   C8162     1.0  0.83360  0.74878  0.16463  1.0000
  C   C8163     1.0  0.74283  0.79007  0.44230  1.0000
  H   H6540     1.0  0.78776  0.85862  0.17748  1.0000
  S   S1117     1.0  0.74089  0.81308  0.27272  1.0000
  C   C8164     1.0  0.76308  0.78367  0.34063  1.0000
  H   H6541     1.0  0.80785  0.95107  0.22980  1.0000
  H   H6542     1.0  0.74661  0.91740  0.16552  1.0000
  S   S1118     1.0  0.86373  0.73970  0.06683  1.0000
  H   H6543     1.0  0.93652  0.80087  0.08648  1.0000
  H   H6544     1.0  0.82830  0.81761  0.18570  1.0000
  C   C8165     1.0  0.91149  0.79367  0.13044  1.0000
  C   C8166     1.0  0.89502  0.79967  0.13789  1.0000
  C   C8167     1.0  0.88214  0.79434  0.13522  1.0000
  C   C8168     1.0  0.77533  0.76947  0.00314  1.0000
  H   H6545     1.0  0.89224  0.80838  0.14568  1.0000
  H   H6546     1.0  0.86946  0.79901  0.14101  1.0000
  C   C8169     1.0  0.90071  0.76861  0.23255  1.0000
  C   C8170     1.0  0.88816  0.77200  0.22393  1.0000
  H   H6547     1.0  0.90941  0.77661  0.22901  1.0000
  C   C8171     1.0  0.88878  0.86817  0.18266  1.0000
  C   C8172     1.0  0.88837  0.86127  0.19940  1.0000
  C   C8173     1.0  0.87457  0.86662  0.21134  1.0000
  C   C8174     1.0  0.86089  0.87837  0.20657  1.0000
  C   C8175     1.0  0.86127  0.88537  0.18982  1.0000
  C   C8176     1.0  0.87536  0.88044  0.17788  1.0000
  H   H6548     1.0  0.89884  0.85205  0.20317  1.0000
  H   H6549     1.0  0.87444  0.86151  0.22431  1.0000
  H   H6550     1.0  0.85081  0.89458  0.18606  1.0000
  H   H6551     1.0  0.87574  0.88587  0.16495  1.0000
  H   H6552     1.0  0.96188  0.75774  0.06605  1.0000
  C   C8177     1.0  0.77842  0.94820  0.16339  1.0000
  Fe  Fe562     1.0  0.82796  0.73216  0.29604  1.0000
  C   C8178     1.0  0.98207  0.80063  0.19672  1.0000
  C   C8179     1.0  0.97766  0.81638  0.20026  1.0000
  C   C8180     1.0  0.82796  0.76269  0.09537  1.0000
  S   S1119     1.0  0.89338  0.75150  0.08682  1.0000
  H   H6553     1.0  0.74707  0.82573  0.07142  1.0000
  H   H6554     1.0  0.96524  0.82375  0.20013  1.0000
  C   C8181     1.0  0.81222  0.92146  0.09887  1.0000
  H   H6555     1.0  0.84206  0.76566  0.21167  1.0000
  C   C8182     1.0  0.96176  0.80539  0.09818  1.0000
  H   H6556     1.0  0.95410  0.78147  0.14819  1.0000
  H   H6557     1.0  0.83366  0.75983  0.13926  1.0000
  H   H6558     1.0  0.74960  0.79872  0.43315  1.0000
  C   C8183     1.0  0.80232  0.97216  0.21024  1.0000
  C   C8184     1.0  0.79230  0.74160  0.00446  1.0000
  C   C8185     1.0  0.78318  0.77645  0.08990  1.0000
  C   C8186     1.0  0.79108  0.75388  0.30211  1.0000
  C   C8187     1.0  0.74228  0.75685  0.36346  1.0000
  C   C8188     1.0  0.77459  0.83105  0.14035  1.0000
  C   C8189     1.0  0.80889  0.76520  0.15476  1.0000
  H   H6559     1.0  0.82021  0.75367  0.00600  1.0000
  H   H6560     1.0  0.80493  0.83699  0.21664  1.0000
  C   C8190     1.0  0.79861  0.94671  0.10897  1.0000
  C   C8191     1.0  0.77565  0.82531  0.12639  1.0000
  C   C8192     1.0  0.80222  0.83425  0.22999  1.0000
  H   H6561     1.0  0.78403  0.80458  0.11467  1.0000
  H   H6562     1.0  0.75048  0.87504  0.18581  1.0000
  C   C8193     1.0  0.75352  0.76574  0.14205  1.0000
  H   H6563     1.0  0.79924  0.75230  0.03138  1.0000
  C   C8194     1.0  0.90513  0.76044  0.16686  1.0000
  H   H6564     1.0  0.76079  0.77831  0.20433  1.0000
  H   H6565     1.0  0.79412  0.79587  0.16298  1.0000
  H   H6566     1.0  0.86756  0.76392  0.22161  1.0000
  C   C8195     1.0  0.76730  0.78454  0.09671  1.0000
  H   H6567     1.0  0.90400  0.76544  0.19023  1.0000
  H   H6568     1.0  0.80736  0.78372  0.26745  1.0000
  C   C8196     1.0  0.87710  0.76149  0.22840  1.0000
  C   C8197     1.0  0.77382  0.73979  0.14413  1.0000
  C   C8198     1.0  0.79962  0.76253  0.17109  1.0000
  S   S1120     1.0  0.86980  0.77468  0.12353  1.0000
  H   H6569     1.0  0.84687  0.79221  0.09606  1.0000
  H   H6570     1.0  0.74083  0.77245  0.14210  1.0000
  C   C8199     1.0  0.84234  0.96140  0.12918  1.0000
  C   C8200     1.0  0.95654  0.74743  0.12686  1.0000
  C   C8201     1.0  0.80932  0.73687  0.45120  1.0000
  H   H6571     1.0  0.84944  0.77156  0.07986  1.0000
  C   C8202     1.0  0.79677  0.91822  0.10032  1.0000
  H   H6572     1.0  0.75560  0.74139  0.03239  1.0000
  C   C8203     1.0  0.74846  0.94068  0.14849  1.0000
  S   S1121     1.0  0.80851  0.74939  0.31064  1.0000
  H   H6573     1.0  0.79401  0.89012  0.26378  1.0000
  H   H6574     1.0  0.78642  0.76765  0.17378  1.0000
  C   C8204     1.0  0.78331  0.80882  0.12559  1.0000
  C   C8205     1.0  0.83773  0.78466  0.09954  1.0000
  S   S1122     1.0  0.75055  0.88460  0.10908  1.0000
  C   C8206     1.0  0.78895  0.80384  0.15272  1.0000
  C   C8207     1.0  0.78139  0.82037  0.15343  1.0000
  C   C8208     1.0  0.81208  0.86989  0.12600  1.0000
  C   C8209     1.0  0.82602  0.75829  0.15165  1.0000
  C   C8210     1.0  0.81930  0.84021  0.13611  1.0000
  C   C8211     1.0  0.83317  0.84188  0.14042  1.0000
  C   C8212     1.0  0.83645  0.85764  0.13786  1.0000
  C   C8213     1.0  0.82598  0.87161  0.13020  1.0000
  P   P272      1.0  0.85420  0.85964  0.14397  1.0000
  C   C8214     1.0  0.85378  0.88117  0.14258  1.0000
  C   C8215     1.0  0.85379  0.84787  0.16498  1.0000
  C   C8216     1.0  0.84799  0.85559  0.17850  1.0000
  C   C8217     1.0  0.84811  0.84619  0.19456  1.0000
  C   C8218     1.0  0.85395  0.82901  0.19728  1.0000
  C   C8219     1.0  0.85960  0.82122  0.18395  1.0000
  C   C8220     1.0  0.85961  0.83058  0.16790  1.0000
  C   C8221     1.0  0.86774  0.88798  0.13425  1.0000
  C   C8222     1.0  0.86732  0.90452  0.13359  1.0000
  C   C8223     1.0  0.85293  0.91445  0.14106  1.0000
  C   C8224     1.0  0.83891  0.90791  0.14903  1.0000
  C   C8225     1.0  0.83937  0.89134  0.14988  1.0000
  C   C8226     1.0  0.87325  0.85047  0.13135  1.0000
  C   C8227     1.0  0.87331  0.84587  0.11696  1.0000
  C   C8228     1.0  0.88820  0.83829  0.10769  1.0000
  C   C8229     1.0  0.90309  0.83546  0.11262  1.0000
  C   C8230     1.0  0.90311  0.84017  0.12684  1.0000
  C   C8231     1.0  0.88826  0.84754  0.13623  1.0000
  S   S1123     1.0  0.74180  0.93257  0.09408  1.0000
  C   C8232     1.0  0.78376  0.77033  0.29590  1.0000
  H   H6575     1.0  0.82345  0.91298  0.09438  1.0000
  H   H6576     1.0  0.84126  0.83084  0.14581  1.0000
  H   H6577     1.0  0.82834  0.88389  0.12751  1.0000
  H   H6578     1.0  0.84368  0.86885  0.17687  1.0000
  H   H6579     1.0  0.84403  0.85236  0.20483  1.0000
  H   H6580     1.0  0.85445  0.82173  0.20964  1.0000
  H   H6581     1.0  0.86443  0.80794  0.18598  1.0000
  H   H6582     1.0  0.86456  0.82428  0.15776  1.0000
  H   H6583     1.0  0.87910  0.88061  0.12847  1.0000
  H   H6584     1.0  0.87827  0.90952  0.12754  1.0000
  H   H6585     1.0  0.85269  0.92713  0.14082  1.0000
  H   H6586     1.0  0.82768  0.91561  0.15473  1.0000
  H   H6587     1.0  0.82847  0.88638  0.15636  1.0000
  H   H6588     1.0  0.86193  0.84793  0.11294  1.0000
  H   H6589     1.0  0.88818  0.83432  0.09685  1.0000
  H   H6590     1.0  0.91457  0.82916  0.10576  1.0000
  H   H6591     1.0  0.91458  0.83761  0.13091  1.0000
  H   H6592     1.0  0.88847  0.85092  0.14736  1.0000
  C   C8233     1.0  0.78111  0.83659  0.19434  1.0000
  C   C8234     1.0  0.78751  0.96434  0.13599  1.0000
  C   C8235     1.0  0.78319  0.94312  0.11071  1.0000
  H   H6593     1.0  0.84192  0.79161  0.00916  1.0000
  C   C8236     1.0  0.78604  0.76010  0.08829  1.0000
  C   C8237     1.0  0.74488  0.78058  0.06487  1.0000
  C   C8238     1.0  0.82925  0.77374  0.00810  1.0000
  C   C8239     1.0  0.76523  0.74617  0.02266  1.0000
  H   H6594     1.0  0.75482  0.93501  0.13805  1.0000
  C   C8240     1.0  0.74376  0.93072  0.16400  1.0000
  H   H6595     1.0  0.79845  0.75412  0.08282  1.0000
  H   H6596     1.0  0.76764  0.96175  0.18268  1.0000
  H   H6597     1.0  0.76643  0.78651  0.28151  1.0000
  H   H6598     1.0  0.95390  0.82593  0.11023  1.0000
  C   C8241     1.0  0.78343  0.75790  0.23331  1.0000
  H   H6599     1.0  0.84457  0.78646  0.15157  1.0000
  H   H6600     1.0  0.91844  0.97298  0.14074  1.0000
  H   H6601     1.0  0.75125  0.77134  0.01958  1.0000
  H   H6602     1.0  0.94698  0.74042  0.13268  1.0000
  H   H6603     1.0  0.76792  0.84205  0.19690  1.0000
  C   C8242     1.0  0.84679  0.74893  0.99941  1.0000
  C   C8243     1.0  0.81510  0.82271  0.18805  1.0000
  C   C8244     1.0  0.96628  0.83294  0.08472  1.0000
  H   H6604     1.0  0.75363  0.76025  0.17656  1.0000
  C   C8245     1.0  0.85912  0.77042  0.00089  1.0000
  S   S1124     1.0  0.86277  0.73638  0.11268  1.0000
  H   H6605     1.0  0.84675  0.74336  0.16198  1.0000
  C   C8246     1.0  0.80085  0.74214  0.04192  1.0000
  C   C8247     1.0  0.75599  0.80653  0.31199  1.0000
  C   C8248     1.0  0.84331  0.77973  0.00633  1.0000
  C   C8249     1.0  0.86011  0.95766  0.18372  1.0000
  C   C8250     1.0  0.74387  0.76807  0.05804  1.0000
  H   H6606     1.0  0.76429  0.77014  0.44315  1.0000
  C   C8251     1.0  0.77447  0.79322  0.33073  1.0000
  H   H6607     1.0  0.77030  0.92643  0.10756  1.0000
  C   C8252     1.0  0.74645  0.85616  0.23484  1.0000
  H   H6608     1.0  0.91078  0.77917  0.06507  1.0000
  C   C8253     1.0  0.84646  0.95431  0.19647  1.0000
  H   H6609     1.0  0.78603  0.79173  0.33417  1.0000
  C   C8254     1.0  0.85850  0.92489  0.20043  1.0000
  C   C8255     1.0  0.87209  0.92803  0.18764  1.0000
  C   C8256     1.0  0.87292  0.94435  0.17927  1.0000
  C   C8257     1.0  0.74001  0.95607  0.21329  1.0000
  C   C8258     1.0  0.77296  0.75172  0.09327  1.0000
  C   C8259     1.0  0.88952  0.73980  0.01940  1.0000
  H   H6610     1.0  0.84749  0.74097  0.04147  1.0000
  H   H6611     1.0  0.89598  0.73704  0.04255  1.0000
  C   C8260     1.0  0.75139  0.95908  0.22032  1.0000
  H   H6612     1.0  0.81696  0.78099  0.01215  1.0000
  C   C8261     1.0  0.74197  0.85814  0.25117  1.0000
  C   C8262     1.0  0.80728  0.75294  0.18404  1.0000
  C   C8263     1.0  0.86099  0.75497  0.99729  1.0000
  C   C8264     1.0  0.82607  0.96102  0.12963  1.0000
  C   C8265     1.0  0.74468  0.79686  0.32174  1.0000
  H   H6613     1.0  0.85346  0.97631  0.20922  1.0000
  C   C8266     1.0  0.87800  0.74808  0.24195  1.0000
  H   H6614     1.0  0.94820  0.75650  0.10424  1.0000
  C   C8267     1.0  0.74099  0.81671  0.18248  1.0000
  C   C8268     1.0  0.78011  0.73540  0.01738  1.0000
  C   C8269     1.0  0.74691  0.73973  0.21685  1.0000
  C   C8270     1.0  0.74506  0.95789  0.14654  1.0000
  H   H6615     1.0  0.88197  0.91774  0.18428  1.0000
  H   H6616     1.0  0.88356  0.94639  0.16943  1.0000
  H   H6617     1.0  0.83342  0.96729  0.16835  1.0000
  H   H6618     1.0  0.74202  0.78254  0.10715  1.0000
  H   H6619     1.0  0.88015  0.75092  0.02100  1.0000
  H   H6620     1.0  0.75306  0.81556  0.30105  1.0000
  H   H6621     1.0  0.77998  0.73941  0.17598  1.0000
  S   S1125     1.0  0.77283  0.79086  0.99503  1.0000
  H   H6622     1.0  0.85401  0.79227  0.23606  1.0000
  H   H6623     1.0  0.79572  0.78901  0.24311  1.0000
  C   C8271     1.0  0.76277  0.76314  0.01541  1.0000
  C   C8272     1.0  0.89298  0.75765  0.97401  1.0000
  C   C8273     1.0  0.75627  0.86614  0.22279  1.0000
  H   H6624     1.0  0.84649  0.95850  0.14061  1.0000
  C   C8274     1.0  0.96728  0.84846  0.12863  1.0000
  C   C8275     1.0  0.74251  0.96317  0.09786  1.0000
  C   C8276     1.0  0.97672  0.83241  0.13267  1.0000
  S   S1126     1.0  0.74387  0.86984  0.15718  1.0000
  H   H6625     1.0  0.77758  0.97260  0.09139  1.0000
  Fe  Fe563     1.0  0.87993  0.75160  0.11304  1.0000
  C   C8277     1.0  0.77088  0.74004  0.18744  1.0000
  H   H6626     1.0  0.75976  0.86467  0.21022  1.0000
  H   H6627     1.0  0.82954  0.75333  0.08850  1.0000
  H   H6628     1.0  0.82435  0.79476  0.12075  1.0000
  C   C8278     1.0  0.80869  0.85424  0.12903  1.0000
  H   H6629     1.0  0.97885  0.83620  0.05908  1.0000
  H   H6630     1.0  0.76968  0.73442  0.28852  1.0000
  H   H6631     1.0  0.76501  0.79732  0.09768  1.0000
  H   H6632     1.0  0.91685  0.74399  0.97942  1.0000
  H   H6633     1.0  0.90856  0.75202  0.14463  1.0000
  H   H6634     1.0  0.78812  0.78032  0.29742  1.0000
  H   H6635     1.0  0.74400  0.87160  0.26798  1.0000
  C   C8279     1.0  0.81521  0.76395  0.10945  1.0000
  C   C8280     1.0  0.75706  0.75992  0.10024  1.0000
  C   C8281     1.0  0.81316  0.93563  0.10321  1.0000
  C   C8282     1.0  0.74862  0.74332  0.39040  1.0000
  C   C8283     1.0  0.78619  0.74831  0.14196  1.0000
  Fe  Fe564     1.0  0.74584  0.80269  0.00171  1.0000
  C   C8284     1.0  0.88967  0.74537  0.25141  1.0000
  C   C8285     1.0  0.96949  0.79987  0.08349  1.0000
  P   P273      1.0  0.75261  0.74157  0.46741  1.0000
  C   C8286     1.0  0.77087  0.80475  0.31649  1.0000
  C   C8287     1.0  0.92215  0.77954  0.06789  1.0000
  Fe  Fe565     1.0  0.87777  0.73423  0.08724  1.0000
  C   C8288     1.0  0.91073  0.74872  0.15701  1.0000
  C   C8289     1.0  0.74804  0.78552  0.33626  1.0000
  H   H6636     1.0  0.79873  0.74127  0.14216  1.0000
  C   C8290     1.0  0.84785  0.96916  0.09932  1.0000
  H   H6637     1.0  0.78095  0.75447  0.05842  1.0000
  H   H6638     1.0  0.86567  0.73422  0.18025  1.0000
  C   C8291     1.0  0.96011  0.82184  0.09880  1.0000
  C   C8292     1.0  0.97215  0.76988  0.16306  1.0000
  C   C8293     1.0  0.75112  0.77384  0.44802  1.0000
  C   C8294     1.0  0.97561  0.81113  0.06935  1.0000
  C   C8295     1.0  0.77289  0.96255  0.16963  1.0000
  H   H6639     1.0  0.77959  0.81228  0.30891  1.0000
  C   C8296     1.0  0.83478  0.87661  0.26533  1.0000
  C   C8297     1.0  0.83666  0.85982  0.26580  1.0000
  C   C8298     1.0  0.82319  0.85387  0.26538  1.0000
  C   C8299     1.0  0.80772  0.86489  0.26494  1.0000
  P   P274      1.0  0.82552  0.83216  0.26614  1.0000
  C   C8300     1.0  0.81069  0.83083  0.25554  1.0000
  C   C8301     1.0  0.84647  0.82384  0.25590  1.0000
  C   C8302     1.0  0.85411  0.83290  0.24084  1.0000
  C   C8303     1.0  0.87007  0.82621  0.23270  1.0000
  C   C8304     1.0  0.87870  0.81070  0.23968  1.0000
  C   C8305     1.0  0.87140  0.80176  0.25481  1.0000
  C   C8306     1.0  0.85538  0.80830  0.26294  1.0000
  C   C8307     1.0  0.79471  0.82883  0.26440  1.0000
  C   C8308     1.0  0.78274  0.82925  0.25611  1.0000
  C   C8309     1.0  0.83924  0.77299  0.09045  1.0000
  C   C8310     1.0  0.81430  0.83361  0.23823  1.0000
  C   C8311     1.0  0.82166  0.82081  0.28737  1.0000
  C   C8312     1.0  0.82414  0.82667  0.29992  1.0000
  C   C8313     1.0  0.82244  0.81715  0.31609  1.0000
  C   C8314     1.0  0.81844  0.80166  0.31980  1.0000
  C   C8315     1.0  0.81589  0.79576  0.30739  1.0000
  C   C8316     1.0  0.81736  0.80536  0.29129  1.0000
  H   H6640     1.0  0.84537  0.88127  0.26499  1.0000
  H   H6641     1.0  0.84870  0.85160  0.26617  1.0000
  H   H6642     1.0  0.79705  0.86076  0.26462  1.0000
  H   H6643     1.0  0.84778  0.84514  0.23535  1.0000
  H   H6644     1.0  0.87578  0.83291  0.22083  1.0000
  H   H6645     1.0  0.89102  0.80554  0.23324  1.0000
  H   H6646     1.0  0.87811  0.78961  0.26008  1.0000
  H   H6647     1.0  0.85008  0.80105  0.27461  1.0000
  H   H6648     1.0  0.79124  0.82754  0.27765  1.0000
  H   H6649     1.0  0.77035  0.82805  0.26293  1.0000
  H   H6650     1.0  0.82622  0.83576  0.23098  1.0000
  H   H6651     1.0  0.82762  0.83846  0.29722  1.0000
  H   H6652     1.0  0.82448  0.82171  0.32570  1.0000
  H   H6653     1.0  0.81742  0.79416  0.33226  1.0000
  H   H6654     1.0  0.81291  0.78367  0.31017  1.0000
  H   H6655     1.0  0.81541  0.80057  0.28185  1.0000
  C   C8317     1.0  0.78650  0.83192  0.23891  1.0000
  H   H6656     1.0  0.74795  0.74378  0.40297  1.0000
  H   H6657     1.0  0.77826  0.81350  0.21113  1.0000
  H   H6658     1.0  0.74909  0.96567  0.13466  1.0000
  C   C8318     1.0  0.82054  0.96488  0.11486  1.0000
  H   H6659     1.0  0.76496  0.75470  0.97682  1.0000
  H   H6660     1.0  0.78381  0.79290  0.19375  1.0000
  C   C8319     1.0  0.80078  0.74122  0.46623  1.0000
  H   H6661     1.0  0.83640  0.96436  0.19992  1.0000
  C   C8320     1.0  0.92232  0.79163  0.07575  1.0000
  C   C8321     1.0  0.78385  0.78316  0.20480  1.0000
  H   H6662     1.0  0.91057  0.75315  0.25358  1.0000
  H   H6663     1.0  0.86761  0.75703  0.19159  1.0000
  C   C8322     1.0  0.77077  0.77490  0.21074  1.0000
  H   H6664     1.0  0.81774  0.84677  0.17277  1.0000
  H   H6665     1.0  0.75194  0.74188  0.34517  1.0000
  S   S1127     1.0  0.84140  0.74314  0.27094  1.0000
  H   H6666     1.0  0.79327  0.78292  0.08564  1.0000
  H   H6667     1.0  0.75595  0.73300  0.00014  1.0000
  H   H6668     1.0  0.81677  0.82805  0.13827  1.0000
  C   C8323     1.0  0.84409  0.78233  0.16472  1.0000
  C   C8324     1.0  0.85774  0.77131  0.17029  1.0000
  C   C8325     1.0  0.85699  0.76549  0.18723  1.0000
  C   C8326     1.0  0.84259  0.77066  0.19859  1.0000
  C   C8327     1.0  0.82931  0.78269  0.19308  1.0000
  C   C8328     1.0  0.82988  0.78798  0.17605  1.0000
  P   P275      1.0  0.81190  0.79160  0.20768  1.0000
  C   C8329     1.0  0.79653  0.77918  0.21347  1.0000
  C   C8330     1.0  0.81882  0.79204  0.22546  1.0000
  C   C8331     1.0  0.80853  0.78958  0.24134  1.0000
  C   C8332     1.0  0.81501  0.78684  0.25523  1.0000
  C   C8333     1.0  0.83150  0.78746  0.25334  1.0000
  C   C8334     1.0  0.84128  0.79159  0.23757  1.0000
  C   C8335     1.0  0.83495  0.79396  0.22366  1.0000
  C   C8336     1.0  0.79674  0.76577  0.22717  1.0000
  H   H6669     1.0  0.86882  0.76713  0.16145  1.0000
  H   H6670     1.0  0.83680  0.78451  0.26406  1.0000
  C   C8337     1.0  0.80403  0.81298  0.19856  1.0000
  C   C8338     1.0  0.78701  0.82025  0.20217  1.0000
  C   C8339     1.0  0.80798  0.96403  0.22473  1.0000
  C   C8340     1.0  0.79221  0.84597  0.18350  1.0000
  C   C8341     1.0  0.80919  0.83917  0.18063  1.0000
  C   C8342     1.0  0.88574  0.78266  0.12545  1.0000
  H   H6671     1.0  0.76858  0.84384  0.14099  1.0000
  H   H6672     1.0  0.81810  0.90061  0.26381  1.0000
  C   C8343     1.0  0.91492  0.78272  0.12003  1.0000
  H   H6673     1.0  0.77048  0.83369  0.11617  1.0000
  C   C8344     1.0  0.76155  0.87811  0.22694  1.0000
  C   C8345     1.0  0.77036  0.76261  0.22526  1.0000
  C   C8346     1.0  0.90215  0.77705  0.11767  1.0000
  C   C8347     1.0  0.95145  0.77982  0.07603  1.0000
  C   C8348     1.0  0.90815  0.75626  0.18271  1.0000
  H   H6674     1.0  0.79786  0.85304  0.12577  1.0000
  C   C8349     1.0  0.73859  0.83641  0.06608  1.0000
  S   S1128     1.0  0.75215  0.76489  0.27163  1.0000
  H   H6675     1.0  0.77181  0.95132  0.11535  1.0000
  C   C8350     1.0  0.75059  0.74227  0.35788  1.0000
  H   H6676     1.0  0.89681  0.97181  0.16650  1.0000
  H   H6677     1.0  0.97322  0.82473  0.14479  1.0000
  C   C8351     1.0  0.96869  0.74644  0.13513  1.0000
  H   H6678     1.0  0.92756  0.77826  0.11413  1.0000
  C   C8352     1.0  0.75749  0.74849  0.14415  1.0000
  H   H6679     1.0  0.97051  0.80128  0.12917  1.0000
  H   H6680     1.0  0.89859  0.77282  0.16224  1.0000
  H   H6681     1.0  0.95669  0.79701  0.10914  1.0000
  C   C8353     1.0  0.98107  0.75540  0.12760  1.0000
  P   P276      1.0  0.96984  0.77899  0.08267  1.0000
  H   H6682     1.0  0.76244  0.78761  0.13846  1.0000
  C   C8354     1.0  0.82493  0.78605  0.11355  1.0000
  C   C8355     1.0  0.78974  0.79785  0.13889  1.0000
  C   C8356     1.0  0.81359  0.77565  0.11869  1.0000
  H   H6683     1.0  0.75995  0.75672  0.23051  1.0000
  H   H6684     1.0  0.90509  0.76817  0.10997  1.0000
  H   H6685     1.0  0.81792  0.95774  0.14152  1.0000
  P   P277      1.0  0.79850  0.77627  0.13801  1.0000
  H   H6686     1.0  0.83011  0.73857  0.19088  1.0000
  C   C8357     1.0  0.87638  0.97955  0.15408  1.0000
  H   H6687     1.0  0.79068  0.93754  0.14246  1.0000
  H   H6688     1.0  0.79595  0.90736  0.09683  1.0000
  H   H6689     1.0  0.83502  0.93551  0.21457  1.0000
  C   C8358     1.0  0.78595  0.94900  0.14675  1.0000
  H   H6690     1.0  0.91100  0.80054  0.07918  1.0000
  C   C8359     1.0  0.96942  0.76606  0.10315  1.0000
  H   H6691     1.0  0.97876  0.78566  0.04651  1.0000
  C   C8360     1.0  0.97222  0.85890  0.11345  1.0000
  H   H6692     1.0  0.96493  0.84570  0.08522  1.0000
  C   C8361     1.0  0.77487  0.73940  0.46138  1.0000
  H   H6693     1.0  0.76601  0.77501  0.35172  1.0000
  H   H6694     1.0  0.95631  0.85289  0.13747  1.0000
  C   C8362     1.0  0.76665  0.76089  0.28384  1.0000
  H   H6695     1.0  0.80696  0.75553  0.11315  1.0000
  C   C8363     1.0  0.78228  0.92900  0.10632  1.0000
  H   H6696     1.0  0.76871  0.88607  0.21748  1.0000
  C   C8364     1.0  0.96603  0.78140  0.15003  1.0000
  C   C8365     1.0  0.76589  0.77431  0.13990  1.0000
  H   H6697     1.0  0.85794  0.91230  0.20701  1.0000
  C   C8366     1.0  0.79045  0.74332  0.05731  1.0000
  C   C8367     1.0  0.75728  0.88003  0.24321  1.0000
  C   C8368     1.0  0.98117  0.76556  0.11185  1.0000
  C   C8369     1.0  0.75705  0.88117  0.15929  1.0000
  C   C8370     1.0  0.74237  0.76263  0.45991  1.0000
  H   H6698     1.0  0.78297  0.74848  0.24465  1.0000
  C   C8371     1.0  0.78240  0.76564  0.13978  1.0000
  C   C8372     1.0  0.93688  0.79177  0.07984  1.0000
  C   C8373     1.0  0.74169  0.80689  0.17174  1.0000
  C   C8374     1.0  0.85325  0.96534  0.11405  1.0000
  H   H6699     1.0  0.86591  0.96538  0.11374  1.0000
  C   C8375     1.0  0.95108  0.76757  0.06837  1.0000
  C   C8376     1.0  0.83104  0.75835  0.00464  1.0000
  C   C8377     1.0  0.93652  0.76753  0.06421  1.0000
  C   C8378     1.0  0.91662  0.74033  0.18885  1.0000
  H   H6700     1.0  0.82524  0.93778  0.10214  1.0000
  C   C8379     1.0  0.84564  0.93801  0.20477  1.0000
  H   H6701     1.0  0.74585  0.76435  0.31788  1.0000
  H   H6702     1.0  0.96474  0.76147  0.17160  1.0000
  C   C8380     1.0  0.74385  0.75192  0.20272  1.0000
  H   H6703     1.0  0.76603  0.88951  0.13317  1.0000
  C   C8381     1.0  0.77153  0.77383  0.28680  1.0000
  C   C8382     1.0  0.90548  0.97610  0.14014  1.0000
  P   P278      1.0  0.79947  0.96486  0.11514  1.0000
  C   C8383     1.0  0.75432  0.77621  0.10201  1.0000
  C   C8384     1.0  0.75580  0.97445  0.21531  1.0000
  C   C8385     1.0  0.97541  0.79255  0.13925  1.0000
  H   H6704     1.0  0.96502  0.87143  0.11048  1.0000
  C   C8386     1.0  0.98807  0.77103  0.06816  1.0000
  C   C8387     1.0  0.78356  0.73528  0.44617  1.0000
  H   H6705     1.0  0.82261  0.73579  0.44735  1.0000
  C   C8388     1.0  0.81421  0.97266  0.23246  1.0000
  C   C8389     1.0  0.91918  0.73272  0.16309  1.0000
  H   H6706     1.0  0.77711  0.73306  0.43814  1.0000
  C   C8390     1.0  0.75588  0.75173  0.18789  1.0000
  C   C8391     1.0  0.98671  0.85332  0.10237  1.0000
  H   H6707     1.0  0.74556  0.82808  0.17780  1.0000
  H   H6708     1.0  0.75659  0.78417  0.06244  1.0000
  S   S1129     1.0  0.74414  0.85224  0.08718  1.0000
  H   H6709     1.0  0.84773  0.73699  0.99701  1.0000
  H   H6710     1.0  0.96874  0.73841  0.14720  1.0000
  H   H6711     1.0  0.86944  0.74002  0.24522  1.0000
  P   P279      1.0  0.86069  0.97891  0.17304  1.0000
  H   H6712     1.0  0.74667  0.75401  0.10397  1.0000
  C   C8392     1.0  0.74739  0.87010  0.25536  1.0000
  C   C8393     1.0  0.89321  0.97545  0.15471  1.0000
  H   H6713     1.0  0.85629  0.97227  0.08758  1.0000
  H   H6714     1.0  0.98556  0.83446  0.20761  1.0000
  H   H6715     1.0  0.74794  0.74181  0.14590  1.0000
  C   C8394     1.0  0.97410  0.82757  0.07002  1.0000
  H   H6716     1.0  0.75476  0.76188  0.05041  1.0000
  C   C8395     1.0  0.98771  0.76945  0.16528  1.0000
  P   P280      1.0  0.88134  0.74349  0.98917  1.0000
  C   C8396     1.0  0.74172  0.75745  0.37970  1.0000
  H   H6717     1.0  0.76504  0.97656  0.22037  1.0000
  H   H6718     1.0  0.98142  0.80735  0.05780  1.0000
  H   H6719     1.0  0.82746  0.97203  0.08822  1.0000
  H   H6720     1.0  0.75304  0.96282  0.08750  1.0000
  H   H6721     1.0  0.80350  0.73333  0.99987  1.0000
  S   S1130     1.0  0.73996  0.84131  0.22924  1.0000
  C   C8397     1.0  0.80069  0.73397  0.44115  1.0000
  H   H6722     1.0  0.91893  0.73742  0.20116  1.0000
  H   H6723     1.0  0.74685  0.81069  0.15867  1.0000
  C   C8398     1.0  0.78362  0.74257  0.47129  1.0000
  H   H6724     1.0  0.95233  0.73254  0.17761  1.0000
  C   C8399     1.0  0.78165  0.97882  0.14227  1.0000
  C   C8400     1.0  0.77009  0.74191  0.97602  1.0000
  C   C8401     1.0  0.77438  0.97787  0.15906  1.0000
  C   C8402     1.0  0.83027  0.98069  0.16610  1.0000
  C   C8403     1.0  0.90106  0.98091  0.12483  1.0000
  C   C8404     1.0  0.89233  0.73299  0.00559  1.0000
  H   H6725     1.0  0.80079  0.73202  0.34705  1.0000
  C   C8405     1.0  0.89853  0.73197  0.03170  1.0000
  P   P281      1.0  0.74089  0.83224  0.78727  1.0000
  C   C8406     1.0  0.74399  0.90274  0.77766  1.0000
  H   H6726     1.0  0.82180  0.95082  0.61544  1.0000
  C   C8407     1.0  0.80661  0.75183  0.51345  1.0000
  H   H6727     1.0  0.74839  0.78143  0.87901  1.0000
  H   H6728     1.0  0.88747  0.79299  0.71946  1.0000
  C   C8408     1.0  0.79367  0.79123  0.54369  1.0000
  H   H6729     1.0  0.94587  0.76235  0.76416  1.0000
  S   S1131     1.0  0.85859  0.76831  0.57264  1.0000
  C   C8409     1.0  0.74258  0.82553  0.53880  1.0000
  H   H6730     1.0  0.97302  0.79673  0.70260  1.0000
  H   H6731     1.0  0.85925  0.74184  0.64511  1.0000
  C   C8410     1.0  0.75047  0.79558  0.52868  1.0000
  C   C8411     1.0  0.75997  0.79795  0.53834  1.0000
  C   C8412     1.0  0.77477  0.77237  0.94365  1.0000
  C   C8413     1.0  0.77452  0.75558  0.53316  1.0000
  S   S1132     1.0  0.77343  0.81837  0.58888  1.0000
  H   H6732     1.0  0.88057  0.77227  0.78352  1.0000
  Fe  Fe566     1.0  0.78626  0.94039  0.64450  1.0000
  S   S1133     1.0  0.80035  0.91609  0.65692  1.0000
  S   S1134     1.0  0.78260  0.96334  0.65463  1.0000
  Fe  Fe567     1.0  0.77427  0.92300  0.62460  1.0000
  S   S1135     1.0  0.78740  0.89762  0.63553  1.0000
  S   S1136     1.0  0.75918  0.92903  0.60527  1.0000
  Fe  Fe568     1.0  0.77826  0.90608  0.65946  1.0000
  S   S1137     1.0  0.76773  0.88972  0.68317  1.0000
  Fe  Fe569     1.0  0.80838  0.90980  0.63203  1.0000
  S   S1138     1.0  0.83463  0.89713  0.62242  1.0000
  S   S1139     1.0  0.76331  0.93063  0.64884  1.0000
  S   S1140     1.0  0.79601  0.93485  0.61911  1.0000
  Fe  Fe570     1.0  0.88864  0.77308  0.67131  1.0000
  S   S1141     1.0  0.91263  0.77097  0.65248  1.0000
  C   C8414     1.0  0.92976  0.74990  0.73148  1.0000
  Fe  Fe571     1.0  0.88034  0.81063  0.66146  1.0000
  S   S1142     1.0  0.90368  0.81191  0.64164  1.0000
  S   S1143     1.0  0.85963  0.83058  0.67128  1.0000
  Fe  Fe572     1.0  0.89812  0.79044  0.63536  1.0000
  S   S1144     1.0  0.90259  0.78888  0.60867  1.0000
  Fe  Fe573     1.0  0.91646  0.79235  0.66023  1.0000
  S   S1145     1.0  0.94140  0.78854  0.66664  1.0000
  S   S1146     1.0  0.87385  0.79089  0.65362  1.0000
  S   S1147     1.0  0.89351  0.79267  0.68052  1.0000
  H   H6733     1.0  0.84700  0.77680  0.69988  1.0000
  C   C8415     1.0  0.81771  0.75262  0.64699  1.0000
  H   H6734     1.0  0.93254  0.76333  0.95861  1.0000
  C   C8416     1.0  0.84752  0.94568  0.66969  1.0000
  C   C8417     1.0  0.77104  0.78246  0.95506  1.0000
  H   H6735     1.0  0.76228  0.75646  0.54123  1.0000
  C   C8418     1.0  0.75379  0.79188  0.92973  1.0000
  P   P282      1.0  0.79041  0.75328  0.94573  1.0000
  C   C8419     1.0  0.93555  0.81818  0.70949  1.0000
  H   H6736     1.0  0.76189  0.75167  0.88099  1.0000
  C   C8420     1.0  0.84166  0.87875  0.63607  1.0000
  C   C8421     1.0  0.85763  0.86918  0.63165  1.0000
  C   C8422     1.0  0.86333  0.85436  0.64241  1.0000
  C   C8423     1.0  0.85302  0.84908  0.65756  1.0000
  C   C8424     1.0  0.83717  0.85881  0.66210  1.0000
  C   C8425     1.0  0.83145  0.87356  0.65134  1.0000
  H   H6737     1.0  0.86560  0.87324  0.61989  1.0000
  H   H6738     1.0  0.87570  0.84705  0.63898  1.0000
  H   H6739     1.0  0.82923  0.85488  0.67390  1.0000
  H   H6740     1.0  0.81912  0.88088  0.65483  1.0000
  C   C8426     1.0  0.83110  0.93994  0.63767  1.0000
  C   C8427     1.0  0.88488  0.89470  0.68113  1.0000
  H   H6741     1.0  0.82009  0.75309  0.91852  1.0000
  C   C8428     1.0  0.74675  0.91662  0.60362  1.0000
  C   C8429     1.0  0.75018  0.89926  0.60878  1.0000
  C   C8430     1.0  0.80663  0.98102  0.63522  1.0000
  H   H6742     1.0  0.91959  0.75383  0.77982  1.0000
  C   C8431     1.0  0.74607  0.73752  0.48969  1.0000
  H   H6743     1.0  0.76060  0.89304  0.61450  1.0000
  H   H6744     1.0  0.73916  0.83697  0.54308  1.0000
  C   C8432     1.0  0.87078  0.77277  0.58366  1.0000
  C   C8433     1.0  0.86838  0.76832  0.60097  1.0000
  C   C8434     1.0  0.87801  0.77310  0.60903  1.0000
  C   C8435     1.0  0.89004  0.78225  0.59976  1.0000
  C   C8436     1.0  0.89244  0.78642  0.58253  1.0000
  C   C8437     1.0  0.88279  0.78189  0.57458  1.0000
  H   H6745     1.0  0.85903  0.76143  0.60814  1.0000
  H   H6746     1.0  0.87627  0.76964  0.62231  1.0000
  H   H6747     1.0  0.90172  0.79341  0.57526  1.0000
  H   H6748     1.0  0.88472  0.78544  0.56126  1.0000
  C   C8438     1.0  0.78782  0.76395  0.61370  1.0000
  C   C8439     1.0  0.79981  0.77233  0.60296  1.0000
  C   C8440     1.0  0.79534  0.78924  0.59601  1.0000
  C   C8441     1.0  0.77894  0.79787  0.59974  1.0000
  C   C8442     1.0  0.76718  0.78988  0.61157  1.0000
  C   C8443     1.0  0.77165  0.77288  0.61862  1.0000
  H   H6749     1.0  0.81248  0.76573  0.59965  1.0000
  H   H6750     1.0  0.80445  0.79550  0.58719  1.0000
  H   H6751     1.0  0.75460  0.79663  0.61496  1.0000
  H   H6752     1.0  0.76240  0.76651  0.62716  1.0000
  C   C8444     1.0  0.88927  0.75100  0.73049  1.0000
  C   C8445     1.0  0.88487  0.75617  0.71510  1.0000
  C   C8446     1.0  0.96099  0.73750  0.76862  1.0000
  H   H6753     1.0  0.88986  0.76010  0.73664  1.0000
  H   H6754     1.0  0.88184  0.76921  0.70958  1.0000
  C   C8447     1.0  0.91408  0.73659  0.61384  1.0000
  C   C8448     1.0  0.81467  0.76919  0.64799  1.0000
  H   H6755     1.0  0.86537  0.81161  0.70570  1.0000
  C   C8449     1.0  0.73928  0.84855  0.71667  1.0000
  H   H6756     1.0  0.75024  0.79051  0.57294  1.0000
  C   C8450     1.0  0.80813  0.75646  0.95086  1.0000
  H   H6757     1.0  0.77853  0.78535  0.76367  1.0000
  H   H6758     1.0  0.90484  0.74693  0.59153  1.0000
  H   H6759     1.0  0.80220  0.77661  0.64844  1.0000
  H   H6760     1.0  0.80631  0.74065  0.71046  1.0000
  H   H6761     1.0  0.76329  0.92398  0.68386  1.0000
  C   C8451     1.0  0.96801  0.79703  0.67084  1.0000
  C   C8452     1.0  0.95305  0.80301  0.66545  1.0000
  C   C8453     1.0  0.94811  0.82001  0.65910  1.0000
  C   C8454     1.0  0.95817  0.83086  0.65809  1.0000
  C   C8455     1.0  0.74407  0.88194  0.74940  1.0000
  H   H6762     1.0  0.93664  0.82477  0.65484  1.0000
  H   H6763     1.0  0.95434  0.84399  0.65312  1.0000
  H   H6764     1.0  0.90927  0.81870  0.75608  1.0000
  C   C8456     1.0  0.73967  0.81954  0.82096  1.0000
  C   C8457     1.0  0.80048  0.76462  0.52206  1.0000
  H   H6765     1.0  0.87899  0.74511  0.95523  1.0000
  H   H6766     1.0  0.90286  0.83569  0.72203  1.0000
  C   C8458     1.0  0.93099  0.80908  0.72568  1.0000
  C   C8459     1.0  0.73880  0.89679  0.70580  1.0000
  H   H6767     1.0  0.76871  0.76989  0.92178  1.0000
  C   C8460     1.0  0.73995  0.96673  0.77989  1.0000
  S   S1148     1.0  0.79283  0.74223  0.61976  1.0000
  C   C8461     1.0  0.81193  0.77221  0.94615  1.0000
  C   C8462     1.0  0.95698  0.82580  0.71719  1.0000
  H   H6768     1.0  0.75558  0.88536  0.65723  1.0000
  H   H6769     1.0  0.95182  0.83373  0.69287  1.0000
  C   C8463     1.0  0.97323  0.82479  0.66338  1.0000
  H   H6770     1.0  0.75299  0.78406  0.52484  1.0000
  H   H6771     1.0  0.74699  0.79559  0.92000  1.0000
  C   C8464     1.0  0.78004  0.97270  0.73041  1.0000
  C   C8465     1.0  0.74144  0.74659  0.51517  1.0000
  C   C8466     1.0  0.74558  0.77252  0.89048  1.0000
  H   H6772     1.0  0.76640  0.93184  0.75596  1.0000
  H   H6773     1.0  0.75217  0.80587  0.76842  1.0000
  C   C8467     1.0  0.88763  0.79321  0.78660  1.0000
  C   C8468     1.0  0.75590  0.81305  0.54338  1.0000
  C   C8469     1.0  0.74567  0.74961  0.49796  1.0000
  H   H6774     1.0  0.83143  0.80974  0.53962  1.0000
  H   H6775     1.0  0.79009  0.74883  0.56300  1.0000
  H   H6776     1.0  0.75599  0.80477  0.96272  1.0000
  H   H6777     1.0  0.97195  0.78394  0.67587  1.0000
  H   H6778     1.0  0.77975  0.92198  0.70600  1.0000
  C   C8470     1.0  0.91025  0.75471  0.97195  1.0000
  H   H6779     1.0  0.77740  0.74587  0.48301  1.0000
  H   H6780     1.0  0.89490  0.89502  0.68626  1.0000
  C   C8471     1.0  0.81193  0.74689  0.91614  1.0000
  C   C8472     1.0  0.82522  0.77475  0.95077  1.0000
  C   C8473     1.0  0.75239  0.78506  0.67995  1.0000
  C   C8474     1.0  0.79754  0.80434  0.53041  1.0000
  C   C8475     1.0  0.88421  0.74445  0.70702  1.0000
  C   C8476     1.0  0.79670  0.74099  0.51462  1.0000
  H   H6781     1.0  0.80858  0.77255  0.52130  1.0000
  C   C8477     1.0  0.84881  0.95986  0.65687  1.0000
  H   H6782     1.0  0.97666  0.77329  0.77076  1.0000
  H   H6783     1.0  0.88752  0.79334  0.94448  1.0000
  C   C8478     1.0  0.80347  0.78505  0.55552  1.0000
  C   C8479     1.0  0.95296  0.81624  0.73313  1.0000
  P   P283      1.0  0.84406  0.92727  0.66614  1.0000
  C   C8480     1.0  0.75013  0.78899  0.69521  1.0000
  C   C8481     1.0  0.82368  0.92528  0.67868  1.0000
  C   C8482     1.0  0.82037  0.90976  0.68771  1.0000
  C   C8483     1.0  0.80459  0.90860  0.69757  1.0000
  C   C8484     1.0  0.79207  0.92289  0.69868  1.0000
  C   C8485     1.0  0.83156  0.74575  0.96422  1.0000
  C   C8486     1.0  0.74253  0.85188  0.77281  1.0000
  C   C8487     1.0  0.84927  0.97469  0.66023  1.0000
  H   H6784     1.0  0.84499  0.93610  0.69603  1.0000
  H   H6785     1.0  0.77754  0.77902  0.96501  1.0000
  H   H6786     1.0  0.91906  0.79066  0.69939  1.0000
  H   H6787     1.0  0.86190  0.84203  0.70006  1.0000
  C   C8488     1.0  0.84475  0.93038  0.64438  1.0000
  H   H6788     1.0  0.85009  0.89374  0.66117  1.0000
  H   H6789     1.0  0.74503  0.80751  0.81790  1.0000
  H   H6790     1.0  0.89455  0.86926  0.67883  1.0000
  C   C8489     1.0  0.86042  0.92727  0.61679  1.0000
  C   C8490     1.0  0.85952  0.92429  0.63373  1.0000
  C   C8491     1.0  0.79531  0.93836  0.68996  1.0000
  P   P284      1.0  0.77697  0.78179  0.54476  1.0000
  H   H6791     1.0  0.88162  0.79168  0.79958  1.0000
  H   H6792     1.0  0.79020  0.80926  0.52108  1.0000
  S   S1149     1.0  0.87893  0.75078  0.68763  1.0000
  H   H6793     1.0  0.82972  0.89849  0.68704  1.0000
  H   H6794     1.0  0.80193  0.89658  0.70402  1.0000
  H   H6795     1.0  0.77442  0.73625  0.93177  1.0000
  H   H6796     1.0  0.74462  0.89355  0.74038  1.0000
  H   H6797     1.0  0.74337  0.87664  0.60925  1.0000
  H   H6798     1.0  0.87307  0.92017  0.68115  1.0000
  C   C8492     1.0  0.75880  0.79708  0.95382  1.0000
  H   H6799     1.0  0.92688  0.76368  0.69131  1.0000
  P   P285      1.0  0.98024  0.74358  0.75807  1.0000
  H   H6800     1.0  0.92920  0.81882  0.70004  1.0000
  H   H6801     1.0  0.84739  0.93899  0.59714  1.0000
  H   H6802     1.0  0.89381  0.77585  0.75400  1.0000
  H   H6803     1.0  0.80772  0.74753  0.64644  1.0000
  H   H6804     1.0  0.87167  0.92215  0.60875  1.0000
  H   H6805     1.0  0.87043  0.91726  0.63839  1.0000
  C   C8493     1.0  0.77045  0.77064  0.56564  1.0000
  H   H6806     1.0  0.82493  0.78641  0.56288  1.0000
  C   C8494     1.0  0.75675  0.77786  0.57657  1.0000
  C   C8495     1.0  0.75217  0.90277  0.69462  1.0000
  C   C8496     1.0  0.76010  0.75262  0.59771  1.0000
  C   C8497     1.0  0.75292  0.91929  0.69238  1.0000
  C   C8498     1.0  0.77915  0.75443  0.57105  1.0000
  H   H6807     1.0  0.80062  0.77518  0.56602  1.0000
  H   H6808     1.0  0.88042  0.85403  0.70863  1.0000
  H   H6809     1.0  0.81390  0.82128  0.51881  1.0000
  H   H6810     1.0  0.81924  0.75002  0.50628  1.0000
  S   S1150     1.0  0.82380  0.74524  0.57597  1.0000
  C   C8499     1.0  0.83072  0.81720  0.57720  1.0000
  C   C8500     1.0  0.84544  0.81932  0.56572  1.0000
  C   C8501     1.0  0.84943  0.83489  0.56051  1.0000
  C   C8502     1.0  0.83851  0.84846  0.56643  1.0000
  C   C8503     1.0  0.82339  0.84655  0.57758  1.0000
  C   C8504     1.0  0.81975  0.83071  0.58317  1.0000
  P   P286      1.0  0.80859  0.86413  0.58459  1.0000
  C   C8505     1.0  0.80349  0.85916  0.60689  1.0000
  C   C8506     1.0  0.81693  0.88266  0.57713  1.0000
  C   C8507     1.0  0.81934  0.89079  0.58804  1.0000
  C   C8508     1.0  0.82482  0.90564  0.58196  1.0000
  C   C8509     1.0  0.82787  0.91256  0.56503  1.0000
  C   C8510     1.0  0.82536  0.90466  0.55412  1.0000
  C   C8511     1.0  0.81981  0.88984  0.56014  1.0000
  C   C8512     1.0  0.78691  0.86131  0.61567  1.0000
  C   C8513     1.0  0.78315  0.85889  0.63289  1.0000
  C   C8514     1.0  0.79589  0.85426  0.64145  1.0000
  C   C8515     1.0  0.81241  0.85182  0.63282  1.0000
  C   C8516     1.0  0.81623  0.85402  0.61562  1.0000
  C   C8517     1.0  0.79014  0.86929  0.57644  1.0000
  C   C8518     1.0  0.78613  0.85796  0.57002  1.0000
  C   C8519     1.0  0.77180  0.86232  0.56379  1.0000
  C   C8520     1.0  0.76136  0.87800  0.56385  1.0000
  C   C8521     1.0  0.76538  0.88943  0.56997  1.0000
  C   C8522     1.0  0.77962  0.88508  0.57636  1.0000
  H   H6811     1.0  0.82804  0.80495  0.58162  1.0000
  H   H6812     1.0  0.85397  0.80873  0.56130  1.0000
  H   H6813     1.0  0.86109  0.83641  0.55197  1.0000
  H   H6814     1.0  0.84202  0.86031  0.56232  1.0000
  H   H6815     1.0  0.80827  0.82887  0.59190  1.0000
  H   H6816     1.0  0.81677  0.88603  0.60126  1.0000
  H   H6817     1.0  0.82654  0.91189  0.59047  1.0000
  H   H6818     1.0  0.83200  0.92413  0.56044  1.0000
  H   H6819     1.0  0.82750  0.91015  0.54101  1.0000
  H   H6820     1.0  0.81757  0.88404  0.55156  1.0000
  H   H6821     1.0  0.77685  0.86514  0.60928  1.0000
  H   H6822     1.0  0.77035  0.86103  0.63955  1.0000
  H   H6823     1.0  0.79297  0.85301  0.65472  1.0000
  H   H6824     1.0  0.82228  0.84879  0.63936  1.0000
  H   H6825     1.0  0.82910  0.85247  0.60907  1.0000
  H   H6826     1.0  0.79381  0.84570  0.56986  1.0000
  H   H6827     1.0  0.76871  0.85336  0.55912  1.0000
  H   H6828     1.0  0.75004  0.88126  0.55937  1.0000
  H   H6829     1.0  0.75724  0.90156  0.57015  1.0000
  H   H6830     1.0  0.78228  0.89403  0.58140  1.0000
  H   H6831     1.0  0.95272  0.76455  0.64495  1.0000
  H   H6832     1.0  0.83912  0.73542  0.97120  1.0000
  H   H6833     1.0  0.74058  0.84340  0.66505  1.0000
  H   H6834     1.0  0.96712  0.83214  0.71385  1.0000
  C   C8523     1.0  0.89570  0.80628  0.77878  1.0000
  H   H6835     1.0  0.76121  0.77397  0.67699  1.0000
  H   H6836     1.0  0.85413  0.77115  0.64640  1.0000
  C   C8524     1.0  0.76015  0.81725  0.78344  1.0000
  C   C8525     1.0  0.76214  0.80587  0.77376  1.0000
  C   C8526     1.0  0.77710  0.79424  0.77099  1.0000
  C   C8527     1.0  0.79016  0.79396  0.77778  1.0000
  C   C8528     1.0  0.78832  0.80537  0.78728  1.0000
  C   C8529     1.0  0.77340  0.81702  0.79007  1.0000
  C   C8530     1.0  0.92186  0.77936  0.70851  1.0000
  C   C8531     1.0  0.89386  0.78256  0.95216  1.0000
  C   C8532     1.0  0.84384  0.76607  0.64675  1.0000
  C   C8533     1.0  0.82088  0.80466  0.54073  1.0000
  Fe  Fe574     1.0  0.74600  0.82829  0.59367  1.0000
  C   C8534     1.0  0.94604  0.74943  0.77000  1.0000
  H   H6837     1.0  0.80451  0.78260  0.93911  1.0000
  C   C8535     1.0  0.89479  0.78422  0.76083  1.0000
  C   C8536     1.0  0.96739  0.76110  0.73060  1.0000
  C   C8537     1.0  0.90348  0.80824  0.76202  1.0000
  C   C8538     1.0  0.79660  0.74552  0.92701  1.0000
  H   H6838     1.0  0.80169  0.78485  0.77575  1.0000
  H   H6839     1.0  0.79842  0.80511  0.79260  1.0000
  H   H6840     1.0  0.77214  0.82577  0.79749  1.0000
  H   H6841     1.0  0.82878  0.74111  0.89381  1.0000
  H   H6842     1.0  0.74605  0.83396  0.69835  1.0000
  H   H6843     1.0  0.96023  0.75318  0.61980  1.0000
  C   C8539     1.0  0.87200  0.87985  0.67000  1.0000
  C   C8540     1.0  0.94837  0.82665  0.70535  1.0000
  C   C8541     1.0  0.98798  0.74701  0.77391  1.0000
  C   C8542     1.0  0.82773  0.77602  0.64800  1.0000
  H   H6844     1.0  0.74056  0.81306  0.94035  1.0000
  P   P287      1.0  0.82413  0.79741  0.64933  1.0000
  C   C8543     1.0  0.80335  0.80781  0.64668  1.0000
  C   C8544     1.0  0.82698  0.79883  0.66887  1.0000
  C   C8545     1.0  0.82104  0.81398  0.67395  1.0000
  C   C8546     1.0  0.82414  0.81560  0.68841  1.0000
  C   C8547     1.0  0.83339  0.80219  0.69782  1.0000
  C   C8548     1.0  0.83929  0.78705  0.69295  1.0000
  C   C8549     1.0  0.83595  0.78529  0.67866  1.0000
  C   C8550     1.0  0.79988  0.81305  0.63084  1.0000
  C   C8551     1.0  0.78367  0.82025  0.62884  1.0000
  C   C8552     1.0  0.77077  0.82229  0.64260  1.0000
  C   C8553     1.0  0.77409  0.81713  0.65841  1.0000
  C   C8554     1.0  0.79026  0.80971  0.66048  1.0000
  C   C8555     1.0  0.83865  0.80714  0.63247  1.0000
  C   C8556     1.0  0.84305  0.80265  0.61715  1.0000
  C   C8557     1.0  0.85460  0.80974  0.60420  1.0000
  C   C8558     1.0  0.86195  0.82128  0.60635  1.0000
  C   C8559     1.0  0.85761  0.82590  0.62148  1.0000
  C   C8560     1.0  0.84600  0.81892  0.63451  1.0000
  H   H6845     1.0  0.91801  0.78806  0.94108  1.0000
  H   H6846     1.0  0.81457  0.82474  0.66639  1.0000
  H   H6847     1.0  0.82014  0.82752  0.69184  1.0000
  H   H6848     1.0  0.83644  0.80370  0.70858  1.0000
  C   C8561     1.0  0.91103  0.77959  0.95024  1.0000
  H   H6849     1.0  0.84101  0.77351  0.67511  1.0000
  H   H6850     1.0  0.80958  0.81136  0.62000  1.0000
  H   H6851     1.0  0.78109  0.82422  0.61659  1.0000
  H   H6852     1.0  0.75822  0.82778  0.64093  1.0000
  H   H6853     1.0  0.76412  0.81864  0.66909  1.0000
  H   H6854     1.0  0.79246  0.80528  0.67286  1.0000
  H   H6855     1.0  0.83790  0.79336  0.61524  1.0000
  H   H6856     1.0  0.85848  0.80569  0.59269  1.0000
  H   H6857     1.0  0.87140  0.82622  0.59646  1.0000
  H   H6858     1.0  0.86362  0.83458  0.62319  1.0000
  H   H6859     1.0  0.84332  0.82243  0.64621  1.0000
  C   C8562     1.0  0.96558  0.76174  0.63849  1.0000
  H   H6860     1.0  0.97428  0.77006  0.65502  1.0000
  C   C8563     1.0  0.85956  0.89406  0.66709  1.0000
  C   C8564     1.0  0.88707  0.78226  0.77758  1.0000
  C   C8565     1.0  0.81101  0.81111  0.52902  1.0000
  C   C8566     1.0  0.75027  0.96705  0.72848  1.0000
  C   C8567     1.0  0.96982  0.75536  0.62431  1.0000
  H   H6861     1.0  0.95848  0.77394  0.70835  1.0000
  C   C8568     1.0  0.74921  0.74328  0.85453  1.0000
  H   H6862     1.0  0.78510  0.97943  0.70384  1.0000
  C   C8569     1.0  0.76171  0.97197  0.71403  1.0000
  H   H6863     1.0  0.77186  0.96567  0.75667  1.0000
  H   H6864     1.0  0.87195  0.86867  0.66653  1.0000
  H   H6865     1.0  0.84517  0.76353  0.96358  1.0000
  H   H6866     1.0  0.98372  0.79582  0.63334  1.0000
  H   H6867     1.0  0.76279  0.81504  0.55117  1.0000
  H   H6868     1.0  0.96128  0.75102  0.73289  1.0000
  H   H6869     1.0  0.78104  0.73317  0.59129  1.0000
  C   C8570     1.0  0.93034  0.74938  0.71533  1.0000
  H   H6870     1.0  0.84646  0.74611  0.72754  1.0000
  C   C8571     1.0  0.93120  0.74472  0.77903  1.0000
  C   C8572     1.0  0.74312  0.79536  0.66853  1.0000
  C   C8573     1.0  0.97813  0.80781  0.66962  1.0000
  H   H6871     1.0  0.82780  0.78702  0.94745  1.0000
  C   C8574     1.0  0.83500  0.76154  0.95986  1.0000
  C   C8575     1.0  0.88471  0.88018  0.67695  1.0000
  C   C8576     1.0  0.98405  0.78658  0.72371  1.0000
  C   C8577     1.0  0.81717  0.79157  0.55390  1.0000
  C   C8578     1.0  0.75830  0.86926  0.75011  1.0000
  C   C8579     1.0  0.94020  0.80768  0.73731  1.0000
  C   C8580     1.0  0.75149  0.76881  0.59248  1.0000
  C   C8581     1.0  0.87240  0.90895  0.67829  1.0000
  C   C8582     1.0  0.84729  0.96149  0.68915  1.0000
  C   C8583     1.0  0.74232  0.89027  0.65942  1.0000
  C   C8584     1.0  0.85956  0.90870  0.67134  1.0000
  H   H6872     1.0  0.84892  0.95981  0.64433  1.0000
  H   H6873     1.0  0.93761  0.79997  0.74956  1.0000
  H   H6874     1.0  0.75201  0.84783  0.71687  1.0000
  C   C8585     1.0  0.97425  0.78667  0.71324  1.0000
  H   H6875     1.0  0.89584  0.81498  0.78569  1.0000
  H   H6876     1.0  0.96011  0.81516  0.74208  1.0000
  C   C8586     1.0  0.76615  0.77729  0.93083  1.0000
  H   H6877     1.0  0.92457  0.76526  0.74873  1.0000
  C   C8587     1.0  0.78438  0.76658  0.53203  1.0000
  H   H6878     1.0  0.74533  0.88941  0.78136  1.0000
  C   C8588     1.0  0.88212  0.84070  0.71089  1.0000
  C   C8589     1.0  0.87156  0.83397  0.70624  1.0000
  C   C8590     1.0  0.87351  0.81678  0.70944  1.0000
  C   C8591     1.0  0.88622  0.80628  0.71700  1.0000
  C   C8592     1.0  0.89734  0.81294  0.72102  1.0000
  C   C8593     1.0  0.89489  0.83025  0.71838  1.0000
  P   P288      1.0  0.91338  0.79950  0.73132  1.0000
  C   C8594     1.0  0.90358  0.79687  0.75305  1.0000
  C   C8595     1.0  0.92064  0.77995  0.72488  1.0000
  C   C8596     1.0  0.92507  0.76513  0.73618  1.0000
  C   C8597     1.0  0.73877  0.80336  0.69896  1.0000
  C   C8598     1.0  0.77647  0.97504  0.71501  1.0000
  C   C8599     1.0  0.92648  0.76410  0.70384  1.0000
  S   S1151     1.0  0.84017  0.73546  0.60894  1.0000
  H   H6879     1.0  0.81313  0.95172  0.67322  1.0000
  H   H6880     1.0  0.78551  0.94943  0.69041  1.0000
  H   H6881     1.0  0.76933  0.90148  0.76422  1.0000
  C   C8600     1.0  0.96593  0.77391  0.71663  1.0000
  H   H6882     1.0  0.76987  0.87104  0.74151  1.0000
  C   C8601     1.0  0.97785  0.76488  0.64419  1.0000
  H   H6883     1.0  0.82364  0.75841  0.71249  1.0000
  C   C8602     1.0  0.75348  0.96527  0.74406  1.0000
  C   C8603     1.0  0.84676  0.93675  0.61024  1.0000
  C   C8604     1.0  0.78219  0.73761  0.96228  1.0000
  H   H6884     1.0  0.74871  0.76140  0.49114  1.0000
  C   C8605     1.0  0.81102  0.93958  0.68004  1.0000
  C   C8606     1.0  0.75319  0.75575  0.89161  1.0000
  C   C8607     1.0  0.83369  0.74271  0.64624  1.0000
  C   C8608     1.0  0.83223  0.94325  0.62064  1.0000
  H   H6885     1.0  0.98770  0.77733  0.79243  1.0000
  C   C8609     1.0  0.84854  0.97550  0.67634  1.0000
  H   H6886     1.0  0.75642  0.74582  0.61023  1.0000
  C   C8610     1.0  0.84677  0.74944  0.64605  1.0000
  C   C8611     1.0  0.91922  0.76567  0.96011  1.0000
  H   H6887     1.0  0.80745  0.74349  0.47405  1.0000
  C   C8612     1.0  0.98415  0.76276  0.77755  1.0000
  H   H6888     1.0  0.74206  0.75942  0.94548  1.0000
  H   H6889     1.0  0.76873  0.84461  0.76197  1.0000
  H   H6890     1.0  0.74397  0.91054  0.63826  1.0000
  C   C8613     1.0  0.75579  0.92678  0.76335  1.0000
  H   H6891     1.0  0.93350  0.73755  0.71181  1.0000
  H   H6892     1.0  0.75709  0.78083  0.70417  1.0000
  C   C8614     1.0  0.97715  0.76104  0.74121  1.0000
  C   C8615     1.0  0.98589  0.77359  0.73736  1.0000
  H   H6893     1.0  0.84637  0.96228  0.70168  1.0000
  C   C8616     1.0  0.75758  0.85427  0.76177  1.0000
  C   C8617     1.0  0.73974  0.97941  0.80666  1.0000
  C   C8618     1.0  0.81821  0.74321  0.95976  1.0000
  C   C8619     1.0  0.76876  0.96752  0.74489  1.0000
  C   C8620     1.0  0.75012  0.80175  0.94121  1.0000
  C   C8621     1.0  0.88486  0.77163  0.96398  1.0000
  H   H6894     1.0  0.80808  0.97429  0.62591  1.0000
  C   C8622     1.0  0.78633  0.73731  0.92361  1.0000
  H   H6895     1.0  0.75674  0.74805  0.84277  1.0000
  H   H6896     1.0  0.77656  0.97414  0.85149  1.0000
  C   C8623     1.0  0.74040  0.89002  0.60589  1.0000
  C   C8624     1.0  0.77400  0.74549  0.58702  1.0000
  H   H6897     1.0  0.74093  0.94261  0.69939  1.0000
  H   H6898     1.0  0.74102  0.77452  0.60093  1.0000
  C   C8625     1.0  0.78061  0.74297  0.52432  1.0000
  C   C8626     1.0  0.74049  0.93731  0.76823  1.0000
  C   C8627     1.0  0.84666  0.94666  0.68588  1.0000
  H   H6899     1.0  0.74013  0.86325  0.63827  1.0000
  H   H6900     1.0  0.87157  0.77407  0.96524  1.0000
  C   C8628     1.0  0.75751  0.90955  0.76804  1.0000
  C   C8629     1.0  0.79507  0.97806  0.65014  1.0000
  C   C8630     1.0  0.89347  0.73409  0.73767  1.0000
  H   H6901     1.0  0.81968  0.94507  0.64547  1.0000
  C   C8631     1.0  0.82569  0.74540  0.71858  1.0000
  S   S1152     1.0  0.98567  0.83865  0.66196  1.0000
  C   C8632     1.0  0.81693  0.74003  0.90215  1.0000
  H   H6902     1.0  0.74464  0.79224  0.65677  1.0000
  H   H6903     1.0  0.92388  0.74343  0.60968  1.0000
  C   C8633     1.0  0.90337  0.73859  0.60359  1.0000
  C   C8634     1.0  0.74882  0.74407  0.90605  1.0000
  H   H6904     1.0  0.74122  0.75593  0.52148  1.0000
  Fe  Fe575     1.0  0.84764  0.74549  0.58188  1.0000
  C   C8635     1.0  0.81592  0.73538  0.71746  1.0000
  C   C8636     1.0  0.83847  0.73852  0.72714  1.0000
  H   H6905     1.0  0.98294  0.82565  0.62493  1.0000
  C   C8637     1.0  0.98638  0.75203  0.61587  1.0000
  H   H6906     1.0  0.73889  0.96480  0.72740  1.0000
  H   H6907     1.0  0.79142  0.97534  0.73107  1.0000
  H   H6908     1.0  0.75906  0.97361  0.70204  1.0000
  C   C8638     1.0  0.74029  0.92982  0.70123  1.0000
  H   H6909     1.0  0.93248  0.73845  0.74050  1.0000
  Fe  Fe576     1.0  0.81714  0.73366  0.60304  1.0000
  H   H6910     1.0  0.77310  0.73425  0.52559  1.0000
  H   H6911     1.0  0.88222  0.73161  0.60099  1.0000
  C   C8639     1.0  0.87750  0.73305  0.96274  1.0000
  H   H6912     1.0  0.91838  0.73303  0.68222  1.0000
  C   C8640     1.0  0.80677  0.73160  0.89904  1.0000
