data_image0
_chemical_formula_structural       FeS2FeS2FeHFeS3HSFeS2FeS2FeSFeS3FeSHC5H2C6H4C7H4C3H2C6H4C6PC5HC4H5CH2CHC2HC6HCSHCPHCH3CHC6H4SCH2C2HCH2C2HCH3CH2C3H2C3H3C2H2C4H3C2HCHC6PC9H3C6H6CH4CH6C3HCFeCHCH6C4HPC2H4C2HCHCFeHS2CS2H2C3H3PHC5H4CSCFeSHC6H4C6SH2C2HCHCH6CHCH2CH2CH2C6H2Fe2HCPH2C2H2C2H2C2H2CPH2C5H2C5HC3H4CHCPHCHC2HCH2C3HC2HCH4C2HC4HSCHC9HCHSH4CHC3HC2FeS2FeS2FeSFeCS2FeHSCFeS2FeS2FeSFeS2C2SC5H2C6H4C6H4C3H2C6H5C2H2C2H7C2H5CH3C4HCH2CHSH3C6PC9H2C7H11CSH4SH6C2H2SCHC4H2CH3C7PC13HCH5CHCH2CHCHCHCH2CH2PCHC3HC5HC2HFeC5HCFeS2FeS2FeSFeS3HSHCHSC2HC2H3CH2FeCPCHCHCHC6H5FeHC2SH5C2HSC2HCH4CHC2H2CH2CHC2H4C5HC3HC4HCHC3HC11PC3HPHC2H3C7H6C3H2CH5CH2C2H3C4HSHCHCHCHC2H2C3HCHCH2C4H2CH2C5HCFeHCHC2HCH5C2FeCSCHSC2HFeS2FeS2Fe2S2HCHC3H2C2H2C4H2C6H3CFeS2FeS4CSC4H2C4H2C2H2C6H3CHCSHSCH2SCHCH2C2HCHC8PC17H18CPCHCHC4HCHCH2CHCH3CHCHCHCH2C2HC6HC2H4CHC2HCHC2H2CHCHCPH5C10H2CFeC2H2C2PC3H2C3HCH3CHFeC2H2CH2CH3CHCHC2PCH2CH2CFeS2FeS2FeCFeS3CHSFeS2CFeS2CHCSC2H7C3H2C6H4CH2C3H2CHCFeHC2H2C2H2C2HC2HC3PC7HSC8H6C2H7CHCH2C3SCH6CH3CH2C3H3C2HCH3CH3C2HC3PC10H2CH9CHC6PC14H2C2H5CH3C2HCHC5H3CPCHC5SCHCHCH2CHCH2CH2FeHCHC3H3FeS2FeS2FeSFeS2C2HSCFeSH9CH2CFeSC9H4C3HCH3C2SCH3CHC6HC3HC4HCHPCSCHCHCH3C6PC6H11C2HC2HCHC7HC2PC2H2C4HC2H3CHCHCHC4H2C2H3C6HSH2CH2FeHC3HCHC4HCH3CHCHCH9SH2CHCHCH4CHSH2SCHCH2C2HC2FeSFeS2FeS3CH2C6H2C3H2C5H5S2FeS2FeSFeS3C5H4C3H2C7H2C6PC18H18CH2CHC3HC2SCPCHC2HC2H3CHC3HCSCHCHCHC2H5C2H2PCFeC3H2C3PCHC2H2FeH3C4HC2HC3HCH2C2HCH4C7HC5H4CHC3H5CH2PC6HC3H4PHCH2C3HCHC4H4CHC2H3C3HC2HC3HCHC2H4CFeS2FeS2FeCFeS3FeCS2HFeS2C2H2C3HC2H2C2HC2HC6H4C2HC2H2C3HCH2C2H4CH2C2FePC12HC2H12SHSH2SC6H4CHCHCH6SH2C7PC9H2C7H6CH4C2H9C6PC13HCH5CH3CH2C3FeCH2C4H2FeS2FeS2FeSFeS3FeS2FeSCFeSFeS3FeHSHCFeHSC6H4CHC2HCH2C6H4C6H5CH6C8H8C2PHC2HC3HCSH2CHCH3C2HPCHCH2C9H2CHC5H3C3H2C6PC18HCH14C5HCHPCH2CHC4H4SHCH3C4HC3HCHC4HSCH3C3H2PHC2H4C9HCH5C3FeS2FeS2H2C3HCH2CHC5H4FeS2C2FeS2C6H4C6H2CHC2H2CH3C2HC7HCHCH4CPHC3HP2HC7SC4HC3HCHCHC3HC3H2CH2CH2PH4C3H2C4H3CH2C3HC2HCH3C3H2PC2HC2HCHC2HC2HSH3CHCH3CHC3HCH3C2HC2HCHC6HCH2C2HC3H6C3FeS2FeS2FeSFeS3FeSCFeS2FeSFeS3CHFeSCFeSHC6H4CHC2HCHC7H4C6H5CHC2H4CHC4PC3HC9HC4H7CH6CPH2SCHCHCHCHC2H4CHC6PHC7HC2HC3HCH6C2HSHC4HCH3CHCH2C2H2CHCHCHCHC2H2C2H2CFeSH2C
_chemical_formula_sum              "Fe96 S192 H1152 C1440 P48"
_cell_length_a       49.321
_cell_length_b       49.4053
_cell_length_c       47.5624
_cell_angle_alpha    90.6971
_cell_angle_beta     88.842
_cell_angle_gamma    119.969

_space_group_name_H-M_alt    "P 1"
_space_group_IT_number       1

loop_
  _space_group_symop_operation_xyz
  'x, y, z'

loop_
  _atom_site_type_symbol
  _atom_site_label
  _atom_site_symmetry_multiplicity
  _atom_site_fract_x
  _atom_site_fract_y
  _atom_site_fract_z
  _atom_site_occupancy
  Fe  Fe1       1.0  0.11948  0.31578  0.24042  1.0000
  S   S1        1.0  0.15266  0.36655  0.25135  1.0000
  S   S2        1.0  0.06755  0.30300  0.24445  1.0000
  Fe  Fe2       1.0  0.17472  0.30411  0.22776  1.0000
  S   S3        1.0  0.21026  0.35417  0.23722  1.0000
  S   S4        1.0  0.18983  0.27030  0.20860  1.0000
  Fe  Fe3       1.0  0.17997  0.34945  0.27515  1.0000
  H   H1        1.0  0.26374  0.16200  0.29661  1.0000
  Fe  Fe4       1.0  0.18032  0.36753  0.21248  1.0000
  S   S5        1.0  0.20363  0.41078  0.18366  1.0000
  S   S6        1.0  0.14541  0.29840  0.26684  1.0000
  S   S7        1.0  0.14630  0.31801  0.20053  1.0000
  H   H2        1.0  0.37608  0.46070  0.26016  1.0000
  S   S8        1.0  0.46740  0.22695  0.05119  1.0000
  Fe  Fe5       1.0  0.29580  0.18445  0.22900  1.0000
  S   S9        1.0  0.34579  0.22017  0.21862  1.0000
  S   S10       1.0  0.26236  0.19972  0.24877  1.0000
  Fe  Fe6       1.0  0.30773  0.12912  0.21761  1.0000
  S   S11       1.0  0.35858  0.16252  0.20695  1.0000
  S   S12       1.0  0.29706  0.07799  0.21404  1.0000
  Fe  Fe7       1.0  0.35884  0.19071  0.24464  1.0000
  S   S13       1.0  0.40206  0.21458  0.27275  1.0000
  Fe  Fe8       1.0  0.34193  0.18926  0.18181  1.0000
  S   S14       1.0  0.35690  0.20846  0.13676  1.0000
  S   S15       1.0  0.30929  0.15612  0.25689  1.0000
  S   S16       1.0  0.29069  0.15485  0.19067  1.0000
  Fe  Fe9       1.0  0.23123  0.47554  0.02113  1.0000
  S   S17       1.0  0.20306  0.43369  0.05091  1.0000
  H   H3        1.0  0.01381  0.33183  0.11989  1.0000
  C   C1        1.0  0.04661  0.26049  0.30742  1.0000
  C   C2        1.0  0.27023  0.01393  0.21809  1.0000
  C   C3        1.0  0.26478  0.03935  0.21921  1.0000
  C   C4        1.0  0.23411  0.03318  0.22392  1.0000
  C   C5        1.0  0.37504  0.44181  0.24752  1.0000
  H   H4        1.0  0.29383  0.01833  0.21469  1.0000
  H   H5        1.0  0.22937  0.05231  0.22461  1.0000
  C   C6        1.0  0.43566  0.22072  0.07418  1.0000
  C   C7        1.0  0.41014  0.22324  0.06524  1.0000
  C   C8        1.0  0.38624  0.21916  0.08460  1.0000
  C   C9        1.0  0.38734  0.21238  0.11312  1.0000
  C   C10       1.0  0.41281  0.20977  0.12200  1.0000
  C   C11       1.0  0.43667  0.21377  0.10266  1.0000
  H   H6        1.0  0.40895  0.22858  0.04346  1.0000
  H   H7        1.0  0.36677  0.22138  0.07742  1.0000
  H   H8        1.0  0.41450  0.20543  0.14390  1.0000
  H   H9        1.0  0.45633  0.21195  0.10994  1.0000
  C   C12       1.0  0.26177  0.06746  0.31116  1.0000
  C   C13       1.0  0.20337  0.41627  0.14657  1.0000
  C   C14       1.0  0.18549  0.39169  0.12808  1.0000
  C   C15       1.0  0.18595  0.39747  0.09897  1.0000
  C   C16       1.0  0.20435  0.42778  0.08781  1.0000
  C   C17       1.0  0.22241  0.45229  0.10628  1.0000
  C   C18       1.0  0.22182  0.44654  0.13541  1.0000
  H   H10       1.0  0.17137  0.36823  0.13615  1.0000
  H   H11       1.0  0.17193  0.37827  0.08495  1.0000
  H   H12       1.0  0.23666  0.47570  0.09815  1.0000
  H   H13       1.0  0.23579  0.46575  0.14943  1.0000
  C   C19       1.0  0.02854  0.27247  0.23727  1.0000
  C   C20       1.0  0.02166  0.24290  0.22749  1.0000
  C   C21       1.0  0.23669  0.08672  0.27995  1.0000
  H   H14       1.0  0.04042  0.23782  0.22418  1.0000
  H   H15       1.0  0.37082  0.34050  0.27052  1.0000
  C   C22       1.0  0.21166  0.25257  0.22044  1.0000
  C   C23       1.0  0.21490  0.24819  0.24895  1.0000
  C   C24       1.0  0.23083  0.23244  0.25712  1.0000
  C   C25       1.0  0.24403  0.22098  0.23701  1.0000
  C   C26       1.0  0.24136  0.22592  0.20851  1.0000
  C   C27       1.0  0.22513  0.24137  0.20035  1.0000
  H   H16       1.0  0.20432  0.25611  0.26471  1.0000
  H   H17       1.0  0.23254  0.22873  0.27922  1.0000
  H   H18       1.0  0.25123  0.21727  0.19271  1.0000
  H   H19       1.0  0.22274  0.24440  0.17823  1.0000
  C   C28       1.0  0.26572  0.39207  0.17864  1.0000
  C   C29       1.0  0.24251  0.36622  0.16441  1.0000
  C   C30       1.0  0.23955  0.33686  0.16796  1.0000
  C   C31       1.0  0.25981  0.33332  0.18570  1.0000
  C   C32       1.0  0.28331  0.35915  0.20008  1.0000
  C   C33       1.0  0.28597  0.38860  0.19652  1.0000
  P   P1        1.0  0.30777  0.35361  0.22456  1.0000
  C   C34       1.0  0.28844  0.34303  0.25861  1.0000
  C   C35       1.0  0.31416  0.32286  0.21124  1.0000
  C   C36       1.0  0.32051  0.32164  0.18246  1.0000
  C   C37       1.0  0.32545  0.29786  0.17197  1.0000
  C   C38       1.0  0.10497  0.26693  0.12129  1.0000
  H   H20       1.0  0.00855  0.30104  0.24908  1.0000
  C   C39       1.0  0.31275  0.29995  0.22931  1.0000
  C   C40       1.0  0.29074  0.34613  0.30966  1.0000
  C   C41       1.0  0.24987  0.99870  0.29822  1.0000
  C   C42       1.0  0.30592  0.35183  0.28340  1.0000
  H   H21       1.0  0.26726  0.41463  0.17640  1.0000
  H   H22       1.0  0.22632  0.36887  0.15122  1.0000
  H   H23       1.0  0.22085  0.31656  0.15774  1.0000
  H   H24       1.0  0.25643  0.31014  0.18879  1.0000
  H   H25       1.0  0.30312  0.40887  0.20775  1.0000
  C   C43       1.0  0.32426  0.27529  0.19012  1.0000
  H   H26       1.0  0.31664  0.25870  0.23285  1.0000
  H   H27       1.0  0.05540  0.25159  0.29077  1.0000
  C   C44       1.0  0.31603  0.99617  0.09914  1.0000
  H   H28       1.0  0.30706  0.29972  0.25143  1.0000
  C   C45       1.0  0.44394  0.30580  0.04588  1.0000
  C   C46       1.0  0.36745  0.26436  0.29538  1.0000
  H   H29       1.0  0.33121  0.36369  0.28248  1.0000
  C   C47       1.0  0.11213  0.38391  0.07903  1.0000
  C   C48       1.0  0.09651  0.36950  0.05434  1.0000
  C   C49       1.0  0.33243  0.05886  0.27498  1.0000
  C   C50       1.0  0.99039  0.21975  0.22199  1.0000
  C   C51       1.0  0.07422  0.33899  0.10630  1.0000
  C   C52       1.0  0.10111  0.36880  0.10490  1.0000
  H   H30       1.0  0.27796  0.08488  0.26898  1.0000
  C   C53       1.0  0.10277  0.25244  0.14697  1.0000
  S   S18       1.0  0.20476  0.36566  0.31764  1.0000
  H   H31       1.0  0.08683  0.24698  0.19012  1.0000
  C   C54       1.0  0.05877  0.32462  0.08128  1.0000
  P   P2        1.0  0.06113  0.31745  0.13905  1.0000
  H   H32       1.0  0.41425  0.43571  0.00497  1.0000
  C   C55       1.0  0.25809  0.33132  0.31130  1.0000
  H   H33       1.0  0.32068  0.03372  0.27696  1.0000
  H   H34       1.0  0.39527  0.31621  0.24129  1.0000
  H   H35       1.0  0.05777  0.32870  0.03626  1.0000
  C   C56       1.0  0.40065  0.42080  0.21794  1.0000
  H   H36       1.0  0.34627  0.10857  0.01916  1.0000
  C   C57       1.0  0.07423  0.34347  0.16907  1.0000
  C   C58       1.0  0.10621  0.36039  0.17529  1.0000
  C   C59       1.0  0.11674  0.38140  0.19779  1.0000
  C   C60       1.0  0.09534  0.38441  0.21530  1.0000
  C   C61       1.0  0.06334  0.36682  0.20996  1.0000
  C   C62       1.0  0.05277  0.34655  0.18686  1.0000
  H   H37       1.0  0.01457  0.25523  0.16209  1.0000
  H   H38       1.0  0.39360  0.26790  0.25750  1.0000
  H   H39       1.0  0.11406  0.38058  0.12344  1.0000
  H   H40       1.0  0.43726  0.15656  0.05593  1.0000
  S   S19       1.0  0.20554  0.49174  0.99327  1.0000
  C   C63       1.0  0.43825  0.41298  0.02126  1.0000
  H   H41       1.0  0.46310  0.38914  0.03147  1.0000
  H   H42       1.0  0.23957  0.00962  0.28611  1.0000
  C   C64       1.0  0.34481  0.38946  0.22799  1.0000
  C   C65       1.0  0.31812  0.27649  0.21879  1.0000
  H   H43       1.0  0.32759  0.25657  0.18187  1.0000
  C   C66       1.0  0.47020  0.30320  0.05175  1.0000
  H   H44       1.0  0.34463  0.31659  0.31551  1.0000
  H   H45       1.0  0.12314  0.35753  0.16269  1.0000
  C   C67       1.0  0.37006  0.31938  0.27761  1.0000
  C   C68       1.0  0.36281  0.12358  0.26768  1.0000
  H   H46       1.0  0.04669  0.36843  0.22403  1.0000
  C   C69       1.0  0.09222  0.28650  0.11861  1.0000
  H   H47       1.0  0.03844  0.30138  0.08169  1.0000
  H   H48       1.0  0.32986  0.29666  0.14970  1.0000
  H   H49       1.0  0.42162  0.42343  0.20763  1.0000
  C   C70       1.0  0.32356  0.07683  0.29182  1.0000
  H   H50       1.0  0.06548  0.28246  0.18586  1.0000
  H   H51       1.0  0.36662  0.24300  0.30185  1.0000
  C   C71       1.0  0.00355  0.27827  0.24170  1.0000
  C   C72       1.0  0.35621  0.07322  0.25462  1.0000
  C   C73       1.0  0.38270  0.27840  0.27012  1.0000
  H   H52       1.0  0.32135  0.33891  0.16810  1.0000
  H   H53       1.0  0.21527  0.30968  0.28807  1.0000
  C   C74       1.0  0.07578  0.27768  0.16754  1.0000
  C   C75       1.0  0.44501  0.32473  0.02374  1.0000
  C   C76       1.0  0.26063  0.08021  0.28529  1.0000
  H   H54       1.0  0.36237  0.05918  0.24122  1.0000
  H   H55       1.0  0.14154  0.39497  0.20195  1.0000
  H   H56       1.0  0.24171  0.31851  0.24191  1.0000
  C   C77       1.0  0.40210  0.44519  0.23427  1.0000
  C   C78       1.0  0.32226  0.03095  0.14781  1.0000
  H   H57       1.0  0.32572  0.41184  0.25484  1.0000
  H   H58       1.0  0.13326  0.40665  0.07803  1.0000
  C   C79       1.0  0.07737  0.29191  0.14176  1.0000
  C   C80       1.0  0.24060  0.32112  0.28682  1.0000
  C   C81       1.0  0.30875  0.99848  0.14940  1.0000
  C   C82       1.0  0.34653  0.41408  0.24444  1.0000
  H   H59       1.0  0.37168  0.37451  0.20207  1.0000
  H   H60       1.0  0.10545  0.38125  0.03434  1.0000
  H   H61       1.0  0.11309  0.23770  0.14924  1.0000
  C   C83       1.0  0.21329  0.08000  0.30018  1.0000
  C   C84       1.0  0.40672  0.21341  0.30979  1.0000
  H   H62       1.0  0.10357  0.39987  0.23335  1.0000
  C   C85       1.0  0.20937  0.00210  0.22740  1.0000
  H   H63       1.0  0.38953  0.11670  0.23503  1.0000
  C   C86       1.0  0.29941  0.13399  0.11693  1.0000
  C   C87       1.0  0.27155  0.11383  0.13114  1.0000
  C   C88       1.0  0.26774  0.08651  0.14324  1.0000
  C   C89       1.0  0.29140  0.07889  0.14047  1.0000
  C   C90       1.0  0.31924  0.09862  0.12558  1.0000
  C   C91       1.0  0.32328  0.12663  0.11438  1.0000
  P   P3        1.0  0.34948  0.08834  0.12022  1.0000
  C   C92       1.0  0.33234  0.04630  0.12175  1.0000
  C   C93       1.0  0.36722  0.10402  0.08619  1.0000
  C   C94       1.0  0.34812  0.09808  0.06275  1.0000
  C   C95       1.0  0.01874  0.29545  0.14004  1.0000
  C   C96       1.0  0.06975  0.33992  0.05547  1.0000
  C   C97       1.0  0.41247  0.13967  0.05773  1.0000
  C   C98       1.0  0.39959  0.12489  0.08342  1.0000
  C   C99       1.0  0.32935  0.02865  0.09743  1.0000
  C   C100      1.0  0.38385  0.30575  0.26112  1.0000
  H   H64       1.0  0.43729  0.41983  0.04282  1.0000
  H   H65       1.0  0.42422  0.32586  0.01898  1.0000
  H   H66       1.0  0.42418  0.46672  0.23662  1.0000
  C   C101      1.0  0.37911  0.10606  0.14672  1.0000
  C   C102      1.0  0.38870  0.13644  0.15621  1.0000
  C   C103      1.0  0.41355  0.15130  0.17488  1.0000
  C   C104      1.0  0.42881  0.13584  0.18438  1.0000
  C   C105      1.0  0.41946  0.10558  0.17498  1.0000
  C   C106      1.0  0.39493  0.09084  0.15599  1.0000
  H   H67       1.0  0.30292  0.15582  0.10847  1.0000
  H   H68       1.0  0.25339  0.11997  0.13364  1.0000
  H   H69       1.0  0.24668  0.07146  0.15529  1.0000
  H   H70       1.0  0.28768  0.05773  0.15031  1.0000
  H   H71       1.0  0.34488  0.14298  0.10369  1.0000
  H   H72       1.0  0.32302  0.08278  0.06461  1.0000
  C   C107      1.0  0.33857  0.10926  0.28756  1.0000
  H   H73       1.0  0.41494  0.13069  0.10114  1.0000
  H   H74       1.0  0.33736  0.03976  0.07716  1.0000
  H   H75       1.0  0.23623  0.09678  0.25994  1.0000
  H   H76       1.0  0.02786  0.33294  0.18350  1.0000
  C   C108      1.0  0.00240  0.26599  0.15298  1.0000
  H   H77       1.0  0.32457  0.04413  0.16693  1.0000
  H   H78       1.0  0.37715  0.14878  0.14900  1.0000
  H   H79       1.0  0.42084  0.17481  0.18213  1.0000
  H   H80       1.0  0.44785  0.14737  0.19903  1.0000
  H   H81       1.0  0.43140  0.09363  0.18219  1.0000
  H   H82       1.0  0.38870  0.06778  0.14830  1.0000
  C   C109      1.0  0.25571  0.32660  0.26060  1.0000
  C   C110      1.0  0.37147  0.10558  0.25105  1.0000
  C   C111      1.0  0.37215  0.39302  0.21479  1.0000
  H   H83       1.0  0.11690  0.26328  0.10355  1.0000
  C   C112      1.0  0.39329  0.13372  0.03459  1.0000
  Fe  Fe10      1.0  0.47944  0.24033  0.00443  1.0000
  C   C113      1.0  0.35383  0.27804  0.31225  1.0000
  H   H84       1.0  0.09449  0.29764  0.09859  1.0000
  C   C114      1.0  0.08791  0.25760  0.17000  1.0000
  H   H85       1.0  0.37453  0.14864  0.26481  1.0000
  H   H86       1.0  0.29376  0.21922  0.30175  1.0000
  H   H87       1.0  0.33140  0.12355  0.29943  1.0000
  H   H88       1.0  0.42258  0.29254  0.05817  1.0000
  H   H89       1.0  0.45645  0.24537  0.30724  1.0000
  H   H90       1.0  0.99966  0.30733  0.30838  1.0000
  C   C115      1.0  0.35513  0.30564  0.30311  1.0000
  C   C116      1.0  0.45264  0.39536  0.01477  1.0000
  C   C117      1.0  0.36115  0.11278  0.03704  1.0000
  C   C118      1.0  0.01434  0.24767  0.31156  1.0000
  H   H91       1.0  0.46917  0.28805  0.06854  1.0000
  P   P4        1.0  0.29240  0.05845  0.31788  1.0000
  C   C119      1.0  0.47255  0.34153  0.00756  1.0000
  C   C120      1.0  0.42535  0.42201  0.99993  1.0000
  H   H92       1.0  0.40335  0.14582  0.01492  1.0000
  H   H93       1.0  0.19470  0.08496  0.29590  1.0000
  H   H94       1.0  0.99865  0.22890  0.29786  1.0000
  H   H95       1.0  0.18578  0.99772  0.23099  1.0000
  C   C121      1.0  0.27540  0.01652  0.31577  1.0000
  C   C122      1.0  0.27859  0.17227  0.31469  1.0000
  H   H96       1.0  0.09258  0.29623  0.31982  1.0000
  C   C123      1.0  0.29552  0.20474  0.31772  1.0000
  H   H97       1.0  0.35826  0.18171  0.31980  1.0000
  C   C124      1.0  0.00174  0.30881  0.12932  1.0000
  Fe  Fe11      1.0  0.46360  0.23617  0.43528  1.0000
  H   H98       1.0  0.40133  0.27532  0.34266  1.0000
  S   S20       1.0  0.42156  0.21155  0.40554  1.0000
  S   S21       1.0  0.45956  0.21080  0.47590  1.0000
  C   C125      1.0  0.25703  0.48858  0.35105  1.0000
  S   S22       1.0  0.20679  0.47293  0.49782  1.0000
  S   S23       1.0  0.19749  0.45182  0.41633  1.0000
  H   H99       1.0  0.99866  0.22598  0.63916  1.0000
  H   H100      1.0  0.28054  0.46536  0.36716  1.0000
  C   C126      1.0  0.38664  0.19521  0.35722  1.0000
  C   C127      1.0  0.41678  0.21296  0.36854  1.0000
  C   C128      1.0  0.44186  0.23110  0.35025  1.0000
  H   H101      1.0  0.19539  0.06108  0.34133  1.0000
  H   H102      1.0  0.36705  0.18126  0.37115  1.0000
  H   H103      1.0  0.46517  0.24490  0.35854  1.0000
  P   P5        1.0  0.26498  0.32557  0.63379  1.0000
  H   H104      1.0  0.46466  0.19513  0.61709  1.0000
  C   C129      1.0  0.22182  0.39738  0.36822  1.0000
  C   C130      1.0  0.22073  0.41627  0.39028  1.0000
  C   C131      1.0  0.20018  0.42803  0.38909  1.0000
  C   C132      1.0  0.18079  0.42056  0.36552  1.0000
  C   C133      1.0  0.20247  0.38995  0.34464  1.0000
  H   H105      1.0  0.23772  0.38835  0.36949  1.0000
  H   H106      1.0  0.23569  0.42167  0.40825  1.0000
  H   H107      1.0  0.16475  0.42943  0.36435  1.0000
  H   H108      1.0  0.23273  0.25641  0.35034  1.0000
  C   C134      1.0  0.28729  0.37221  0.59304  1.0000
  S   S24       1.0  0.45184  0.26509  0.53700  1.0000
  C   C135      1.0  0.27791  0.24082  0.65032  1.0000
  Fe  Fe12      1.0  0.24983  0.47448  0.51474  1.0000
  S   S25       1.0  0.25089  0.44240  0.54891  1.0000
  H   H109      1.0  0.30152  0.40761  0.56111  1.0000
  C   C136      1.0  0.43053  0.24054  0.56607  1.0000
  C   C137      1.0  0.42234  0.20907  0.56721  1.0000
  C   C138      1.0  0.40548  0.19060  0.59068  1.0000
  C   C139      1.0  0.39637  0.20315  0.61327  1.0000
  C   C140      1.0  0.40446  0.23461  0.61212  1.0000
  C   C141      1.0  0.42146  0.25313  0.58870  1.0000
  H   H110      1.0  0.42904  0.19901  0.55000  1.0000
  H   H111      1.0  0.39956  0.16641  0.59141  1.0000
  H   H112      1.0  0.39778  0.24473  0.62930  1.0000
  H   H113      1.0  0.42762  0.27742  0.58811  1.0000
  C   C142      1.0  0.19763  0.40643  0.63392  1.0000
  C   C143      1.0  0.18828  0.42156  0.61468  1.0000
  C   C144      1.0  0.20430  0.43295  0.58872  1.0000
  C   C145      1.0  0.23005  0.42945  0.58166  1.0000
  C   C146      1.0  0.23966  0.41476  0.60106  1.0000
  C   C147      1.0  0.22363  0.40329  0.62699  1.0000
  S   S26       1.0  0.47630  0.28164  0.45731  1.0000
  H   H114      1.0  0.19643  0.44401  0.57405  1.0000
  H   H115      1.0  0.25971  0.41236  0.59591  1.0000
  C   C148      1.0  0.28925  0.00176  0.32984  1.0000
  C   C149      1.0  0.29623  0.38400  0.56577  1.0000
  H   H116      1.0  0.34203  0.10564  0.59505  1.0000
  C   C150      1.0  0.23786  0.06033  0.33124  1.0000
  H   H117      1.0  0.07271  0.31844  0.35635  1.0000
  C   C151      1.0  0.35655  0.26951  0.40046  1.0000
  H   H118      1.0  0.38183  0.12106  0.55733  1.0000
  H   H119      1.0  0.00886  0.18324  0.64995  1.0000
  H   H120      1.0  0.39150  0.04116  0.57470  1.0000
  H   H121      1.0  0.30432  0.37421  0.52316  1.0000
  H   H122      1.0  0.29674  0.00009  0.59291  1.0000
  H   H123      1.0  0.33312  0.26390  0.40684  1.0000
  C   C152      1.0  0.01913  0.23105  0.65113  1.0000
  H   H124      1.0  0.29107  0.31978  0.53355  1.0000
  C   C153      1.0  0.34411  0.10976  0.38570  1.0000
  H   H125      1.0  0.24812  0.08267  0.58139  1.0000
  H   H126      1.0  0.34458  0.31579  0.37667  1.0000
  C   C154      1.0  0.05632  0.29837  0.34419  1.0000
  H   H127      1.0  0.30969  0.01521  0.34263  1.0000
  H   H128      1.0  0.30254  0.15171  0.37315  1.0000
  C   C155      1.0  0.31442  0.21837  0.34120  1.0000
  H   H129      1.0  0.13570  0.28901  0.64375  1.0000
  H   H130      1.0  0.26805  0.03083  0.37337  1.0000
  C   C156      1.0  0.36461  0.27026  0.37183  1.0000
  C   C157      1.0  0.41645  0.28120  0.38518  1.0000
  C   C158      1.0  0.04901  0.30890  0.61897  1.0000
  C   C159      1.0  0.05645  0.33948  0.61217  1.0000
  C   C160      1.0  0.07115  0.35273  0.58649  1.0000
  C   C161      1.0  0.30025  0.16649  0.35786  1.0000
  H   H131      1.0  0.30424  0.35382  0.32870  1.0000
  H   H132      1.0  0.25269  0.30509  0.37846  1.0000
  Fe  Fe13      1.0  0.22828  0.47631  0.45456  1.0000
  Fe  Fe14      1.0  0.47432  0.25663  0.49758  1.0000
  H   H133      1.0  0.17035  0.33129  0.61074  1.0000
  C   C162      1.0  0.35171  0.09063  0.59021  1.0000
  P   P6        1.0  0.33522  0.26037  0.34540  1.0000
  H   H134      1.0  0.30869  0.33480  0.39133  1.0000
  H   H135      1.0  0.24243  0.46948  0.33707  1.0000
  C   C163      1.0  0.47128  0.17977  0.57665  1.0000
  C   C164      1.0  0.39471  0.27590  0.36437  1.0000
  H   H136      1.0  0.33129  0.20859  0.37952  1.0000
  H   H137      1.0  0.45051  0.15700  0.57872  1.0000
  C   C165      1.0  0.16014  0.29560  0.64144  1.0000
  C   C166      1.0  0.32668  0.09137  0.40852  1.0000
  H   H138      1.0  0.22573  0.34667  0.60556  1.0000
  H   H139      1.0  0.26776  0.23661  0.33617  1.0000
  C   C167      1.0  0.48955  0.18747  0.55204  1.0000
  C   C168      1.0  0.18198  0.40178  0.34340  1.0000
  H   H140      1.0  0.33458  0.09912  0.42975  1.0000
  H   H141      1.0  0.07631  0.29163  0.55886  1.0000
  C   C169      1.0  0.29084  0.07080  0.63022  1.0000
  P   P7        1.0  0.03186  0.29282  0.65300  1.0000
  H   H142      1.0  0.42491  0.28387  0.42960  1.0000
  H   H143      1.0  0.45332  0.23612  0.64339  1.0000
  C   C170      1.0  0.28519  0.01055  0.63441  1.0000
  C   C171      1.0  0.28463  0.08470  0.65349  1.0000
  C   C172      1.0  0.32010  0.30231  0.37121  1.0000
  C   C173      1.0  0.22386  0.31372  0.63647  1.0000
  C   C174      1.0  0.21377  0.06664  0.32577  1.0000
  H   H144      1.0  0.48323  0.17075  0.53496  1.0000
  H   H145      1.0  0.28602  0.38699  0.60939  1.0000
  C   C175      1.0  0.37839  0.27483  0.42119  1.0000
  C   C176      1.0  0.29763  0.36512  0.54435  1.0000
  C   C177      1.0  0.17963  0.31932  0.62280  1.0000
  C   C178      1.0  0.30639  0.07149  0.35328  1.0000
  C   C179      1.0  0.38880  0.08179  0.56326  1.0000
  H   H146      1.0  0.09006  0.34594  0.54753  1.0000
  C   C180      1.0  0.38016  0.05480  0.57887  1.0000
  C   C181      1.0  0.27029  0.29247  0.63997  1.0000
  C   C182      1.0  0.27714  0.25788  0.34841  1.0000
  H   H147      1.0  0.01578  0.29658  0.36347  1.0000
  H   H148      1.0  0.05127  0.35326  0.62691  1.0000
  H   H149      1.0  0.23141  0.39212  0.64165  1.0000
  H   H150      1.0  0.27443  0.29849  0.58136  1.0000
  C   C183      1.0  0.28122  0.15318  0.33457  1.0000
  H   H151      1.0  0.22794  0.25914  0.61881  1.0000
  C   C184      1.0  0.24822  0.26261  0.63024  1.0000
  P   P8        1.0  0.31370  0.05184  0.63380  1.0000
  H   H152      1.0  0.05056  0.26803  0.60403  1.0000
  C   C185      1.0  0.33414  0.09989  0.35824  1.0000
  H   H153      1.0  0.16830  0.42429  0.61980  1.0000
  C   C186      1.0  0.25833  0.08324  0.60149  1.0000
  C   C187      1.0  0.47944  0.20165  0.59844  1.0000
  H   H154      1.0  0.35125  0.02505  0.61246  1.0000
  C   C188      1.0  0.37470  0.09977  0.56904  1.0000
  H   H155      1.0  0.23455  0.21378  0.62857  1.0000
  H   H156      1.0  0.28594  0.04857  0.42162  1.0000
  C   C189      1.0  0.29990  0.31328  0.37939  1.0000
  C   C190      1.0  0.29931  0.06297  0.40390  1.0000
  C   C191      1.0  0.27908  0.34125  0.59901  1.0000
  H   H157      1.0  0.37199  0.27372  0.44325  1.0000
  C   C192      1.0  0.27715  0.06970  0.60431  1.0000
  C   C193      1.0  0.31660  0.19895  0.36134  1.0000
  H   H158      1.0  0.07732  0.37652  0.58159  1.0000
  C   C194      1.0  0.35715  0.04558  0.60006  1.0000
  H   H159      1.0  0.43934  0.28465  0.37942  1.0000
  H   H160      1.0  0.36556  0.13172  0.38931  1.0000
  H   H161      1.0  0.40670  0.08901  0.54691  1.0000
  H   H162      1.0  0.36222  0.11331  0.65159  1.0000
  C   C195      1.0  0.25708  0.26908  0.35642  1.0000
  C   C196      1.0  0.29005  0.33443  0.55020  1.0000
  H   H163      1.0  0.29460  0.48187  0.58902  1.0000
  C   C197      1.0  0.27844  0.48616  0.36813  1.0000
  C   C198      1.0  0.28922  0.05303  0.37646  1.0000
  C   C199      1.0  0.21129  0.32820  0.62013  1.0000
  C   C200      1.0  0.07064  0.30493  0.57372  1.0000
  H   H164      1.0  0.23751  0.04963  0.35101  1.0000
  S   S27       1.0  0.26980  0.47462  0.47125  1.0000
  C   C201      1.0  0.25194  0.23687  0.63558  1.0000
  H   H165      1.0  0.34855  0.11463  0.34128  1.0000
  C   C202      1.0  0.38157  0.19541  0.32808  1.0000
  C   C203      1.0  0.34212  0.06294  0.60536  1.0000
  C   C204      1.0  0.05601  0.29162  0.59943  1.0000
  C   C205      1.0  0.00276  0.25997  0.33226  1.0000
  C   C206      1.0  0.26836  0.29659  0.37213  1.0000
  C   C207      1.0  0.30878  0.27421  0.35604  1.0000
  C   C208      1.0  0.40829  0.28062  0.41353  1.0000
  C   C209      1.0  0.07834  0.33551  0.56730  1.0000
  C   C210      1.0  0.02405  0.28569  0.34835  1.0000
  H   H166      1.0  0.33007  0.37658  0.63592  1.0000
  C   C211      1.0  0.28067  0.32245  0.57740  1.0000
  H   H167      1.0  0.26867  0.12813  0.33183  1.0000
  S   S28       1.0  0.37584  0.17858  0.64255  1.0000
  H   H168      1.0  0.32227  0.47922  0.54635  1.0000
  H   H169      1.0  0.28105  0.05836  0.58631  1.0000
  H   H170      1.0  0.16692  0.39630  0.32549  1.0000
  H   H171      1.0  0.24616  0.32806  0.33141  1.0000
  C   C212      1.0  0.25249  0.09733  0.62468  1.0000
  H   H172      1.0  0.23779  0.10771  0.62264  1.0000
  C   C213      1.0  0.30755  0.48727  0.64936  1.0000
  C   C214      1.0  0.26541  0.09780  0.65066  1.0000
  C   C215      1.0  0.43682  0.23130  0.32112  1.0000
  H   H173      1.0  0.99033  0.30494  0.61766  1.0000
  C   C216      1.0  0.99000  0.27729  0.65285  1.0000
  C   C217      1.0  0.06759  0.28583  0.32367  1.0000
  Fe  Fe15      1.0  0.12354  0.32145  0.74717  1.0000
  S   S29       1.0  0.15440  0.37389  0.74421  1.0000
  S   S30       1.0  0.07171  0.30591  0.75668  1.0000
  Fe  Fe16      1.0  0.18017  0.31175  0.73441  1.0000
  S   S31       1.0  0.21365  0.36347  0.72978  1.0000
  S   S32       1.0  0.19025  0.27105  0.72831  1.0000
  Fe  Fe17      1.0  0.18969  0.36863  0.76909  1.0000
  S   S33       1.0  0.22225  0.40102  0.80368  1.0000
  Fe  Fe18      1.0  0.17569  0.36495  0.70523  1.0000
  C   C218      1.0  0.28950  0.37759  0.70626  1.0000
  S   S34       1.0  0.15781  0.31669  0.77472  1.0000
  S   S35       1.0  0.14339  0.31292  0.70734  1.0000
  Fe  Fe19      1.0  0.46252  0.23554  0.94141  1.0000
  H   H174      1.0  0.21217  0.49009  0.82346  1.0000
  S   S36       1.0  0.42024  0.21898  0.91230  1.0000
  C   C219      1.0  0.29642  0.29623  0.65459  1.0000
  Fe  Fe20      1.0  0.32028  0.20901  0.72334  1.0000
  S   S37       1.0  0.37156  0.22450  0.71507  1.0000
  S   S38       1.0  0.30809  0.24840  0.72821  1.0000
  Fe  Fe21      1.0  0.30203  0.13956  0.72476  1.0000
  S   S39       1.0  0.35153  0.15086  0.71737  1.0000
  S   S40       1.0  0.25870  0.09020  0.72660  1.0000
  Fe  Fe22      1.0  0.36536  0.19002  0.74880  1.0000
  S   S41       1.0  0.40595  0.20056  0.77832  1.0000
  Fe  Fe23      1.0  0.35462  0.18459  0.68419  1.0000
  S   S42       1.0  0.31535  0.17652  0.75867  1.0000
  S   S43       1.0  0.30394  0.17141  0.69003  1.0000
  C   C220      1.0  0.44147  0.39608  0.96549  1.0000
  C   C221      1.0  0.37650  0.08650  0.71171  1.0000
  S   S44       1.0  0.20749  0.46659  0.91603  1.0000
  C   C222      1.0  0.09576  0.36979  0.69652  1.0000
  C   C223      1.0  0.22402  0.02584  0.72353  1.0000
  C   C224      1.0  0.25394  0.05192  0.72783  1.0000
  C   C225      1.0  0.27863  0.04671  0.73383  1.0000
  C   C226      1.0  0.27316  0.01587  0.73630  1.0000
  H   H175      1.0  0.20471  0.02951  0.71892  1.0000
  H   H176      1.0  0.30179  0.06640  0.73712  1.0000
  C   C227      1.0  0.40990  0.20743  0.81545  1.0000
  C   C228      1.0  0.43799  0.21362  0.82821  1.0000
  C   C229      1.0  0.44185  0.21789  0.85762  1.0000
  C   C230      1.0  0.41748  0.21569  0.87483  1.0000
  C   C231      1.0  0.38947  0.20978  0.86206  1.0000
  C   C232      1.0  0.38576  0.20592  0.83259  1.0000
  H   H177      1.0  0.45686  0.21488  0.81526  1.0000
  H   H178      1.0  0.46349  0.22233  0.86701  1.0000
  H   H179      1.0  0.37038  0.20792  0.87507  1.0000
  H   H180      1.0  0.36396  0.20104  0.82321  1.0000
  C   C233      1.0  0.21694  0.41801  0.83524  1.0000
  C   C234      1.0  0.24145  0.43138  0.85469  1.0000
  C   C235      1.0  0.23888  0.44588  0.87961  1.0000
  C   C236      1.0  0.21188  0.44766  0.88534  1.0000
  C   C237      1.0  0.18730  0.43417  0.86593  1.0000
  C   C238      1.0  0.18971  0.41936  0.84114  1.0000
  H   H181      1.0  0.26261  0.43049  0.85047  1.0000
  H   H182      1.0  0.25778  0.45562  0.89436  1.0000
  H   H183      1.0  0.16622  0.43527  0.87008  1.0000
  H   H184      1.0  0.17069  0.40941  0.82641  1.0000
  C   C239      1.0  0.03384  0.27282  0.75054  1.0000
  C   C240      1.0  0.00703  0.27539  0.75616  1.0000
  C   C241      1.0  0.02964  0.24418  0.74076  1.0000
  H   H185      1.0  0.00984  0.29726  0.76402  1.0000
  H   H186      1.0  0.04983  0.24149  0.73703  1.0000
  C   C242      1.0  0.22355  0.26552  0.72768  1.0000
  C   C243      1.0  0.21890  0.23516  0.72363  1.0000
  C   C244      1.0  0.24430  0.22940  0.72347  1.0000
  C   C245      1.0  0.27488  0.25398  0.72746  1.0000
  C   C246      1.0  0.27955  0.28439  0.73108  1.0000
  C   C247      1.0  0.25419  0.29016  0.73111  1.0000
  H   H187      1.0  0.19541  0.21587  0.72073  1.0000
  H   H188      1.0  0.24019  0.20593  0.72036  1.0000
  H   H189      1.0  0.30305  0.30368  0.73399  1.0000
  H   H190      1.0  0.25838  0.31364  0.73403  1.0000
  H   H191      1.0  0.27820  0.20621  0.81877  1.0000
  C   C248      1.0  0.19273  0.99924  0.79199  1.0000
  C   C249      1.0  0.46907  0.32622  0.93288  1.0000
  H   H192      1.0  0.41754  0.42112  0.95544  1.0000
  H   H193      1.0  0.31374  0.31877  0.66260  1.0000
  C   C250      1.0  0.06570  0.26725  0.67632  1.0000
  C   C251      1.0  0.99920  0.21879  0.73617  1.0000
  H   H194      1.0  0.29984  0.47919  0.92903  1.0000
  H   H195      1.0  0.15756  0.26315  0.67277  1.0000
  H   H196      1.0  0.29414  0.08513  0.67393  1.0000
  H   H197      1.0  0.99639  0.19687  0.72844  1.0000
  H   H198      1.0  0.08877  0.39049  0.73403  1.0000
  H   H199      1.0  0.35165  0.03870  0.72574  1.0000
  H   H200      1.0  0.33439  0.41611  0.71766  1.0000
  C   C252      1.0  0.24432  0.03915  0.80650  1.0000
  C   C253      1.0  0.40430  0.29956  0.92813  1.0000
  H   H201      1.0  0.40822  0.27146  0.89496  1.0000
  H   H202      1.0  0.26848  0.06567  0.87213  1.0000
  H   H203      1.0  0.22318  0.12029  0.86151  1.0000
  H   H204      1.0  0.09646  0.34382  0.66042  1.0000
  H   H205      1.0  0.13000  0.20975  0.95182  1.0000
  C   C254      1.0  0.04970  0.32376  0.67878  1.0000
  H   H206      1.0  0.31793  0.01932  0.68440  1.0000
  H   H207      1.0  0.27859  0.37731  0.72634  1.0000
  H   H208      1.0  0.26853  0.04603  0.81000  1.0000
  C   C255      1.0  0.07171  0.24300  0.68182  1.0000
  C   C256      1.0  0.07777  0.37228  0.71835  1.0000
  C   C257      1.0  0.20129  0.04965  0.80792  1.0000
  C   C258      1.0  0.28639  0.35544  0.65973  1.0000
  H   H209      1.0  0.20886  0.11407  0.91189  1.0000
  C   C259      1.0  0.22415  0.00895  0.79666  1.0000
  H   H210      1.0  0.22803  0.10127  0.77436  1.0000
  H   H211      1.0  0.22420  0.08391  0.94265  1.0000
  C   C260      1.0  0.32103  0.39939  0.70141  1.0000
  H   H212      1.0  0.29225  0.01218  0.74169  1.0000
  S   S45       1.0  0.25783  0.46999  0.98435  1.0000
  H   H213      1.0  0.40710  0.32901  0.96273  1.0000
  H   H214      1.0  0.31334  0.12604  0.86391  1.0000
  H   H215      1.0  0.28235  0.16356  0.84121  1.0000
  C   C261      1.0  0.23478  0.33819  0.81619  1.0000
  C   C262      1.0  0.22654  0.31125  0.80038  1.0000
  C   C263      1.0  0.19914  0.28345  0.80695  1.0000
  C   C264      1.0  0.18008  0.28251  0.82954  1.0000
  C   C265      1.0  0.18866  0.30929  0.84604  1.0000
  C   C266      1.0  0.21582  0.33732  0.83882  1.0000
  P   P9        1.0  0.16262  0.30824  0.87374  1.0000
  C   C267      1.0  0.18070  0.34248  0.89594  1.0000
  C   C268      1.0  0.12928  0.30550  0.85620  1.0000
  C   C269      1.0  0.10006  0.27789  0.85705  1.0000
  C   C270      1.0  0.07464  0.27618  0.84294  1.0000
  C   C271      1.0  0.07832  0.30180  0.82766  1.0000
  C   C272      1.0  0.10754  0.32900  0.82604  1.0000
  C   C273      1.0  0.13300  0.33082  0.84015  1.0000
  C   C274      1.0  0.16456  0.35818  0.90385  1.0000
  C   C275      1.0  0.17798  0.38338  0.92255  1.0000
  H   H216      1.0  0.16582  0.39593  0.92817  1.0000
  H   H217      1.0  0.37911  0.28863  0.92663  1.0000
  C   C276      1.0  0.21013  0.35202  0.90748  1.0000
  C   C277      1.0  0.15182  0.27620  0.89762  1.0000
  C   C278      1.0  0.12867  0.26958  0.91835  1.0000
  C   C279      1.0  0.12070  0.24556  0.93770  1.0000
  C   C280      1.0  0.13608  0.22825  0.93672  1.0000
  C   C281      1.0  0.15961  0.23514  0.91653  1.0000
  C   C282      1.0  0.16767  0.25918  0.89717  1.0000
  H   H218      1.0  0.25525  0.36012  0.81033  1.0000
  H   H219      1.0  0.24086  0.31208  0.78251  1.0000
  H   H220      1.0  0.19221  0.26296  0.79384  1.0000
  H   H221      1.0  0.15832  0.26110  0.83374  1.0000
  H   H222      1.0  0.22192  0.35886  0.84987  1.0000
  H   H223      1.0  0.09689  0.25749  0.86810  1.0000
  H   H224      1.0  0.05216  0.25483  0.84333  1.0000
  H   H225      1.0  0.05873  0.30028  0.81634  1.0000
  H   H226      1.0  0.11059  0.34835  0.81323  1.0000
  H   H227      1.0  0.15572  0.35178  0.83821  1.0000
  H   H228      1.0  0.14160  0.35108  0.89581  1.0000
  C   C283      1.0  0.25008  0.46145  0.67818  1.0000
  S   S46       1.0  0.46946  0.20389  0.97086  1.0000
  H   H229      1.0  0.22265  0.33979  0.90214  1.0000
  H   H230      1.0  0.11695  0.28318  0.91962  1.0000
  H   H231      1.0  0.39693  0.13191  0.69232  1.0000
  H   H232      1.0  0.26032  0.10811  0.66876  1.0000
  S   S47       1.0  0.46931  0.27034  0.97588  1.0000
  H   H233      1.0  0.18654  0.26465  0.88223  1.0000
  H   H234      1.0  0.36851  0.14106  0.85569  1.0000
  H   H235      1.0  0.34978  0.11469  0.76891  1.0000
  H   H236      1.0  0.44318  0.39029  0.94371  1.0000
  H   H237      1.0  0.22752  0.45101  0.68895  1.0000
  H   H238      1.0  0.21794  0.41303  0.94760  1.0000
  C   C284      1.0  0.04576  0.35076  0.72036  1.0000
  C   C285      1.0  0.44989  0.21897  0.68525  1.0000
  H   H239      1.0  0.03197  0.35226  0.73767  1.0000
  H   H240      1.0  0.24899  0.19654  0.77459  1.0000
  S   S48       1.0  0.17619  0.39245  0.66626  1.0000
  C   C286      1.0  0.42032  0.32259  0.94845  1.0000
  H   H241      1.0  0.29414  0.09879  0.77680  1.0000
  C   C287      1.0  0.37961  0.10731  0.69061  1.0000
  C   C288      1.0  0.45297  0.33651  0.95065  1.0000
  C   C289      1.0  0.26929  0.44840  0.68117  1.0000
  C   C290      1.0  0.42066  0.28989  0.91022  1.0000
  H   H242      1.0  0.38699  0.13582  0.80827  1.0000
  H   H243      1.0  0.12064  0.38630  0.69509  1.0000
  C   C291      1.0  0.35411  0.05484  0.70934  1.0000
  H   H244      1.0  0.39138  0.09498  0.72993  1.0000
  H   H245      1.0  0.10280  0.24057  0.95362  1.0000
  H   H246      1.0  0.25374  0.05951  0.92256  1.0000
  C   C292      1.0  0.46554  0.21427  0.70713  1.0000
  C   C293      1.0  0.24739  0.07303  0.90923  1.0000
  C   C294      1.0  0.23069  0.08672  0.92052  1.0000
  C   C295      1.0  0.22214  0.10379  0.90321  1.0000
  C   C296      1.0  0.23059  0.10752  0.87466  1.0000
  C   C297      1.0  0.24820  0.09464  0.86336  1.0000
  C   C298      1.0  0.25585  0.07671  0.88070  1.0000
  P   P10       1.0  0.25847  0.09820  0.82643  1.0000
  C   C299      1.0  0.25403  0.12870  0.81035  1.0000
  C   C300      1.0  0.29918  0.10972  0.82120  1.0000
  C   C301      1.0  0.31000  0.10728  0.79431  1.0000
  C   C302      1.0  0.34145  0.11616  0.78978  1.0000
  C   C303      1.0  0.36238  0.12787  0.81201  1.0000
  C   C304      1.0  0.35192  0.13086  0.83876  1.0000
  C   C305      1.0  0.32053  0.12225  0.84331  1.0000
  C   C306      1.0  0.26863  0.15872  0.82239  1.0000
  C   C307      1.0  0.26633  0.18293  0.80978  1.0000
  C   C308      1.0  0.24983  0.17748  0.78485  1.0000
  C   C309      1.0  0.23571  0.14783  0.77247  1.0000
  C   C310      1.0  0.23795  0.12357  0.78504  1.0000
  C   C311      1.0  0.23315  0.05994  0.81179  1.0000
  H   H247      1.0  0.22398  0.14392  0.75256  1.0000
  C   C312      1.0  0.03173  0.32657  0.70068  1.0000
  H   H248      1.0  0.24648  0.38505  0.93458  1.0000
  H   H249      1.0  0.24794  0.33853  0.68998  1.0000
  H   H250      1.0  0.45324  0.20436  0.72687  1.0000
  H   H251      1.0  0.46540  0.29465  0.89950  1.0000
  H   H252      1.0  0.42545  0.21239  0.68787  1.0000
  C   C313      1.0  0.22359  0.37743  0.92600  1.0000
  H   H253      1.0  0.19198  0.06495  0.81268  1.0000
  C   C314      1.0  0.05127  0.21275  0.67232  1.0000
  H   H254      1.0  0.21335  0.27920  0.66886  1.0000
  H   H255      1.0  0.26153  0.42795  0.69430  1.0000
  C   C315      1.0  0.20750  0.39310  0.93352  1.0000
  H   H256      1.0  0.17187  0.22205  0.91604  1.0000
  C   C316      1.0  0.27219  0.35564  0.68554  1.0000
  H   H257      1.0  0.31268  0.45089  0.66887  1.0000
  C   C317      1.0  0.33544  0.39914  0.67590  1.0000
  H   H258      1.0  0.32018  0.27344  0.67127  1.0000
  C   C318      1.0  0.46574  0.23238  0.66003  1.0000
  H   H259      1.0  0.09175  0.24749  0.69421  1.0000
  H   H260      1.0  0.00705  0.30986  0.70307  1.0000
  C   C319      1.0  0.33472  0.04397  0.68592  1.0000
  H   H261      1.0  0.36006  0.41562  0.67234  1.0000
  H   H262      1.0  0.23298  0.99315  0.79218  1.0000
  P   P11       1.0  0.47338  0.36468  0.97810  1.0000
  C   C320      1.0  0.29801  0.46129  0.66676  1.0000
  H   H263      1.0  0.08123  0.29025  0.68465  1.0000
  C   C321      1.0  0.08189  0.34559  0.67687  1.0000
  C   C322      1.0  0.18127  0.01955  0.79768  1.0000
  C   C323      1.0  0.03939  0.26148  0.66089  1.0000
  H   H264      1.0  0.15689  0.01196  0.79407  1.0000
  C   C324      1.0  0.25930  0.48711  0.66051  1.0000
  C   C325      1.0  0.42712  0.41371  0.97203  1.0000
  C   C326      1.0  0.45299  0.30312  0.91269  1.0000
  C   C327      1.0  0.26370  0.99835  0.65701  1.0000
  C   C328      1.0  0.30025  0.27052  0.65954  1.0000
  H   H265      1.0  0.05561  0.19389  0.67719  1.0000
  C   C329      1.0  0.20417  0.29021  0.65545  1.0000
  C   C330      1.0  0.21868  0.99500  0.72547  1.0000
  H   H266      1.0  0.26478  0.01331  0.67434  1.0000
  Fe  Fe24      1.0  0.23426  0.48862  0.95690  1.0000
  C   C331      1.0  0.33718  0.06495  0.66499  1.0000
  C   C332      1.0  0.02496  0.20677  0.65701  1.0000
  C   C333      1.0  0.17241  0.28103  0.65772  1.0000
  C   C334      1.0  0.45360  0.38610  0.98691  1.0000
  C   C335      1.0  0.35982  0.09668  0.66750  1.0000
  H   H267      1.0  0.28064  0.22088  0.65497  1.0000
  C   C336      1.0  0.31829  0.37709  0.65522  1.0000
  Fe  Fe25      1.0  0.12624  0.81924  0.22512  1.0000
  S   S49       1.0  0.16248  0.80380  0.22080  1.0000
  S   S50       1.0  0.07466  0.77904  0.22749  1.0000
  Fe  Fe26      1.0  0.17762  0.88900  0.22737  1.0000
  S   S51       1.0  0.21633  0.87765  0.22393  1.0000
  S   S52       1.0  0.18234  0.93788  0.23063  1.0000
  Fe  Fe27      1.0  0.18775  0.84321  0.18995  1.0000
  S   S53       1.0  0.21546  0.84636  0.14915  1.0000
  Fe  Fe28      1.0  0.18845  0.83883  0.25521  1.0000
  S   S54       1.0  0.21498  0.82830  0.28904  1.0000
  S   S55       1.0  0.15001  0.85651  0.19189  1.0000
  S   S56       1.0  0.15136  0.85240  0.26101  1.0000
  H   H268      1.0  0.12729  0.67580  0.12624  1.0000
  S   S57       1.0  0.26932  0.52464  0.03036  1.0000
  H   H269      1.0  0.37842  0.56262  0.05224  1.0000
  C   C337      1.0  0.45601  0.85504  0.30913  1.0000
  H   H270      1.0  0.01472  0.72320  0.23391  1.0000
  S   S58       1.0  0.21191  0.76274  0.04312  1.0000
  C   C338      1.0  0.18718  0.65404  0.04551  1.0000
  C   C339      1.0  0.43754  0.74557  0.11412  1.0000
  H   H271      1.0  0.40921  0.66715  0.11187  1.0000
  C   C340      1.0  0.17951  0.63001  0.02574  1.0000
  C   C341      1.0  0.38797  0.68576  0.01058  1.0000
  H   H272      1.0  0.14472  0.55836  0.13560  1.0000
  H   H273      1.0  0.41043  0.68774  0.01432  1.0000
  H   H274      1.0  0.23947  0.70615  0.11916  1.0000
  C   C342      1.0  0.39045  0.63681  0.05692  1.0000
  H   H275      1.0  0.18799  0.69775  0.05346  1.0000
  H   H276      1.0  0.14374  0.64716  0.09361  1.0000
  Fe  Fe29      1.0  0.23743  0.76987  0.00037  1.0000
  C   C343      1.0  0.15167  0.68197  0.12491  1.0000
  P   P12       1.0  0.36983  0.65805  0.06343  1.0000
  C   C344      1.0  0.42065  0.74821  0.09214  1.0000
  H   H277      1.0  0.28277  0.58444  0.27155  1.0000
  C   C345      1.0  0.36336  0.67149  0.03035  1.0000
  H   H278      1.0  0.16659  0.69909  0.00781  1.0000
  C   C346      1.0  0.12390  0.76844  0.28487  1.0000
  H   H279      1.0  0.25754  0.64657  0.02356  1.0000
  C   C347      1.0  0.21408  0.82233  0.12013  1.0000
  C   C348      1.0  0.19239  0.79031  0.11870  1.0000
  C   C349      1.0  0.19234  0.77255  0.09513  1.0000
  C   C350      1.0  0.21395  0.78640  0.07267  1.0000
  C   C351      1.0  0.23575  0.81836  0.07418  1.0000
  C   C352      1.0  0.23573  0.83614  0.09770  1.0000
  H   H280      1.0  0.17570  0.77923  0.13575  1.0000
  H   H281      1.0  0.17532  0.74790  0.09419  1.0000
  H   H282      1.0  0.25246  0.82944  0.05713  1.0000
  H   H283      1.0  0.25264  0.86084  0.09850  1.0000
  H   H284      1.0  0.11951  0.73030  0.25932  1.0000
  Fe  Fe30      1.0  0.24581  0.54051  0.99970  1.0000
  H   H285      1.0  0.16592  0.52898  0.10945  1.0000
  C   C353      1.0  0.02899  0.79649  0.22052  1.0000
  C   C354      1.0  0.03552  0.77251  0.22576  1.0000
  S   S59       1.0  0.24567  0.58449  0.01418  1.0000
  H   H286      1.0  0.04810  0.82006  0.21737  1.0000
  H   H287      1.0  0.09509  0.87026  0.26132  1.0000
  H   H288      1.0  0.37113  0.75317  0.02613  1.0000
  H   H289      1.0  0.20128  0.81986  0.01397  1.0000
  H   H290      1.0  0.20446  0.55461  0.07049  1.0000
  C   C355      1.0  0.17126  0.60050  0.11134  1.0000
  C   C356      1.0  0.17382  0.70667  0.14107  1.0000
  H   H291      1.0  0.16137  0.93712  0.16622  1.0000
  S   S60       1.0  0.26845  0.74878  0.99241  1.0000
  C   C357      1.0  0.01011  0.74199  0.22976  1.0000
  C   C358      1.0  0.29306  0.72303  0.05566  1.0000
  H   H292      1.0  0.44372  0.67249  0.22846  1.0000
  C   C359      1.0  0.26051  0.70423  0.05762  1.0000
  H   H293      1.0  0.24606  0.71132  0.04664  1.0000
  H   H294      1.0  0.25016  0.96364  0.22069  1.0000
  H   H295      1.0  0.30331  0.74409  0.04311  1.0000
  H   H296      1.0  0.44644  0.71426  0.13820  1.0000
  C   C360      1.0  0.41199  0.68964  0.10640  1.0000
  H   H297      1.0  0.34916  0.65513  0.12265  1.0000
  C   C361      1.0  0.37455  0.60397  0.05718  1.0000
  C   C362      1.0  0.42302  0.65320  0.05225  1.0000
  H   H298      1.0  0.43582  0.59201  0.04384  1.0000
  H   H299      1.0  0.33749  0.72989  0.06899  1.0000
  C   C363      1.0  0.16307  0.65603  0.99301  1.0000
  H   H300      1.0  0.43019  0.87807  0.29867  1.0000
  H   H301      1.0  0.04951  0.83028  0.03223  1.0000
  C   C364      1.0  0.33534  0.67155  0.02559  1.0000
  H   H302      1.0  0.16669  0.71970  0.15487  1.0000
  C   C365      1.0  0.06977  0.84873  0.04265  1.0000
  C   C366      1.0  0.30567  0.98109  0.12508  1.0000
  H   H303      1.0  0.46547  0.82581  0.05134  1.0000
  H   H304      1.0  0.31620  0.66173  0.04072  1.0000
  H   H305      1.0  0.16146  0.61268  0.12285  1.0000
  H   H306      1.0  0.22256  0.60931  0.05833  1.0000
  C   C367      1.0  0.33322  0.63345  0.08184  1.0000
  C   C368      1.0  0.21483  0.69880  0.12074  1.0000
  C   C369      1.0  0.27960  0.59029  0.08142  1.0000
  C   C370      1.0  0.39528  0.69219  0.08399  1.0000
  C   C371      1.0  0.20553  0.59852  0.07522  1.0000
  H   H307      1.0  0.38725  0.72450  0.05990  1.0000
  C   C372      1.0  0.24691  0.67706  0.07410  1.0000
  C   C373      1.0  0.16171  0.56962  0.11872  1.0000
  C   C374      1.0  0.30157  0.61790  0.12483  1.0000
  H   H308      1.0  0.25445  0.57920  0.12095  1.0000
  C   C375      1.0  0.16349  0.80359  0.04434  1.0000
  C   C376      1.0  0.16994  0.67962  0.01278  1.0000
  C   C377      1.0  0.29898  0.68845  0.08725  1.0000
  C   C378      1.0  0.26642  0.66951  0.08924  1.0000
  H   H309      1.0  0.21678  0.95133  0.17027  1.0000
  C   C379      1.0  0.19555  0.56753  0.08229  1.0000
  H   H310      1.0  0.26032  0.57184  0.06998  1.0000
  C   C380      1.0  0.31230  0.71511  0.07039  1.0000
  C   C381      1.0  0.17370  0.55307  0.10408  1.0000
  C   C382      1.0  0.46186  0.67112  0.23974  1.0000
  H   H311      1.0  0.03333  0.72142  0.29058  1.0000
  C   C383      1.0  0.19307  0.61513  0.08929  1.0000
  C   C384      1.0  0.32996  0.63725  0.11081  1.0000
  C   C385      1.0  0.10714  0.73943  0.27165  1.0000
  C   C386      1.0  0.07791  0.87992  0.03890  1.0000
  C   C387      1.0  0.43309  0.71626  0.12135  1.0000
  C   C388      1.0  0.06452  0.79220  0.14448  1.0000
  C   C389      1.0  0.07689  0.77508  0.15643  1.0000
  C   C390      1.0  0.10777  0.78284  0.15039  1.0000
  C   C391      1.0  0.12599  0.80710  0.13169  1.0000
  C   C392      1.0  0.11328  0.82338  0.11849  1.0000
  C   C393      1.0  0.08271  0.81648  0.12573  1.0000
  P   P13       1.0  0.13751  0.85500  0.09485  1.0000
  C   C394      1.0  0.15813  0.84369  0.06981  1.0000
  C   C395      1.0  0.11400  0.86502  0.07352  1.0000
  C   C396      1.0  0.08788  0.84129  0.05973  1.0000
  H   H312      1.0  0.33707  0.76975  0.00303  1.0000
  P   P14       1.0  0.20487  0.65464  0.07869  1.0000
  H   H313      1.0  0.29535  0.95593  0.12636  1.0000
  C   C397      1.0  0.12247  0.89635  0.06914  1.0000
  C   C398      1.0  0.14800  0.81202  0.06450  1.0000
  H   H314      1.0  0.06390  0.88566  0.02564  1.0000
  H   H315      1.0  0.31091  0.68639  0.99830  1.0000
  H   H316      1.0  0.31374  0.98264  0.08033  1.0000
  C   C399      1.0  0.18327  0.86665  0.05392  1.0000
  C   C400      1.0  0.16340  0.88712  0.11707  1.0000
  C   C401      1.0  0.19480  0.89512  0.11983  1.0000
  C   C402      1.0  0.21403  0.91838  0.13880  1.0000
  C   C403      1.0  0.20210  0.93390  0.15506  1.0000
  C   C404      1.0  0.17080  0.92592  0.15264  1.0000
  C   C405      1.0  0.15140  0.90242  0.13388  1.0000
  H   H317      1.0  0.04102  0.78694  0.15031  1.0000
  H   H318      1.0  0.06284  0.75644  0.17112  1.0000
  H   H319      1.0  0.11781  0.77055  0.16074  1.0000
  H   H320      1.0  0.15014  0.81345  0.12775  1.0000
  H   H321      1.0  0.07298  0.82997  0.11731  1.0000
  H   H322      1.0  0.08156  0.81704  0.06219  1.0000
  C   C406      1.0  0.21475  0.97664  0.22610  1.0000
  C   C407      1.0  0.10432  0.90372  0.05205  1.0000
  C   C408      1.0  0.18896  0.82658  0.02913  1.0000
  H   H323      1.0  0.14319  0.91514  0.07865  1.0000
  H   H324      1.0  0.12824  0.79371  0.07583  1.0000
  C   C409      1.0  0.33211  0.68548  0.00145  1.0000
  H   H325      1.0  0.19098  0.89115  0.05718  1.0000
  H   H326      1.0  0.20420  0.88248  0.10841  1.0000
  H   H327      1.0  0.23778  0.92332  0.14175  1.0000
  H   H328      1.0  0.12687  0.89558  0.13311  1.0000
  H   H329      1.0  0.25658  0.64930  0.10286  1.0000
  C   C410      1.0  0.27164  0.58843  0.28975  1.0000
  H   H330      1.0  0.45435  0.76628  0.12532  1.0000
  H   H331      1.0  0.42448  0.77095  0.08602  1.0000
  C   C411      1.0  0.18203  0.67871  0.03882  1.0000
  C   C412      1.0  0.30779  0.60973  0.06728  1.0000
  H   H332      1.0  0.31392  0.68266  0.09900  1.0000
  H   H333      1.0  0.06986  0.81410  0.27213  1.0000
  H   H334      1.0  0.30971  0.60601  0.04496  1.0000
  C   C413      1.0  0.27639  0.59442  0.11013  1.0000
  C   C414      1.0  0.19273  0.67405  0.10428  1.0000
  C   C415      1.0  0.20536  0.71507  0.13898  1.0000
  C   C416      1.0  0.16106  0.66576  0.10652  1.0000
  H   H335      1.0  0.22257  0.73467  0.15110  1.0000
  S   S61       1.0  0.43500  0.76931  0.01724  1.0000
  H   H336      1.0  0.18346  0.61082  0.02978  1.0000
  C   C417      1.0  0.24547  0.98283  0.22150  1.0000
  H   H337      1.0  0.21856  0.87586  0.02200  1.0000
  C   C418      1.0  0.24886  0.64002  0.00244  1.0000
  H   H338      1.0  0.29913  0.62091  0.14716  1.0000
  C   C419      1.0  0.39944  0.72164  0.07726  1.0000
  H   H339      1.0  0.43591  0.67847  0.05188  1.0000
  C   C420      1.0  0.25312  0.60221  0.28649  1.0000
  C   C421      1.0  0.43933  0.63711  0.04773  1.0000
  H   H340      1.0  0.46426  0.64994  0.04308  1.0000
  H   H341      1.0  0.14921  0.78152  0.28311  1.0000
  C   C422      1.0  0.99761  0.78995  0.21927  1.0000
  C   C423      1.0  0.39100  0.58796  0.05296  1.0000
  C   C424      1.0  0.05858  0.73465  0.28956  1.0000
  H   H342      1.0  0.43404  0.62144  0.24651  1.0000
  C   C425      1.0  0.07449  0.72260  0.27387  1.0000
  H   H343      1.0  0.99300  0.80877  0.21523  1.0000
  C   C426      1.0  0.00087  0.77250  0.30042  1.0000
  H   H344      1.0  0.24989  0.60898  0.26579  1.0000
  H   H345      1.0  0.11085  0.92792  0.04888  1.0000
  C   C427      1.0  0.38010  0.76898  0.00848  1.0000
  C   C428      1.0  0.07747  0.83080  0.28921  1.0000
  C   C429      1.0  0.19879  0.85811  0.03384  1.0000
  C   C430      1.0  0.42334  0.60450  0.04817  1.0000
  H   H346      1.0  0.34949  0.59041  0.06018  1.0000
  H   H347      1.0  0.06147  0.70051  0.26300  1.0000
  C   C431      1.0  0.09168  0.86265  0.28305  1.0000
  H   H348      1.0  0.01508  0.79529  0.29114  1.0000
  H   H349      1.0  0.30057  0.98680  0.16952  1.0000
  C   C432      1.0  0.07532  0.76379  0.30299  1.0000
  C   C433      1.0  0.27575  0.57965  0.31648  1.0000
  C   C434      1.0  0.23873  0.60728  0.30998  1.0000
  C   C435      1.0  0.10806  0.78081  0.30007  1.0000
  C   C436      1.0  0.23766  0.96643  0.29571  1.0000
  H   H350      1.0  0.12142  0.80355  0.30982  1.0000
  C   C437      1.0  0.36073  0.77831  0.99544  1.0000
  Fe  Fe31      1.0  0.47586  0.76610  0.99796  1.0000
  H   H351      1.0  0.24994  0.68344  0.99465  1.0000
  C   C438      1.0  0.41093  0.77991  0.99879  1.0000
  H   H352      1.0  0.22444  0.61807  0.30752  1.0000
  C   C439      1.0  0.16760  0.63111  0.99959  1.0000
  C   C440      1.0  0.48001  0.64050  0.26403  1.0000
  H   H353      1.0  0.29039  0.56921  0.31864  1.0000
  C   C441      1.0  0.45643  0.64235  0.24985  1.0000
  H   H354      1.0  0.15627  0.77918  0.04087  1.0000
  H   H355      1.0  0.21793  0.95274  0.28218  1.0000
  H   H356      1.0  0.11421  0.90935  0.29984  1.0000
  H   H357      1.0  0.47592  0.61816  0.27165  1.0000
  H   H358      1.0  0.24179  0.92680  0.30793  1.0000
  C   C442      1.0  0.25116  0.95181  0.31019  1.0000
  C   C443      1.0  0.24160  0.61055  0.99187  1.0000
  Fe  Fe32      1.0  0.29395  0.52070  0.99175  1.0000
  C   C444      1.0  0.44447  0.87540  0.31420  1.0000
  S   S62       1.0  0.34548  0.53565  0.99335  1.0000
  C   C445      1.0  0.10248  0.88464  0.30477  1.0000
  H   H359      1.0  0.45061  0.84187  0.28966  1.0000
  S   S63       1.0  0.48725  0.73425  0.02237  1.0000
  C   C446      1.0  0.01404  0.75897  0.31723  1.0000
  C   C447      1.0  0.07348  0.82058  0.31715  1.0000
  H   H360      1.0  0.35661  0.60051  0.98790  1.0000
  Fe  Fe33      1.0  0.23532  0.52558  0.49896  1.0000
  S   S64       1.0  0.21468  0.55462  0.51645  1.0000
  S   S65       1.0  0.25316  0.52891  0.45484  1.0000
  Fe  Fe34      1.0  0.24453  0.72336  0.46923  1.0000
  S   S66       1.0  0.27000  0.76551  0.44092  1.0000
  S   S67       1.0  0.24942  0.68170  0.45517  1.0000
  Fe  Fe35      1.0  0.29048  0.79127  0.48119  1.0000
  Fe  Fe36      1.0  0.22971  0.77402  0.44963  1.0000
  S   S68       1.0  0.20218  0.78748  0.41921  1.0000
  S   S69       1.0  0.20253  0.72969  0.47535  1.0000
  H   H361      1.0  0.02047  0.53924  0.51221  1.0000
  C   C448      1.0  0.20387  0.58035  0.42767  1.0000
  H   H362      1.0  0.01998  0.77621  0.37537  1.0000
  C   C449      1.0  0.37715  0.79845  0.48059  1.0000
  C   C450      1.0  0.40552  0.79781  0.48291  1.0000
  C   C451      1.0  0.43221  0.82364  0.49412  1.0000
  H   H363      1.0  0.35663  0.77869  0.47190  1.0000
  H   H364      1.0  0.40676  0.77749  0.47616  1.0000
  C   C452      1.0  0.41573  0.64683  0.46971  1.0000
  C   C453      1.0  0.39326  0.61911  0.45646  1.0000
  H   H365      1.0  0.43517  0.66471  0.45770  1.0000
  H   H366      1.0  0.39548  0.61581  0.43419  1.0000
  C   C454      1.0  0.22648  0.59158  0.50137  1.0000
  C   C455      1.0  0.25172  0.60542  0.48240  1.0000
  C   C456      1.0  0.25956  0.63397  0.46950  1.0000
  C   C457      1.0  0.24260  0.64925  0.47583  1.0000
  H   H367      1.0  0.26477  0.59375  0.47730  1.0000
  H   H368      1.0  0.27832  0.64384  0.45397  1.0000
  C   C458      1.0  0.06074  0.77385  0.36116  1.0000
  C   C459      1.0  0.09037  0.84156  0.65153  1.0000
  C   C460      1.0  0.23034  0.80073  0.36534  1.0000
  C   C461      1.0  0.20619  0.79858  0.38287  1.0000
  C   C462      1.0  0.18427  0.80559  0.37130  1.0000
  C   C463      1.0  0.18639  0.81454  0.34279  1.0000
  H   H369      1.0  0.37509  0.66184  0.37085  1.0000
  H   H370      1.0  0.24743  0.79552  0.37373  1.0000
  H   H371      1.0  0.16565  0.80434  0.38459  1.0000
  C   C464      1.0  0.34906  0.55905  0.58290  1.0000
  Fe  Fe37      1.0  0.29336  0.52720  0.47419  1.0000
  S   S70       1.0  0.27719  0.52713  0.51864  1.0000
  S   S71       1.0  0.34142  0.56015  0.45512  1.0000
  Fe  Fe38      1.0  0.22752  0.75927  0.51326  1.0000
  S   S72       1.0  0.25244  0.80366  0.48824  1.0000
  S   S73       1.0  0.20455  0.75212  0.55731  1.0000
  S   S74       1.0  0.34130  0.82816  0.48831  1.0000
  S   S75       1.0  0.26721  0.74908  0.50879  1.0000
  C   C465      1.0  0.34750  0.62591  0.64680  1.0000
  S   S76       1.0  0.44261  0.68338  0.51718  1.0000
  C   C466      1.0  0.02575  0.71550  0.62681  1.0000
  C   C467      1.0  0.37550  0.82481  0.48971  1.0000
  C   C468      1.0  0.43027  0.84979  0.50276  1.0000
  C   C469      1.0  0.40232  0.85039  0.50055  1.0000
  H   H372      1.0  0.45061  0.86988  0.51136  1.0000
  H   H373      1.0  0.40150  0.87093  0.50741  1.0000
  C   C470      1.0  0.36808  0.59552  0.47192  1.0000
  C   C471      1.0  0.36546  0.59990  0.50069  1.0000
  C   C472      1.0  0.38847  0.62705  0.51408  1.0000
  C   C473      1.0  0.41365  0.65062  0.49873  1.0000
  H   H374      1.0  0.34625  0.58182  0.51269  1.0000
  H   H375      1.0  0.38710  0.62961  0.53656  1.0000
  C   C474      1.0  0.21848  0.63632  0.49605  1.0000
  C   C475      1.0  0.21038  0.60751  0.50867  1.0000
  H   H376      1.0  0.20513  0.64777  0.50094  1.0000
  H   H377      1.0  0.19103  0.59713  0.52358  1.0000
  C   C476      1.0  0.19261  0.81978  0.61761  1.0000
  C   C477      1.0  0.20180  0.82816  0.58938  1.0000
  C   C478      1.0  0.20506  0.80764  0.57052  1.0000
  C   C479      1.0  0.19933  0.77843  0.57971  1.0000
  C   C480      1.0  0.18937  0.76974  0.60779  1.0000
  C   C481      1.0  0.18619  0.79031  0.62669  1.0000
  H   H378      1.0  0.20662  0.85080  0.58202  1.0000
  H   H379      1.0  0.21224  0.81455  0.54891  1.0000
  H   H380      1.0  0.18435  0.74701  0.61500  1.0000
  C   C482      1.0  0.28812  0.50023  0.64594  1.0000
  H   H381      1.0  0.24647  0.61187  0.40588  1.0000
  C   C483      1.0  0.46881  0.88811  0.35988  1.0000
  S   S77       1.0  0.18985  0.84724  0.64040  1.0000
  H   H382      1.0  0.29062  0.77901  0.58618  1.0000
  S   S78       1.0  0.47290  0.75329  0.46138  1.0000
  C   C484      1.0  0.48278  0.79748  0.38452  1.0000
  H   H383      1.0  0.02603  0.71300  0.58128  1.0000
  H   H384      1.0  0.44160  0.83117  0.41042  1.0000
  S   S79       1.0  0.46888  0.82565  0.49838  1.0000
  C   C485      1.0  0.30146  0.60468  0.38966  1.0000
  H   H385      1.0  0.31783  0.59879  0.61300  1.0000
  C   C486      1.0  0.07619  0.78032  0.63821  1.0000
  H   H386      1.0  0.25609  0.94445  0.59410  1.0000
  H   H387      1.0  0.27816  0.72968  0.61009  1.0000
  C   C487      1.0  0.23283  0.56356  0.39708  1.0000
  C   C488      1.0  0.10791  0.76377  0.55120  1.0000
  H   H388      1.0  0.23129  0.60257  0.35454  1.0000
  C   C489      1.0  0.01190  0.70572  0.60036  1.0000
  H   H389      1.0  0.10262  0.70948  0.61183  1.0000
  C   C490      1.0  0.28185  0.99105  0.61140  1.0000
  C   C491      1.0  0.29476  0.73811  0.59266  1.0000
  C   C492      1.0  0.31987  0.61662  0.55532  1.0000
  C   C493      1.0  0.28732  0.60227  0.55739  1.0000
  C   C494      1.0  0.27287  0.62038  0.55712  1.0000
  C   C495      1.0  0.29087  0.65282  0.55432  1.0000
  C   C496      1.0  0.32370  0.66761  0.55351  1.0000
  C   C497      1.0  0.33803  0.64917  0.55324  1.0000
  P   P15       1.0  0.34692  0.70899  0.54679  1.0000
  C   C498      1.0  0.35221  0.71148  0.50918  1.0000
  C   C499      1.0  0.32877  0.73084  0.55949  1.0000
  C   C500      1.0  0.33663  0.75942  0.54693  1.0000
  C   C501      1.0  0.32333  0.77698  0.55685  1.0000
  C   C502      1.0  0.22386  0.51503  0.57680  1.0000
  C   C503      1.0  0.30853  0.72079  0.58307  1.0000
  C   C504      1.0  0.37751  0.71000  0.49673  1.0000
  C   C505      1.0  0.38076  0.71014  0.46749  1.0000
  C   C506      1.0  0.35864  0.71143  0.45048  1.0000
  C   C507      1.0  0.33319  0.71242  0.46274  1.0000
  C   C508      1.0  0.32975  0.71215  0.49200  1.0000
  C   C509      1.0  0.38467  0.72758  0.56321  1.0000
  C   C510      1.0  0.39049  0.71425  0.58658  1.0000
  C   C511      1.0  0.41992  0.72941  0.59913  1.0000
  C   C512      1.0  0.44337  0.75829  0.58886  1.0000
  C   C513      1.0  0.43733  0.77211  0.56619  1.0000
  C   C514      1.0  0.40820  0.75679  0.55333  1.0000
  H   H390      1.0  0.33086  0.60238  0.55431  1.0000
  H   H391      1.0  0.27311  0.57703  0.55795  1.0000
  H   H392      1.0  0.24754  0.60903  0.55757  1.0000
  H   H393      1.0  0.27899  0.66605  0.55173  1.0000
  H   H394      1.0  0.36314  0.65990  0.55027  1.0000
  H   H395      1.0  0.35286  0.76808  0.52930  1.0000
  H   H396      1.0  0.32890  0.79855  0.54632  1.0000
  H   H397      1.0  0.30314  0.69950  0.59388  1.0000
  H   H398      1.0  0.39461  0.70840  0.50951  1.0000
  H   H399      1.0  0.40042  0.70904  0.45822  1.0000
  H   H400      1.0  0.36085  0.71131  0.42780  1.0000
  H   H401      1.0  0.31587  0.71313  0.44958  1.0000
  H   H402      1.0  0.30937  0.71211  0.50104  1.0000
  H   H403      1.0  0.37244  0.69222  0.59506  1.0000
  H   H404      1.0  0.42466  0.71878  0.61670  1.0000
  H   H405      1.0  0.46632  0.76995  0.59826  1.0000
  H   H406      1.0  0.45544  0.79450  0.55807  1.0000
  H   H407      1.0  0.40419  0.76776  0.53554  1.0000
  C   C515      1.0  0.08407  0.84282  0.33895  1.0000
  P   P16       1.0  0.30034  0.53372  0.62342  1.0000
  C   C516      1.0  0.18219  0.54923  0.43389  1.0000
  H   H408      1.0  0.11015  0.77938  0.53437  1.0000
  C   C517      1.0  0.30194  0.76605  0.57937  1.0000
  H   H409      1.0  0.44122  0.90705  0.34380  1.0000
  C   C518      1.0  0.06909  0.76722  0.41844  1.0000
  C   C519      1.0  0.10585  0.80586  0.63168  1.0000
  C   C520      1.0  0.21268  0.53300  0.58996  1.0000
  C   C521      1.0  0.35524  0.64698  0.38425  1.0000
  H   H410      1.0  0.13372  0.71422  0.56911  1.0000
  C   C522      1.0  0.09861  0.87473  0.33272  1.0000
  H   H411      1.0  0.35590  0.87494  0.62053  1.0000
  C   C523      1.0  0.29628  0.51003  0.38713  1.0000
  H   H412      1.0  0.16332  0.54378  0.44888  1.0000
  H   H413      1.0  0.07860  0.77499  0.57697  1.0000
  C   C524      1.0  0.18531  0.52523  0.42129  1.0000
  H   H414      1.0  0.26388  0.77854  0.63556  1.0000
  C   C525      1.0  0.47399  0.85122  0.32939  1.0000
  H   H415      1.0  0.41652  0.73458  0.40969  1.0000
  H   H416      1.0  0.16889  0.50103  0.42641  1.0000
  H   H417      1.0  0.28767  0.95810  0.33811  1.0000
  C   C526      1.0  0.11282  0.83630  0.63826  1.0000
  H   H418      1.0  0.38023  0.66616  0.42272  1.0000
  C   C527      1.0  0.00447  0.54472  0.50176  1.0000
  H   H419      1.0  0.10723  0.89183  0.34954  1.0000
  C   C528      1.0  0.42593  0.78211  0.41142  1.0000
  H   H420      1.0  0.33491  0.63208  0.45350  1.0000
  C   C529      1.0  0.32705  0.62454  0.37235  1.0000
  H   H421      1.0  0.25811  0.50059  0.57666  1.0000
  H   H422      1.0  0.26418  0.56330  0.64339  1.0000
  C   C530      1.0  0.27180  0.53934  0.37155  1.0000
  C   C531      1.0  0.36534  0.55725  0.55918  1.0000
  H   H423      1.0  0.03424  0.59451  0.50641  1.0000
  C   C532      1.0  0.08628  0.77097  0.36986  1.0000
  C   C533      1.0  0.03956  0.77357  0.38152  1.0000
  C   C534      1.0  0.04368  0.77015  0.41002  1.0000
  C   C535      1.0  0.01219  0.57587  0.49859  1.0000
  C   C536      1.0  0.08835  0.74208  0.59774  1.0000
  C   C537      1.0  0.32310  0.53193  0.59381  1.0000
  H   H424      1.0  0.12389  0.80236  0.62187  1.0000
  C   C538      1.0  0.32864  0.59806  0.63237  1.0000
  C   C539      1.0  0.46128  0.76636  0.39103  1.0000
  H   H425      1.0  0.23603  0.51593  0.34022  1.0000
  H   H426      1.0  0.13593  0.85579  0.63358  1.0000
  H   H427      1.0  0.40403  0.77628  0.42204  1.0000
  H   H428      1.0  0.46710  0.74833  0.38621  1.0000
  C   C540      1.0  0.44739  0.81327  0.40495  1.0000
  H   H429      1.0  0.10330  0.77139  0.35495  1.0000
  C   C541      1.0  0.35811  0.64963  0.41346  1.0000
  C   C542      1.0  0.33024  0.50147  0.55686  1.0000
  H   H430      1.0  0.07243  0.76472  0.44051  1.0000
  C   C543      1.0  0.30554  0.84536  0.61825  1.0000
  H   H431      1.0  0.21823  0.56380  0.62444  1.0000
  C   C544      1.0  0.35560  0.52858  0.54586  1.0000
  C   C545      1.0  0.21055  0.81667  0.32525  1.0000
  H   H432      1.0  0.02724  0.76991  0.42560  1.0000
  H   H433      1.0  0.38517  0.57819  0.55065  1.0000
  C   C546      1.0  0.99131  0.58296  0.48564  1.0000
  H   H434      1.0  0.21956  0.92300  0.63493  1.0000
  C   C547      1.0  0.12107  0.72692  0.57076  1.0000
  H   H435      1.0  0.36463  0.87695  0.56898  1.0000
  C   C548      1.0  0.25349  0.51493  0.35290  1.0000
  P   P17       1.0  0.06758  0.74096  0.62989  1.0000
  H   H436      1.0  0.30671  0.55435  0.40409  1.0000
  H   H437      1.0  0.35679  0.58167  0.59229  1.0000
  H   H438      1.0  0.99710  0.60710  0.48358  1.0000
  H   H439      1.0  0.25639  0.81885  0.60805  1.0000
  H   H440      1.0  0.32559  0.62227  0.34973  1.0000
  C   C549      1.0  0.10352  0.72448  0.59504  1.0000
  C   C550      1.0  0.25848  0.95952  0.61177  1.0000
  C   C551      1.0  0.30447  0.60793  0.41897  1.0000
  C   C552      1.0  0.32401  0.56949  0.64269  1.0000
  C   C553      1.0  0.28017  0.83106  0.59994  1.0000
  C   C554      1.0  0.28535  0.83244  0.57081  1.0000
  C   C555      1.0  0.31575  0.84885  0.55973  1.0000
  C   C556      1.0  0.34109  0.86407  0.57775  1.0000
  C   C557      1.0  0.33602  0.86263  0.60690  1.0000
  C   C558      1.0  0.33262  0.63035  0.43081  1.0000
  H   H441      1.0  0.17902  0.78345  0.64827  1.0000
  H   H442      1.0  0.20155  0.59898  0.43760  1.0000
  C   C559      1.0  0.43287  0.75866  0.40441  1.0000
  Fe  Fe39      1.0  0.48011  0.72896  0.49754  1.0000
  C   C560      1.0  0.22931  0.58755  0.40962  1.0000
  C   C561      1.0  0.29300  0.53651  0.38884  1.0000
  H   H443      1.0  0.26580  0.82063  0.55670  1.0000
  H   H444      1.0  0.31963  0.84979  0.53712  1.0000
  C   C562      1.0  0.25016  0.51496  0.58713  1.0000
  C   C563      1.0  0.31434  0.50310  0.58091  1.0000
  P   P18       1.0  0.26643  0.57290  0.37467  1.0000
  C   C564      1.0  0.12356  0.74679  0.54900  1.0000
  C   C565      1.0  0.09037  0.76766  0.39837  1.0000
  C   C566      1.0  0.23777  0.94742  0.63472  1.0000
  H   H445      1.0  0.13814  0.74937  0.53067  1.0000
  H   H446      1.0  0.28544  0.59239  0.43272  1.0000
  C   C567      1.0  0.21028  0.53231  0.40270  1.0000
  C   C568      1.0  0.26590  0.53338  0.61048  1.0000
  C   C569      1.0  0.09016  0.76128  0.57538  1.0000
  H   H447      1.0  0.16961  0.82020  0.33452  1.0000
  C   C570      1.0  0.25358  0.55022  0.62446  1.0000
  H   H448      1.0  0.32992  0.49704  0.63842  1.0000
  H   H449      1.0  0.08164  0.83577  0.36070  1.0000
  H   H450      1.0  0.11024  0.76558  0.40488  1.0000
  C   C571      1.0  0.27700  0.96948  0.32720  1.0000
  H   H451      1.0  0.31222  0.50785  0.40105  1.0000
  Fe  Fe40      1.0  0.48961  0.79413  0.49063  1.0000
  C   C572      1.0  0.26108  0.58433  0.34017  1.0000
  C   C573      1.0  0.23248  0.80973  0.33685  1.0000
  H   H452      1.0  0.00422  0.71791  0.34109  1.0000
  H   H453      1.0  0.35103  0.64783  0.63859  1.0000
  C   C574      1.0  0.22731  0.55032  0.61399  1.0000
  H   H454      1.0  0.19269  0.53344  0.58139  1.0000
  H   H455      1.0  0.21236  0.51322  0.39370  1.0000
  C   C575      1.0  0.24267  0.59839  0.33672  1.0000
  H   H456      1.0  0.25135  0.81133  0.32366  1.0000
  H   H457      1.0  0.34161  0.81972  0.63887  1.0000
  H   H458      1.0  0.36747  0.52744  0.52681  1.0000
  C   C576      1.0  0.47611  0.82121  0.39166  1.0000
  H   H459      1.0  0.47775  0.70291  0.60350  1.0000
  C   C577      1.0  0.45078  0.89182  0.33960  1.0000
  H   H460      1.0  0.21233  0.50143  0.55826  1.0000
  C   C578      1.0  0.00663  0.70557  0.65114  1.0000
  C   C579      1.0  0.05363  0.78591  0.65132  1.0000
  P   P19       1.0  0.05553  0.77926  0.32447  1.0000
  C   C580      1.0  0.99454  0.72895  0.32833  1.0000
  H   H461      1.0  0.47245  0.90025  0.37975  1.0000
  H   H462      1.0  0.21550  0.73247  0.65262  1.0000
  C   C581      1.0  0.25148  0.78094  0.65359  1.0000
  H   H463      1.0  0.48213  0.83478  0.32554  1.0000
  H   H464      1.0  0.25192  0.86186  0.65307  1.0000
  C   C582      1.0  0.48103  0.86818  0.35470  1.0000
  Fe  Fe41      1.0  0.12745  0.84731  0.72797  1.0000
  S   S80       1.0  0.14136  0.81161  0.71629  1.0000
  S   S81       1.0  0.07675  0.83827  0.73089  1.0000
  Fe  Fe42      1.0  0.19662  0.90123  0.73091  1.0000
  S   S82       1.0  0.21414  0.86804  0.71979  1.0000
  S   S83       1.0  0.23776  0.95150  0.73659  1.0000
  Fe  Fe43      1.0  0.17705  0.84811  0.68695  1.0000
  C   C583      1.0  0.40335  0.81074  0.96370  1.0000
  Fe  Fe44      1.0  0.17777  0.83433  0.75028  1.0000
  S   S84       1.0  0.19010  0.80363  0.77723  1.0000
  S   S85       1.0  0.16117  0.88290  0.69654  1.0000
  S   S86       1.0  0.16211  0.86839  0.76365  1.0000
  C   C584      1.0  0.41235  0.83684  0.81939  1.0000
  H   H465      1.0  0.00363  0.72443  0.71938  1.0000
  S   S87       1.0  0.27255  0.53899  0.96154  1.0000
  Fe  Fe45      1.0  0.23962  0.72687  0.95421  1.0000
  S   S88       1.0  0.26967  0.76700  0.92545  1.0000
  S   S89       1.0  0.22642  0.67838  0.93801  1.0000
  C   C585      1.0  0.44684  0.77830  0.79761  1.0000
  Fe  Fe46      1.0  0.23880  0.78670  0.93750  1.0000
  S   S90       1.0  0.22218  0.81241  0.90859  1.0000
  S   S91       1.0  0.20628  0.74465  0.96353  1.0000
  C   C586      1.0  0.44006  0.77863  0.82627  1.0000
  H   H466      1.0  0.25094  0.90914  0.66820  1.0000
  C   C587      1.0  0.29019  0.87179  0.88481  1.0000
  S   S92       1.0  0.47471  0.74429  0.95601  1.0000
  C   C588      1.0  0.00159  0.65750  0.90925  1.0000
  C   C589      1.0  0.27590  0.86031  0.76646  1.0000
  H   H467      1.0  0.18681  0.73674  0.69436  1.0000
  H   H468      1.0  0.35962  0.88430  0.79041  1.0000
  H   H469      1.0  0.01639  0.75234  0.79123  1.0000
  H   H470      1.0  0.36274  0.64410  0.86717  1.0000
  H   H471      1.0  0.40394  0.71095  0.97162  1.0000
  H   H472      1.0  0.39373  0.70264  0.78261  1.0000
  H   H473      1.0  0.25492  0.83382  0.70231  1.0000
  C   C590      1.0  0.23048  0.60240  0.96447  1.0000
  C   C591      1.0  0.22614  0.62348  0.94805  1.0000
  C   C592      1.0  0.23314  0.65287  0.95879  1.0000
  H   H474      1.0  0.22474  0.57971  0.95613  1.0000
  H   H475      1.0  0.21702  0.61683  0.92705  1.0000
  C   C593      1.0  0.19858  0.80634  0.81392  1.0000
  C   C594      1.0  0.20428  0.78382  0.82613  1.0000
  C   C595      1.0  0.21170  0.78536  0.85489  1.0000
  C   C596      1.0  0.21345  0.80943  0.87197  1.0000
  C   C597      1.0  0.20783  0.83197  0.85974  1.0000
  C   C598      1.0  0.20058  0.83056  0.83095  1.0000
  H   H476      1.0  0.20283  0.76495  0.81328  1.0000
  H   H477      1.0  0.21550  0.76764  0.86402  1.0000
  H   H478      1.0  0.20900  0.85068  0.87268  1.0000
  H   H479      1.0  0.19638  0.84813  0.82200  1.0000
  C   C599      1.0  0.45197  0.70052  0.89312  1.0000
  H   H480      1.0  0.19547  0.97531  0.72233  1.0000
  H   H481      1.0  0.40809  0.55162  0.98345  1.0000
  C   C600      1.0  0.01233  0.80642  0.72605  1.0000
  C   C601      1.0  0.03947  0.80372  0.72653  1.0000
  C   C602      1.0  0.03606  0.77393  0.72363  1.0000
  H   H482      1.0  0.01458  0.82926  0.72817  1.0000
  H   H483      1.0  0.05658  0.77135  0.72384  1.0000
  C   C603      1.0  0.35674  0.80754  0.81018  1.0000
  H   H484      1.0  0.42921  0.88227  0.83817  1.0000
  C   C604      1.0  0.11053  0.74784  0.67066  1.0000
  Fe  Fe47      1.0  0.29687  0.78995  0.96432  1.0000
  H   H485      1.0  0.14375  0.75338  0.70212  1.0000
  C   C605      1.0  0.21919  0.78572  0.70071  1.0000
  C   C606      1.0  0.32835  0.83884  0.67440  1.0000
  H   H486      1.0  0.43519  0.83866  0.81886  1.0000
  H   H487      1.0  0.31209  0.54630  0.82261  1.0000
  C   C607      1.0  0.40900  0.86144  0.83025  1.0000
  C   C608      1.0  0.35410  0.84110  0.71814  1.0000
  H   H488      1.0  0.47403  0.70178  0.88767  1.0000
  H   H489      1.0  0.36129  0.55916  0.84184  1.0000
  C   C609      1.0  0.20802  0.75707  0.68689  1.0000
  C   C610      1.0  0.29340  0.85982  0.85896  1.0000
  H   H490      1.0  0.04354  0.82055  0.66854  1.0000
  C   C611      1.0  0.38623  0.80989  0.80940  1.0000
  C   C612      1.0  0.99097  0.80475  0.79772  1.0000
  H   H491      1.0  0.43973  0.86101  0.89531  1.0000
  C   C613      1.0  0.30450  0.86874  0.90865  1.0000
  C   C614      1.0  0.39968  0.72419  0.82342  1.0000
  C   C615      1.0  0.41609  0.75165  0.83934  1.0000
  P   P20       1.0  0.40867  0.75086  0.87678  1.0000
  C   C616      1.0  0.43401  0.78932  0.89114  1.0000
  C   C617      1.0  0.36886  0.74104  0.88538  1.0000
  C   C618      1.0  0.36130  0.74542  0.91307  1.0000
  C   C619      1.0  0.33053  0.73701  0.92057  1.0000
  C   C620      1.0  0.30707  0.72422  0.90051  1.0000
  C   C621      1.0  0.31447  0.72060  0.87274  1.0000
  C   C622      1.0  0.34527  0.72917  0.86509  1.0000
  H   H492      1.0  0.28589  0.51297  0.90287  1.0000
  S   S93       1.0  0.34968  0.81375  0.95756  1.0000
  C   C623      1.0  0.34923  0.51223  0.92838  1.0000
  C   C624      1.0  0.27228  0.90816  0.67018  1.0000
  C   C625      1.0  0.41729  0.72219  0.89086  1.0000
  C   C626      1.0  0.44521  0.72286  0.88284  1.0000
  C   C627      1.0  0.37886  0.57246  0.98588  1.0000
  C   C628      1.0  0.43077  0.67711  0.91121  1.0000
  C   C629      1.0  0.40280  0.67602  0.91901  1.0000
  C   C630      1.0  0.39594  0.69835  0.90885  1.0000
  H   H493      1.0  0.38189  0.70284  0.83331  1.0000
  H   H494      1.0  0.37921  0.75524  0.92894  1.0000
  H   H495      1.0  0.32483  0.74062  0.94195  1.0000
  H   H496      1.0  0.28317  0.71735  0.90646  1.0000
  H   H497      1.0  0.29621  0.71116  0.85720  1.0000
  H   H498      1.0  0.35030  0.72653  0.84341  1.0000
  C   C631      1.0  0.42999  0.75101  0.78183  1.0000
  C   C632      1.0  0.30173  0.88661  0.75496  1.0000
  H   H499      1.0  0.20966  0.51102  0.87043  1.0000
  H   H500      1.0  0.02681  0.66781  0.91000  1.0000
  H   H501      1.0  0.43633  0.66016  0.91960  1.0000
  H   H502      1.0  0.38670  0.65809  0.93336  1.0000
  H   H503      1.0  0.37406  0.69682  0.91524  1.0000
  H   H504      1.0  0.38881  0.79074  0.80115  1.0000
  H   H505      1.0  0.34711  0.95175  0.69250  1.0000
  C   C633      1.0  0.37246  0.79966  0.97328  1.0000
  H   H506      1.0  0.29819  0.90076  0.73981  1.0000
  C   C634      1.0  0.42613  0.81278  0.88791  1.0000
  H   H507      1.0  0.45416  0.79979  0.83816  1.0000
  H   H508      1.0  0.29812  0.65354  0.95111  1.0000
  C   C635      1.0  0.24643  0.81203  0.69093  1.0000
  C   C636      1.0  0.36186  0.62547  0.67169  1.0000
  C   C637      1.0  0.44620  0.84317  0.89744  1.0000
  S   S94       1.0  0.26834  0.81319  0.97490  1.0000
  C   C638      1.0  0.33189  0.89488  0.76346  1.0000
  H   H509      1.0  0.38881  0.82676  0.71567  1.0000
  H   H510      1.0  0.06513  0.66078  0.69311  1.0000
  H   H511      1.0  0.34823  0.90402  0.67807  1.0000
  H   H512      1.0  0.11446  0.69789  0.71688  1.0000
  H   H513      1.0  0.40922  0.59015  0.81334  1.0000
  H   H514      1.0  0.43452  0.64796  0.81222  1.0000
  C   C639      1.0  0.47413  0.85028  0.91052  1.0000
  H   H515      1.0  0.12385  0.77209  0.66438  1.0000
  H   H516      1.0  0.15485  0.65736  0.97239  1.0000
  H   H517      1.0  0.27522  0.88199  0.88668  1.0000
  C   C640      1.0  0.24039  0.96685  0.65732  1.0000
  H   H518      1.0  0.25241  0.85415  0.76041  1.0000
  H   H519      1.0  0.41263  0.82761  0.94691  1.0000
  C   C641      1.0  0.33851  0.56924  0.66771  1.0000
  C   C642      1.0  0.29891  0.93346  0.68149  1.0000
  C   C643      1.0  0.33229  0.84533  0.70332  1.0000
  H   H520      1.0  0.40438  0.80758  0.87814  1.0000
  H   H521      1.0  0.99769  0.63502  0.86925  1.0000
  H   H522      1.0  0.24363  0.49629  0.65806  1.0000
  C   C644      1.0  0.06073  0.81641  0.65781  1.0000
  C   C645      1.0  0.33616  0.87698  0.78365  1.0000
  H   H523      1.0  0.28090  0.86135  0.84119  1.0000
  C   C646      1.0  0.48208  0.82708  0.91389  1.0000
  H   H524      1.0  0.35190  0.91556  0.75480  1.0000
  H   H525      1.0  0.44622  0.80941  0.96866  1.0000
  H   H526      1.0  0.46922  0.77946  0.90702  1.0000
  C   C647      1.0  0.35734  0.59715  0.68214  1.0000
  H   H527      1.0  0.17739  0.97602  0.78374  1.0000
  H   H528      1.0  0.41132  0.67458  0.83943  1.0000
  H   H529      1.0  0.22416  0.95755  0.67505  1.0000
  C   C648      1.0  0.12211  0.73721  0.69189  1.0000
  C   C649      1.0  0.36731  0.82248  0.67563  1.0000
  H   H530      1.0  0.35418  0.71039  0.96339  1.0000
  C   C650      1.0  0.32228  0.85395  0.90664  1.0000
  C   C651      1.0  0.32569  0.84206  0.88082  1.0000
  C   C652      1.0  0.31157  0.84524  0.85664  1.0000
  P   P21       1.0  0.31493  0.82878  0.82345  1.0000
  C   C653      1.0  0.35316  0.83216  0.82111  1.0000
  C   C654      1.0  0.28515  0.78796  0.82204  1.0000
  C   C655      1.0  0.27300  0.77327  0.79615  1.0000
  C   C656      1.0  0.24985  0.74171  0.79529  1.0000
  C   C657      1.0  0.23905  0.72448  0.82017  1.0000
  C   C658      1.0  0.25158  0.73872  0.84591  1.0000
  C   C659      1.0  0.27458  0.77030  0.84682  1.0000
  C   C660      1.0  0.37956  0.85914  0.83113  1.0000
  C   C661      1.0  0.26239  0.81003  0.66686  1.0000
  C   C662      1.0  0.31022  0.85053  0.79540  1.0000
  H   H531      1.0  0.39667  0.55040  0.92619  1.0000
  H   H532      1.0  0.20679  0.78763  0.71908  1.0000
  C   C663      1.0  0.28008  0.84242  0.78659  1.0000
  H   H533      1.0  0.33276  0.85104  0.92532  1.0000
  H   H534      1.0  0.33879  0.82982  0.88003  1.0000
  H   H535      1.0  0.28105  0.78623  0.77667  1.0000
  H   H536      1.0  0.23989  0.73072  0.77536  1.0000
  H   H537      1.0  0.22069  0.70019  0.81960  1.0000
  H   H538      1.0  0.24293  0.72553  0.86531  1.0000
  H   H539      1.0  0.28360  0.78098  0.86697  1.0000
  H   H540      1.0  0.37730  0.87830  0.83989  1.0000
  H   H541      1.0  0.25786  0.54869  0.89416  1.0000
  C   C664      1.0  0.24317  0.98979  0.73224  1.0000
  H   H542      1.0  0.25960  0.82279  0.79590  1.0000
  C   C665      1.0  0.29594  0.63637  0.90898  1.0000
  C   C666      1.0  0.30419  0.63976  0.93724  1.0000
  C   C667      1.0  0.31921  0.62448  0.94779  1.0000
  C   C668      1.0  0.32592  0.60568  0.93008  1.0000
  C   C669      1.0  0.31708  0.60160  0.90180  1.0000
  C   C670      1.0  0.30234  0.61736  0.89128  1.0000
  P   P22       1.0  0.32431  0.57636  0.87889  1.0000
  C   C671      1.0  0.35759  0.59912  0.85581  1.0000
  C   C672      1.0  0.33369  0.55151  0.89919  1.0000
  C   C673      1.0  0.31026  0.52145  0.90736  1.0000
  C   C674      1.0  0.00595  0.74734  0.72090  1.0000
  C   C675      1.0  0.40642  0.72396  0.79474  1.0000
  C   C676      1.0  0.37263  0.54217  0.92050  1.0000
  C   C677      1.0  0.36488  0.56196  0.90641  1.0000
  C   C678      1.0  0.37204  0.63187  0.85501  1.0000
  C   C679      1.0  0.39963  0.64933  0.83925  1.0000
  C   C680      1.0  0.41288  0.63433  0.82404  1.0000
  C   C681      1.0  0.39864  0.60180  0.82467  1.0000
  C   C682      1.0  0.37127  0.58428  0.84063  1.0000
  C   C683      1.0  0.28887  0.55125  0.85991  1.0000
  C   C684      1.0  0.29006  0.53950  0.83314  1.0000
  H   H543      1.0  0.38329  0.58541  0.90133  1.0000
  H   H544      1.0  0.03668  0.80900  0.79782  1.0000
  C   C685      1.0  0.23206  0.51964  0.85965  1.0000
  C   C686      1.0  0.25958  0.54113  0.87304  1.0000
  H   H545      1.0  0.28370  0.64779  0.90112  1.0000
  H   H546      1.0  0.30090  0.87691  0.92887  1.0000
  H   H547      1.0  0.33680  0.78639  0.80251  1.0000
  H   H548      1.0  0.33715  0.59368  0.93875  1.0000
  H   H549      1.0  0.29518  0.61436  0.86956  1.0000
  C   C687      1.0  0.29971  0.87894  0.66553  1.0000
  H   H550      1.0  0.99833  0.67773  0.94863  1.0000
  H   H551      1.0  0.32492  0.62656  0.96991  1.0000
  H   H552      1.0  0.46214  0.74103  0.86906  1.0000
  C   C688      1.0  0.23349  0.50774  0.83324  1.0000
  C   C689      1.0  0.10563  0.70594  0.70017  1.0000
  H   H553      1.0  0.46572  0.79904  0.78778  1.0000
  C   C690      1.0  0.00023  0.76114  0.79296  1.0000
  H   H554      1.0  0.31823  0.85337  0.71442  1.0000
  C   C691      1.0  0.43519  0.62954  0.97636  1.0000
  C   C692      1.0  0.38441  0.69912  0.98622  1.0000
  C   C693      1.0  0.37181  0.82993  0.70424  1.0000
  C   C694      1.0  0.22424  0.75466  0.66343  1.0000
  C   C695      1.0  0.07778  0.68511  0.68688  1.0000
  H   H555      1.0  0.35713  0.84631  0.74043  1.0000
  H   H556      1.0  0.48952  0.87369  0.91828  1.0000
  H   H557      1.0  0.29813  0.95414  0.68819  1.0000
  C   C696      1.0  0.26245  0.51772  0.81995  1.0000
  P   P23       1.0  0.29920  0.84324  0.65593  1.0000
  C   C697      1.0  0.42237  0.80049  0.97602  1.0000
  H   H558      1.0  0.09612  0.86506  0.65748  1.0000
  C   C698      1.0  0.32680  0.90477  0.67608  1.0000
  C   C699      1.0  0.46219  0.79673  0.90422  1.0000
  C   C700      1.0  0.40667  0.62925  0.97983  1.0000
  C   C701      1.0  0.08215  0.72730  0.65773  1.0000
  C   C702      1.0  0.01164  0.79310  0.79677  1.0000
  S   S95       1.0  0.47173  0.66381  0.96999  1.0000
  C   C703      1.0  0.37842  0.60067  0.98453  1.0000
  H   H559      1.0  0.43564  0.75072  0.75972  1.0000
  C   C704      1.0  0.32632  0.93192  0.68413  1.0000
  H   H560      1.0  0.16293  0.61316  0.98401  1.0000
  C   C705      1.0  0.43513  0.60124  0.97712  1.0000
  H   H561      1.0  0.36851  0.59679  0.70141  1.0000
  H   H562      1.0  0.35508  0.49747  0.94047  1.0000
  C   C706      1.0  0.24483  0.66114  0.98597  1.0000
  H   H563      1.0  0.45689  0.60110  0.97429  1.0000
  C   C707      1.0  0.31805  0.50201  0.92205  1.0000
  H   H564      1.0  0.26343  0.50782  0.79976  1.0000
  H   H565      1.0  0.01677  0.71303  0.67175  1.0000
  C   C708      1.0  0.40740  0.57312  0.98226  1.0000
  H   H566      1.0  0.40650  0.65091  0.97879  1.0000
  H   H567      1.0  0.38070  0.81337  0.66490  1.0000
  Fe  Fe48      1.0  0.48931  0.71498  0.97993  1.0000
  H   H568      1.0  0.03072  0.76701  0.65710  1.0000
  C   C709      1.0  0.06619  0.69564  0.66558  1.0000
  H   H569      1.0  0.00041  0.82970  0.79967  1.0000
  C   C710      1.0  0.27277  0.88119  0.66191  1.0000
  C   C711      1.0  0.34539  0.82653  0.66081  1.0000
  C   C712      1.0  0.35653  0.69905  0.98170  1.0000
  H   H570      1.0  0.37656  0.64707  0.68283  1.0000
  H   H571      1.0  0.33544  0.54760  0.67609  1.0000
  H   H572      1.0  0.04489  0.67898  0.65521  1.0000
  Fe  Fe49      1.0  0.87715  0.18753  0.22980  1.0000
  S   S96       1.0  0.86359  0.22428  0.23685  1.0000
  S   S97       1.0  0.92638  0.19527  0.21875  1.0000
  Fe  Fe50      1.0  0.80874  0.13350  0.23719  1.0000
  S   S98       1.0  0.79127  0.16761  0.24542  1.0000
  S   S99       1.0  0.77002  0.08131  0.23753  1.0000
  Fe  Fe51      1.0  0.82257  0.19512  0.20887  1.0000
  S   S100      1.0  0.80565  0.21890  0.17814  1.0000
  Fe  Fe52      1.0  0.83307  0.19426  0.27294  1.0000
  S   S101      1.0  0.83778  0.16010  0.19926  1.0000
  S   S102      1.0  0.84885  0.15863  0.26724  1.0000
  C   C713      1.0  0.55740  0.23702  0.09847  1.0000
  C   C714      1.0  0.58957  0.06411  0.05408  1.0000
  H   H573      1.0  0.61258  0.99502  0.07394  1.0000
  S   S103      1.0  0.75001  0.26651  0.03274  1.0000
  C   C715      1.0  0.91810  0.16451  0.28957  1.0000
  Fe  Fe53      1.0  0.77092  0.23802  0.01722  1.0000
  S   S104      1.0  0.78920  0.21244  0.04428  1.0000
  H   H574      1.0  0.57179  0.36290  0.00901  1.0000
  H   H575      1.0  0.95343  0.26002  0.24000  1.0000
  H   H576      1.0  0.53838  0.12630  0.00551  1.0000
  H   H577      1.0  0.92768  0.25132  0.14604  1.0000
  H   H578      1.0  0.70939  0.43735  0.11907  1.0000
  H   H579      1.0  0.70773  0.37066  0.05550  1.0000
  H   H580      1.0  0.66872  0.38166  0.02926  1.0000
  H   H581      1.0  0.62440  0.38632  0.12239  1.0000
  H   H582      1.0  0.95727  0.22762  0.16527  1.0000
  C   C716      1.0  0.55795  0.13410  0.01956  1.0000
  H   H583      1.0  0.79673  0.40590  0.02774  1.0000
  H   H584      1.0  0.61606  0.41098  0.02872  1.0000
  C   C717      1.0  0.86830  0.11777  0.14750  1.0000
  Fe  Fe54      1.0  0.71064  0.23951  0.00304  1.0000
  S   S105      1.0  0.66788  0.46506  0.00335  1.0000
  C   C718      1.0  0.80403  0.09071  0.13702  1.0000
  C   C719      1.0  0.83081  0.28283  0.28432  1.0000
  C   C720      1.0  0.60797  0.22572  0.01234  1.0000
  C   C721      1.0  0.80204  0.21704  0.14079  1.0000
  C   C722      1.0  0.80987  0.19850  0.12384  1.0000
  C   C723      1.0  0.80604  0.19756  0.09439  1.0000
  C   C724      1.0  0.79460  0.21529  0.08143  1.0000
  C   C725      1.0  0.78719  0.23414  0.09836  1.0000
  C   C726      1.0  0.79071  0.23482  0.12779  1.0000
  H   H585      1.0  0.81922  0.18519  0.13336  1.0000
  H   H586      1.0  0.81224  0.18319  0.08155  1.0000
  H   H587      1.0  0.77874  0.24822  0.08879  1.0000
  H   H588      1.0  0.78479  0.24943  0.14061  1.0000
  C   C727      1.0  0.76456  0.04280  0.23278  1.0000
  C   C728      1.0  0.73426  0.01672  0.23622  1.0000
  C   C729      1.0  0.97223  0.25502  0.23651  1.0000
  H   H589      1.0  0.87510  0.12809  0.10324  1.0000
  C   C730      1.0  0.78909  0.03737  0.22543  1.0000
  H   H590      1.0  0.71505  0.02048  0.24189  1.0000
  H   H591      1.0  0.81254  0.05695  0.22281  1.0000
  H   H592      1.0  0.69133  0.11439  0.10950  1.0000
  C   C731      1.0  0.96538  0.22551  0.22654  1.0000
  C   C732      1.0  0.75658  0.01656  0.14899  1.0000
  S   S106      1.0  0.75338  0.48860  0.00606  1.0000
  C   C733      1.0  0.59100  0.42016  0.31940  1.0000
  H   H593      1.0  0.54694  0.16530  0.04257  1.0000
  H   H594      1.0  0.63401  0.29001  0.10938  1.0000
  H   H595      1.0  0.73021  0.17105  0.10833  1.0000
  C   C734      1.0  0.57102  0.03162  0.05611  1.0000
  H   H596      1.0  0.80252  0.00275  0.21573  1.0000
  C   C735      1.0  0.65100  0.41237  0.08606  1.0000
  C   C736      1.0  0.60926  0.28654  0.07120  1.0000
  C   C737      1.0  0.78332  0.00648  0.22152  1.0000
  C   C738      1.0  0.82610  0.10389  0.11492  1.0000
  C   C739      1.0  0.66378  0.41101  0.06001  1.0000
  C   C740      1.0  0.95189  0.26872  0.31234  1.0000
  H   H597      1.0  0.89310  0.12866  0.15175  1.0000
  C   C741      1.0  0.73507  0.32146  0.06900  1.0000
  C   C742      1.0  0.80453  0.27101  0.30210  1.0000
  C   C743      1.0  0.60519  0.13419  0.03346  1.0000
  H   H598      1.0  0.78253  0.47120  0.06459  1.0000
  C   C744      1.0  0.93309  0.19606  0.29727  1.0000
  C   C745      1.0  0.78974  0.37777  0.99065  1.0000
  C   C746      1.0  0.57158  0.01255  0.03443  1.0000
  C   C747      1.0  0.49744  0.31928  0.03536  1.0000
  H   H599      1.0  0.89749  0.11705  0.30393  1.0000
  C   C748      1.0  0.75866  0.45206  0.12224  1.0000
  H   H600      1.0  0.70858  0.04100  0.17054  1.0000
  P   P24       1.0  0.63230  0.11992  0.02826  1.0000
  C   C749      1.0  0.63460  0.38534  0.10228  1.0000
  S   S107      1.0  0.83754  0.21922  0.31556  1.0000
  C   C750      1.0  0.97544  0.29827  0.30298  1.0000
  H   H601      1.0  0.72207  0.36233  0.99779  1.0000
  C   C751      1.0  0.71449  0.01223  0.12036  1.0000
  H   H602      1.0  0.57719  0.27695  0.03709  1.0000
  C   C752      1.0  0.81454  0.09152  0.16437  1.0000
  H   H603      1.0  0.53728  0.21803  0.10895  1.0000
  H   H604      1.0  0.88942  0.26793  0.28223  1.0000
  H   H605      1.0  0.65702  0.27046  0.06654  1.0000
  C   C753      1.0  0.75282  0.12113  0.06533  1.0000
  C   C754      1.0  0.75263  0.10374  0.04192  1.0000
  C   C755      1.0  0.75455  0.07671  0.04550  1.0000
  C   C756      1.0  0.75682  0.06716  0.07251  1.0000
  C   C757      1.0  0.75663  0.08428  0.09627  1.0000
  C   C758      1.0  0.75484  0.11153  0.09239  1.0000
  P   P25       1.0  0.76256  0.07314  0.13081  1.0000
  C   C759      1.0  0.74619  0.08691  0.15799  1.0000
  C   C760      1.0  0.71960  0.06594  0.17378  1.0000
  C   C761      1.0  0.70761  0.07702  0.19503  1.0000
  C   C762      1.0  0.72183  0.10904  0.20052  1.0000
  C   C763      1.0  0.74823  0.12998  0.18495  1.0000
  C   C764      1.0  0.76078  0.11894  0.16424  1.0000
  H   H606      1.0  0.75224  0.14262  0.06244  1.0000
  H   H607      1.0  0.75167  0.11170  0.02101  1.0000
  H   H608      1.0  0.75502  0.06356  0.02729  1.0000
  H   H609      1.0  0.75936  0.04675  0.07484  1.0000
  H   H610      1.0  0.61875  0.33644  0.10554  1.0000
  H   H611      1.0  0.68793  0.06072  0.20789  1.0000
  H   H612      1.0  0.71302  0.11759  0.21741  1.0000
  H   H613      1.0  0.75952  0.15477  0.18946  1.0000
  H   H614      1.0  0.78208  0.13545  0.15333  1.0000
  H   H615      1.0  0.81884  0.10410  0.09367  1.0000
  H   H616      1.0  0.67629  0.43191  0.04730  1.0000
  C   C765      1.0  0.55441  0.24591  0.07148  1.0000
  C   C766      1.0  0.58620  0.25286  0.11197  1.0000
  H   H617      1.0  0.52846  0.40569  0.01124  1.0000
  C   C767      1.0  0.66528  0.11631  0.07433  1.0000
  C   C768      1.0  0.64071  0.00008  0.03698  1.0000
  H   H618      1.0  0.95604  0.30333  0.12312  1.0000
  C   C769      1.0  0.58018  0.27056  0.05792  1.0000
  H   H619      1.0  0.62971  0.16531  0.06816  1.0000
  C   C770      1.0  0.60905  0.07782  0.03043  1.0000
  C   C771      1.0  0.96971  0.25015  0.15491  1.0000
  C   C772      1.0  0.76991  0.40955  0.12555  1.0000
  C   C773      1.0  0.73794  0.38782  0.12463  1.0000
  C   C774      1.0  0.71629  0.39805  0.12239  1.0000
  C   C775      1.0  0.90955  0.14147  0.31000  1.0000
  C   C776      1.0  0.70692  0.34895  0.06031  1.0000
  H   H620      1.0  0.53199  0.23390  0.06105  1.0000
  C   C777      1.0  0.67849  0.29283  0.06692  1.0000
  C   C778      1.0  0.58838  0.16676  0.05819  1.0000
  P   P26       1.0  0.64207  0.31967  0.05431  1.0000
  C   C779      1.0  0.61199  0.27767  0.09849  1.0000
  C   C780      1.0  0.63725  0.31531  0.01668  1.0000
  H   H621      1.0  0.80517  0.45808  0.12477  1.0000
  H   H622      1.0  0.60793  0.22993  0.03469  1.0000
  C   C781      1.0  0.63129  0.35700  0.09254  1.0000
  C   C782      1.0  0.67831  0.32072  0.06198  1.0000
  C   C783      1.0  0.78026  0.44154  0.12437  1.0000
  C   C784      1.0  0.65079  0.30066  0.00106  1.0000
  H   H623      1.0  0.85435  0.10521  0.19077  1.0000
  C   C785      1.0  0.68503  0.16748  0.05369  1.0000
  C   C786      1.0  0.64406  0.35547  0.06629  1.0000
  H   H624      1.0  0.78673  0.40158  0.12687  1.0000
  H   H625      1.0  0.72998  0.36302  0.12531  1.0000
  H   H626      1.0  0.72636  0.20484  0.07236  1.0000
  C   C787      1.0  0.58360  0.22361  0.99584  1.0000
  H   H627      1.0  0.58844  0.24606  0.13298  1.0000
  C   C788      1.0  0.60960  0.15595  0.05469  1.0000
  H   H628      1.0  0.75562  0.12595  0.10993  1.0000
  C   C789      1.0  0.96804  0.31643  0.28588  1.0000
  H   H629      1.0  0.78455  0.24819  0.29787  1.0000
  C   C790      1.0  0.73515  0.34922  0.06370  1.0000
  C   C791      1.0  0.61512  0.40695  0.00629  1.0000
  C   C792      1.0  0.71131  0.16107  0.09335  1.0000
  C   C793      1.0  0.85735  0.32841  0.31428  1.0000
  H   H630      1.0  0.60673  0.33501  0.01472  1.0000
  H   H631      1.0  0.91285  0.15789  0.26770  1.0000
  C   C794      1.0  0.65970  0.38256  0.04989  1.0000
  C   C795      1.0  0.49855  0.33821  0.01323  1.0000
  H   H632      1.0  0.56862  0.40510  0.30973  1.0000
  H   H633      1.0  0.93935  0.21352  0.28114  1.0000
  H   H634      1.0  0.66589  0.29352  0.01071  1.0000
  C   C796      1.0  0.70671  0.29331  0.07078  1.0000
  C   C797      1.0  0.61763  0.32388  0.00313  1.0000
  C   C798      1.0  0.56270  0.15601  0.04052  1.0000
  C   C799      1.0  0.85812  0.11750  0.12022  1.0000
  C   C800      1.0  0.93706  0.30551  0.27834  1.0000
  C   C801      1.0  0.84648  0.10451  0.16950  1.0000
  H   H635      1.0  0.65356  0.43434  0.09346  1.0000
  S   S108      1.0  0.66251  0.22528  0.02147  1.0000
  H   H636      1.0  0.98644  0.33887  0.27834  1.0000
  H   H637      1.0  0.75725  0.37080  0.06144  1.0000
  C   C802      1.0  0.79019  0.42760  0.99140  1.0000
  H   H638      1.0  0.58249  0.44569  0.99799  1.0000
  H   H639      1.0  0.65093  0.02524  0.03607  1.0000
  Fe  Fe55      1.0  0.77388  0.29826  0.99586  1.0000
  H   H640      1.0  0.70660  0.27156  0.07392  1.0000
  C   C803      1.0  0.68941  0.12914  0.09392  1.0000
  C   C804      1.0  0.66277  0.13553  0.05420  1.0000
  C   C805      1.0  0.74358  0.03097  0.13312  1.0000
  H   H641      1.0  0.75707  0.32165  0.07068  1.0000
  C   C806      1.0  0.60926  0.05849  0.00858  1.0000
  H   H642      1.0  0.78981  0.47747  0.17321  1.0000
  C   C807      1.0  0.72655  0.43004  0.12118  1.0000
  C   C808      1.0  0.85717  0.31158  0.29034  1.0000
  C   C809      1.0  0.79252  0.40388  0.00540  1.0000
  C   C810      1.0  0.95302  0.26355  0.14412  1.0000
  H   H643      1.0  0.72472  0.26501  0.31137  1.0000
  C   C811      1.0  0.96902  0.29285  0.13126  1.0000
  H   H644      1.0  0.90245  0.23467  0.31035  1.0000
  H   H645      1.0  0.79801  0.08229  0.18185  1.0000
  H   H646      1.0  0.57507  0.10619  0.99970  1.0000
  C   C812      1.0  0.70914  0.18016  0.07317  1.0000
  H   H647      1.0  0.69156  0.38116  0.12132  1.0000
  C   C813      1.0  0.92096  0.25765  0.30404  1.0000
  H   H648      1.0  0.56485  0.22597  0.00549  1.0000
  C   C814      1.0  0.63852  0.42947  0.98859  1.0000
  H   H649      1.0  0.79209  0.44740  0.00297  1.0000
  H   H650      1.0  0.51929  0.34937  0.99999  1.0000
  H   H651      1.0  0.83095  0.26925  0.26626  1.0000
  H   H652      1.0  0.64893  0.09151  0.07499  1.0000
  H   H653      1.0  0.66648  0.99789  0.00072  1.0000
  H   H654      1.0  0.68371  0.18268  0.03823  1.0000
  H   H655      1.0  0.71906  0.41030  0.00737  1.0000
  H   H656      1.0  0.58862  0.07866  0.07089  1.0000
  H   H657      1.0  0.93129  0.31949  0.26504  1.0000
  S   S109      1.0  0.79403  0.34920  0.00913  1.0000
  H   H658      1.0  0.59253  0.18439  0.07393  1.0000
  H   H659      1.0  0.87768  0.32042  0.27673  1.0000
  C   C815      1.0  0.63260  0.22295  0.99999  1.0000
  H   H660      1.0  0.77846  0.03008  0.15974  1.0000
  C   C816      1.0  0.91353  0.27631  0.28769  1.0000
  H   H661      1.0  0.51733  0.31625  0.03925  1.0000
  C   C817      1.0  0.57890  0.12296  0.01622  1.0000
  H   H662      1.0  0.98552  0.19709  0.21429  1.0000
  H   H663      1.0  0.82783  0.49125  0.03179  1.0000
  H   H664      1.0  0.61308  0.39579  0.30111  1.0000
  H   H665      1.0  0.70360  0.02282  0.10866  1.0000
  C   C818      1.0  0.58979  0.37970  0.99513  1.0000
  H   H666      1.0  0.87840  0.35013  0.31906  1.0000
  S   S110      1.0  0.53155  0.26727  0.99462  1.0000
  H   H667      1.0  0.62320  0.06827  0.98968  1.0000
  H   H668      1.0  0.55592  0.02125  0.07438  1.0000
  S   S111      1.0  0.72959  0.20827  0.98998  1.0000
  C   C819      1.0  0.65200  0.13202  0.99441  1.0000
  H   H669      1.0  0.84656  0.37914  0.31590  1.0000
  C   C820      1.0  0.53479  0.41065  0.98922  1.0000
  H   H670      1.0  0.59078  0.01121  0.99369  1.0000
  H   H671      1.0  0.87644  0.43654  0.31126  1.0000
  C   C821      1.0  0.61604  0.41488  0.31460  1.0000
  C   C822      1.0  0.59066  0.02599  0.01068  1.0000
  H   H672      1.0  0.68217  0.11278  0.00181  1.0000
  C   C823      1.0  0.80395  0.49234  0.06992  1.0000
  C   C824      1.0  0.92650  0.24701  0.42611  1.0000
  Fe  Fe56      1.0  0.51127  0.22832  0.47044  1.0000
  S   S112      1.0  0.53409  0.19846  0.47516  1.0000
  Fe  Fe57      1.0  0.52670  0.29319  0.45331  1.0000
  S   S113      1.0  0.56978  0.33610  0.43506  1.0000
  S   S114      1.0  0.51402  0.24947  0.42828  1.0000
  Fe  Fe58      1.0  0.75358  0.24281  0.45757  1.0000
  S   S115      1.0  0.74601  0.22038  0.41345  1.0000
  S   S116      1.0  0.74401  0.28264  0.46455  1.0000
  S   S117      1.0  0.67299  0.45737  0.49867  1.0000
  C   C825      1.0  0.80156  0.40369  0.43831  1.0000
  H   H673      1.0  0.80594  0.36251  0.43823  1.0000
  H   H674      1.0  0.79957  0.40378  0.41573  1.0000
  C   C826      1.0  0.59884  0.36845  0.45401  1.0000
  C   C827      1.0  0.62824  0.38750  0.44113  1.0000
  C   C828      1.0  0.65146  0.41439  0.45478  1.0000
  C   C829      1.0  0.64535  0.42264  0.48143  1.0000
  C   C830      1.0  0.61607  0.40345  0.49441  1.0000
  C   C831      1.0  0.59291  0.37647  0.48080  1.0000
  H   H675      1.0  0.63291  0.38153  0.42036  1.0000
  H   H676      1.0  0.67376  0.42918  0.44445  1.0000
  C   C832      1.0  0.57358  0.21674  0.48596  1.0000
  C   C833      1.0  0.58867  0.24715  0.49670  1.0000
  C   C834      1.0  0.61946  0.26061  0.50638  1.0000
  H   H677      1.0  0.57654  0.26020  0.49798  1.0000
  H   H678      1.0  0.63061  0.28391  0.51511  1.0000
  C   C835      1.0  0.53526  0.19200  0.38883  1.0000
  C   C836      1.0  0.82417  0.23733  0.36680  1.0000
  C   C837      1.0  0.80469  0.23799  0.38875  1.0000
  C   C838      1.0  0.77206  0.22006  0.38680  1.0000
  C   C839      1.0  0.75938  0.20168  0.36249  1.0000
  H   H679      1.0  0.72048  0.19382  0.60042  1.0000
  H   H680      1.0  0.84929  0.25129  0.36857  1.0000
  H   H681      1.0  0.81492  0.25234  0.40716  1.0000
  H   H682      1.0  0.73424  0.18766  0.36069  1.0000
  H   H683      1.0  0.88674  0.24578  0.40678  1.0000
  S   S118      1.0  0.52584  0.27229  0.49518  1.0000
  S   S119      1.0  0.72159  0.21500  0.49387  1.0000
  Fe  Fe59      1.0  0.78479  0.30208  0.49331  1.0000
  S   S120      1.0  0.75612  0.27848  0.53197  1.0000
  S   S121      1.0  0.81880  0.35427  0.49578  1.0000
  Fe  Fe60      1.0  0.76452  0.23891  0.52103  1.0000
  S   S122      1.0  0.77063  0.20713  0.55216  1.0000
  Fe  Fe61      1.0  0.71554  0.25651  0.50246  1.0000
  S   S123      1.0  0.67487  0.26299  0.51686  1.0000
  S   S124      1.0  0.79679  0.26415  0.48414  1.0000
  S   S125      1.0  0.79498  0.45532  0.43727  1.0000
  C   C840      1.0  0.80877  0.38037  0.48019  1.0000
  C   C841      1.0  0.80521  0.38024  0.45106  1.0000
  C   C842      1.0  0.80002  0.42674  0.45461  1.0000
  C   C843      1.0  0.80293  0.42665  0.48380  1.0000
  C   C844      1.0  0.80798  0.40390  0.49647  1.0000
  H   H684      1.0  0.80163  0.44424  0.49654  1.0000
  H   H685      1.0  0.81112  0.40446  0.51895  1.0000
  H   H686      1.0  0.61112  0.40966  0.51500  1.0000
  H   H687      1.0  0.57027  0.36222  0.49081  1.0000
  C   C845      1.0  0.63616  0.24451  0.50416  1.0000
  C   C846      1.0  0.62139  0.21429  0.49287  1.0000
  C   C847      1.0  0.58995  0.20025  0.48440  1.0000
  H   H688      1.0  0.63384  0.20147  0.49142  1.0000
  H   H689      1.0  0.57813  0.17646  0.47680  1.0000
  C   C848      1.0  0.81814  0.21975  0.63822  1.0000
  C   C849      1.0  0.80168  0.19036  0.62543  1.0000
  C   C850      1.0  0.78752  0.18709  0.59912  1.0000
  C   C851      1.0  0.78979  0.21310  0.58504  1.0000
  C   C852      1.0  0.80657  0.24256  0.59768  1.0000
  C   C853      1.0  0.82053  0.24579  0.62410  1.0000
  C   C854      1.0  0.74043  0.24148  0.61433  1.0000
  H   H690      1.0  0.77473  0.16420  0.58955  1.0000
  H   H691      1.0  0.80859  0.26280  0.58720  1.0000
  C   C855      1.0  0.73049  0.35903  0.48121  1.0000
  C   C856      1.0  0.72704  0.37674  0.46038  1.0000
  C   C857      1.0  0.71491  0.39617  0.46736  1.0000
  C   C858      1.0  0.70516  0.39702  0.49497  1.0000
  C   C859      1.0  0.70772  0.37865  0.51588  1.0000
  C   C860      1.0  0.72102  0.36003  0.50891  1.0000
  P   P27       1.0  0.69216  0.37839  0.55064  1.0000
  C   C861      1.0  0.71107  0.41886  0.56159  1.0000
  C   C862      1.0  0.65022  0.36107  0.54848  1.0000
  C   C863      1.0  0.63285  0.36286  0.57145  1.0000
  C   C864      1.0  0.60026  0.34907  0.56988  1.0000
  C   C865      1.0  0.58487  0.33303  0.54557  1.0000
  C   C866      1.0  0.60199  0.33053  0.52296  1.0000
  C   C867      1.0  0.63445  0.34442  0.52438  1.0000
  C   C868      1.0  0.74317  0.43489  0.56763  1.0000
  C   C869      1.0  0.75830  0.46661  0.57489  1.0000
  C   C870      1.0  0.74179  0.48278  0.57525  1.0000
  C   C871      1.0  0.71018  0.46730  0.56821  1.0000
  C   C872      1.0  0.69487  0.43552  0.56131  1.0000
  C   C873      1.0  0.69801  0.35365  0.57456  1.0000
  C   C874      1.0  0.68489  0.32173  0.56833  1.0000
  C   C875      1.0  0.68965  0.30213  0.58598  1.0000
  C   C876      1.0  0.70687  0.31405  0.61048  1.0000
  C   C877      1.0  0.71897  0.34554  0.61750  1.0000
  C   C878      1.0  0.71437  0.36526  0.59975  1.0000
  H   H692      1.0  0.74060  0.34451  0.47596  1.0000
  H   H693      1.0  0.73465  0.37611  0.43901  1.0000
  H   H694      1.0  0.71337  0.41088  0.45150  1.0000
  H   H695      1.0  0.69543  0.41192  0.50001  1.0000
  H   H696      1.0  0.72419  0.34617  0.52452  1.0000
  H   H697      1.0  0.64456  0.37521  0.59038  1.0000
  H   H698      1.0  0.58692  0.35103  0.58736  1.0000
  H   H699      1.0  0.55974  0.32280  0.54403  1.0000
  H   H700      1.0  0.59032  0.31845  0.50391  1.0000
  H   H701      1.0  0.64699  0.34197  0.50657  1.0000
  H   H702      1.0  0.75661  0.42302  0.56615  1.0000
  H   H703      1.0  0.54482  0.26178  0.56814  1.0000
  H   H704      1.0  0.93312  0.28377  0.61896  1.0000
  H   H705      1.0  0.89941  0.46140  0.51786  1.0000
  H   H706      1.0  0.67082  0.42453  0.55460  1.0000
  H   H707      1.0  0.67159  0.31209  0.54935  1.0000
  H   H708      1.0  0.68038  0.27778  0.58021  1.0000
  H   H709      1.0  0.71084  0.29886  0.62393  1.0000
  C   C879      1.0  0.93997  0.20485  0.32552  1.0000
  H   H710      1.0  0.72357  0.38937  0.60587  1.0000
  H   H711      1.0  0.90748  0.30698  0.39883  1.0000
  C   C880      1.0  0.70259  0.41403  0.38741  1.0000
  H   H712      1.0  0.90563  0.24662  0.35863  1.0000
  C   C881      1.0  0.55370  0.18328  0.34394  1.0000
  C   C882      1.0  0.49548  0.33785  0.60411  1.0000
  C   C883      1.0  0.66096  0.20077  0.42559  1.0000
  H   H713      1.0  0.66044  0.28107  0.36096  1.0000
  C   C884      1.0  0.73783  0.47622  0.36975  1.0000
  C   C885      1.0  0.75285  0.45998  0.37797  1.0000
  S   S126      1.0  0.76000  0.47980  0.50357  1.0000
  C   C886      1.0  0.84967  0.48761  0.53650  1.0000
  P   P28       1.0  0.83242  0.33747  0.36452  1.0000
  C   C887      1.0  0.75040  0.26180  0.63738  1.0000
  H   H714      1.0  0.56531  0.32221  0.64381  1.0000
  C   C888      1.0  0.69337  0.27597  0.33457  1.0000
  C   C889      1.0  0.49646  0.32987  0.63199  1.0000
  H   H715      1.0  0.83381  0.48589  0.55339  1.0000
  C   C890      1.0  0.88931  0.31229  0.40470  1.0000
  C   C891      1.0  0.87467  0.42587  0.33149  1.0000
  H   H716      1.0  0.83324  0.26866  0.63369  1.0000
  H   H717      1.0  0.57546  0.44905  0.34032  1.0000
  H   H718      1.0  0.79961  0.37399  0.36515  1.0000
  C   C892      1.0  0.73342  0.31471  0.39404  1.0000
  H   H719      1.0  0.89597  0.44553  0.39954  1.0000
  C   C893      1.0  0.85807  0.39331  0.33414  1.0000
  C   C894      1.0  0.79351  0.32855  0.37565  1.0000
  C   C895      1.0  0.50799  0.28961  0.61606  1.0000
  H   H720      1.0  0.56963  0.21334  0.42093  1.0000
  C   C896      1.0  0.63602  0.15079  0.44931  1.0000
  S   S127      1.0  0.74270  0.49178  0.43986  1.0000
  C   C897      1.0  0.59022  0.20788  0.38207  1.0000
  H   H721      1.0  0.66113  0.19433  0.36843  1.0000
  C   C898      1.0  0.52934  0.18116  0.36112  1.0000
  H   H722      1.0  0.76080  0.28670  0.63405  1.0000
  C   C899      1.0  0.63161  0.19646  0.41822  1.0000
  H   H723      1.0  0.88099  0.31926  0.36219  1.0000
  C   C900      1.0  0.58406  0.19646  0.35440  1.0000
  C   C901      1.0  0.66953  0.26587  0.35505  1.0000
  H   H724      1.0  0.86671  0.38831  0.40446  1.0000
  H   H725      1.0  0.74728  0.36175  0.38193  1.0000
  H   H726      1.0  0.69776  0.48019  0.56709  1.0000
  H   H727      1.0  0.74329  0.25051  0.59315  1.0000
  H   H728      1.0  0.91778  0.24622  0.44738  1.0000
  C   C902      1.0  0.88109  0.31218  0.43299  1.0000
  C   C903      1.0  0.62358  0.46412  0.34944  1.0000
  H   H729      1.0  0.71482  0.17265  0.64813  1.0000
  H   H730      1.0  0.66222  0.41867  0.38067  1.0000
  P   P29       1.0  0.51777  0.25983  0.62405  1.0000
  C   C904      1.0  0.92008  0.24757  0.37581  1.0000
  Fe  Fe62      1.0  0.78094  0.48708  0.46026  1.0000
  C   C905      1.0  0.85767  0.31906  0.44047  1.0000
  C   C906      1.0  0.75419  0.34415  0.38299  1.0000
  C   C907      1.0  0.94860  0.24814  0.37090  1.0000
  H   H731      1.0  0.68894  0.39032  0.39517  1.0000
  H   H732      1.0  0.71039  0.30940  0.40149  1.0000
  C   C908      1.0  0.87741  0.49190  0.42367  1.0000
  C   C909      1.0  0.96553  0.24743  0.39403  1.0000
  C   C910      1.0  0.60446  0.16899  0.42678  1.0000
  P   P30       1.0  0.62909  0.22477  0.39618  1.0000
  C   C911      1.0  0.86939  0.39845  0.38387  1.0000
  H   H733      1.0  0.66840  0.25705  0.44515  1.0000
  C   C912      1.0  0.73526  0.42895  0.38682  1.0000
  C   C913      1.0  0.77886  0.20083  0.34065  1.0000
  H   H734      1.0  0.68589  0.18088  0.44532  1.0000
  H   H735      1.0  0.60258  0.19771  0.34090  1.0000
  Fe  Fe63      1.0  0.72362  0.48778  0.48375  1.0000
  H   H736      1.0  0.89277  0.30671  0.44916  1.0000
  H   H737      1.0  0.63086  0.46743  0.45390  1.0000
  H   H738      1.0  0.90122  0.46991  0.35302  1.0000
  C   C914      1.0  0.81148  0.21866  0.34264  1.0000
  C   C915      1.0  0.88655  0.47375  0.51611  1.0000
  C   C916      1.0  0.70502  0.46124  0.36982  1.0000
  C   C917      1.0  0.90913  0.24699  0.40327  1.0000
  H   H739      1.0  0.63784  0.13327  0.46131  1.0000
  C   C918      1.0  0.56553  0.20523  0.39930  1.0000
  C   C919      1.0  0.94382  0.27585  0.63404  1.0000
  H   H740      1.0  0.78311  0.47911  0.57927  1.0000
  C   C920      1.0  0.66310  0.17781  0.44064  1.0000
  C   C921      1.0  0.50600  0.23151  0.59573  1.0000
  C   C922      1.0  0.85582  0.37934  0.36028  1.0000
  H   H741      1.0  0.63702  0.45161  0.40597  1.0000
  C   C923      1.0  0.64856  0.45841  0.34532  1.0000
  H   H742      1.0  0.96782  0.24659  0.43921  1.0000
  H   H743      1.0  0.51037  0.28555  0.57074  1.0000
  C   C924      1.0  0.72754  0.20941  0.61845  1.0000
  C   C925      1.0  0.84202  0.32546  0.41970  1.0000
  H   H744      1.0  0.58564  0.12557  0.44936  1.0000
  C   C926      1.0  0.85010  0.32568  0.39119  1.0000
  H   H745      1.0  0.60666  0.26963  0.39035  1.0000
  H   H746      1.0  0.85928  0.47463  0.43720  1.0000
  H   H747      1.0  0.65332  0.33470  0.45688  1.0000
  H   H748      1.0  0.73215  0.35476  0.63661  1.0000
  C   C927      1.0  0.60670  0.14643  0.44247  1.0000
  C   C928      1.0  0.94653  0.43561  0.43792  1.0000
  C   C929      1.0  0.92083  0.40652  0.44475  1.0000
  C   C930      1.0  0.89437  0.40482  0.45773  1.0000
  C   C931      1.0  0.89355  0.43211  0.46402  1.0000
  C   C932      1.0  0.97624  0.28773  0.63336  1.0000
  C   C933      1.0  0.77255  0.29922  0.38704  1.0000
  H   H749      1.0  0.82374  0.33028  0.42607  1.0000
  C   C934      1.0  0.78402  0.35100  0.37358  1.0000
  C   C935      1.0  0.87408  0.31925  0.38389  1.0000
  C   C936      1.0  0.88579  0.43097  0.38120  1.0000
  C   C937      1.0  0.92505  0.25374  0.65426  1.0000
  C   C938      1.0  0.91974  0.46146  0.45830  1.0000
  H   H750      1.0  0.53024  0.22281  0.53023  1.0000
  H   H751      1.0  0.92125  0.38525  0.43979  1.0000
  H   H752      1.0  0.87429  0.38228  0.46276  1.0000
  H   H753      1.0  0.87239  0.43013  0.47327  1.0000
  C   C939      1.0  0.50720  0.29800  0.58815  1.0000
  H   H754      1.0  0.58143  0.16487  0.42174  1.0000
  C   C940      1.0  0.83098  0.31672  0.33235  1.0000
  C   C941      1.0  0.68751  0.43016  0.37907  1.0000
  C   C942      1.0  0.64482  0.43408  0.32734  1.0000
  H   H755      1.0  0.85154  0.31944  0.46245  1.0000
  H   H756      1.0  0.74707  0.41694  0.39423  1.0000
  H   H757      1.0  0.70382  0.21290  0.33328  1.0000
  H   H758      1.0  0.54900  0.17464  0.32253  1.0000
  H   H759      1.0  0.67855  0.30426  0.47090  1.0000
  C   C943      1.0  0.74244  0.29212  0.39557  1.0000
  H   H760      1.0  0.49194  0.34196  0.64898  1.0000
  H   H761      1.0  0.51642  0.19016  0.40236  1.0000
  P   P31       1.0  0.96115  0.24565  0.33535  1.0000
  C   C944      1.0  0.63682  0.25958  0.41560  1.0000
  C   C945      1.0  0.62265  0.27697  0.40775  1.0000
  C   C946      1.0  0.62860  0.30392  0.42262  1.0000
  C   C947      1.0  0.64912  0.31408  0.44512  1.0000
  C   C948      1.0  0.66359  0.29719  0.45280  1.0000
  C   C949      1.0  0.65746  0.27003  0.43821  1.0000
  H   H762      1.0  0.70248  0.29871  0.32498  1.0000
  C   C950      1.0  0.65807  0.23669  0.36805  1.0000
  C   C951      1.0  0.94592  0.46300  0.44448  1.0000
  C   C952      1.0  0.79060  0.00453  0.64852  1.0000
  H   H763      1.0  0.93741  0.18760  0.36778  1.0000
  H   H764      1.0  0.68235  0.22146  0.41913  1.0000
  H   H765      1.0  0.77817  0.47194  0.37885  1.0000
  H   H766      1.0  0.61674  0.31659  0.41710  1.0000
  P   P32       1.0  0.68542  0.48282  0.36221  1.0000
  H   H767      1.0  0.96693  0.43694  0.42755  1.0000
  C   C953      1.0  0.88859  0.44469  0.35500  1.0000
  H   H768      1.0  0.78430  0.27729  0.33985  1.0000
  H   H769      1.0  0.79988  0.17014  0.63577  1.0000
  C   C954      1.0  0.66997  0.21729  0.35935  1.0000
  C   C955      1.0  0.52421  0.23897  0.57088  1.0000
  C   C956      1.0  0.65005  0.48369  0.44051  1.0000
  H   H770      1.0  0.76865  0.18632  0.32232  1.0000
  C   C957      1.0  0.70588  0.25700  0.32686  1.0000
  H   H771      1.0  0.72638  0.26915  0.40389  1.0000
  C   C958      1.0  0.65363  0.47486  0.41326  1.0000
  C   C959      1.0  0.59484  0.44488  0.33667  1.0000
  C   C960      1.0  0.86596  0.47127  0.53793  1.0000
  C   C961      1.0  0.93194  0.18155  0.34589  1.0000
  H   H772      1.0  0.49944  0.32759  0.56055  1.0000
  H   H773      1.0  0.86268  0.45671  0.55598  1.0000
  H   H774      1.0  0.66406  0.42982  0.32329  1.0000
  H   H775      1.0  0.50584  0.17103  0.35305  1.0000
  C   C962      1.0  0.50101  0.32203  0.58224  1.0000
  H   H776      1.0  0.77953  0.28181  0.38942  1.0000
  C   C963      1.0  0.51606  0.21698  0.54927  1.0000
  C   C964      1.0  0.72487  0.19758  0.64555  1.0000
  H   H777      1.0  0.62054  0.26521  0.61516  1.0000
  H   H778      1.0  0.80254  0.99274  0.64016  1.0000
  H   H779      1.0  0.90993  0.13212  0.35400  1.0000
  C   C965      1.0  0.91651  0.14999  0.33816  1.0000
  C   C966      1.0  0.95467  0.24722  0.42149  1.0000
  C   C967      1.0  0.69407  0.22762  0.33916  1.0000
  H   H780      1.0  0.62623  0.48327  0.36267  1.0000
  C   C968      1.0  0.55975  0.27844  0.62792  1.0000
  C   C969      1.0  0.57695  0.30939  0.63761  1.0000
  H   H781      1.0  0.56297  0.23831  0.61345  1.0000
  C   C970      1.0  0.50290  0.30601  0.63798  1.0000
  C   C971      1.0  0.57568  0.26236  0.62053  1.0000
  C   C972      1.0  0.80458  0.28774  0.32605  1.0000
  H   H782      1.0  0.96586  0.48536  0.43872  1.0000
  C   C973      1.0  0.60960  0.32430  0.63903  1.0000
  H   H783      1.0  0.62276  0.34829  0.64626  1.0000
  C   C974      1.0  0.60835  0.27747  0.62165  1.0000
  C   C975      1.0  0.62531  0.30846  0.63078  1.0000
  H   H784      1.0  0.65062  0.32019  0.63143  1.0000
  H   H785      1.0  0.98670  0.24621  0.39095  1.0000
  H   H786      1.0  0.49002  0.35597  0.59938  1.0000
  H   H787      1.0  0.84481  0.48828  0.39244  1.0000
  C   C976      1.0  0.89042  0.49205  0.49236  1.0000
  Fe  Fe64      1.0  0.88512  0.18257  0.73725  1.0000
  S   S128      1.0  0.87481  0.22183  0.73941  1.0000
  S   S129      1.0  0.93459  0.18870  0.73460  1.0000
  Fe  Fe65      1.0  0.81464  0.13257  0.73836  1.0000
  S   S130      1.0  0.80043  0.16986  0.74079  1.0000
  S   S131      1.0  0.77293  0.08178  0.73863  1.0000
  Fe  Fe66      1.0  0.83758  0.19493  0.70719  1.0000
  C   C977      1.0  0.76066  0.03612  0.66949  1.0000
  Fe  Fe67      1.0  0.83840  0.19374  0.77269  1.0000
  S   S132      1.0  0.84010  0.22091  0.81306  1.0000
  S   S133      1.0  0.84982  0.15678  0.70299  1.0000
  S   S134      1.0  0.85075  0.15540  0.77219  1.0000
  Fe  Fe68      1.0  0.52076  0.23291  0.95954  1.0000
  C   C978      1.0  0.52152  0.40161  0.93992  1.0000
  S   S135      1.0  0.51294  0.26157  0.92782  1.0000
  S   S136      1.0  0.55227  0.34527  0.95067  1.0000
  H   H788      1.0  0.74916  0.04830  0.67805  1.0000
  Fe  Fe69      1.0  0.75545  0.24316  0.95538  1.0000
  S   S137      1.0  0.74881  0.22068  0.91145  1.0000
  S   S138      1.0  0.73318  0.27249  0.96699  1.0000
  C   C979      1.0  0.55209  0.42449  0.93262  1.0000
  C   C980      1.0  0.78407  0.40020  0.94744  1.0000
  H   H789      1.0  0.78324  0.35605  0.94997  1.0000
  H   H790      1.0  0.78142  0.39893  0.92490  1.0000
  C   C981      1.0  0.58687  0.37539  0.96600  1.0000
  C   C982      1.0  0.61050  0.39766  0.94832  1.0000
  C   C983      1.0  0.63650  0.42429  0.95955  1.0000
  H   H791      1.0  0.74875  0.45703  0.82340  1.0000
  C   C984      1.0  0.78632  0.42604  0.96228  1.0000
  C   C985      1.0  0.91111  0.24220  0.84592  1.0000
  H   H792      1.0  0.60820  0.39480  0.92575  1.0000
  H   H793      1.0  0.65408  0.44161  0.94565  1.0000
  C   C986      1.0  0.58340  0.21810  0.96691  1.0000
  C   C987      1.0  0.70681  0.14125  0.72242  1.0000
  H   H794      1.0  0.92398  0.19802  0.79798  1.0000
  C   C988      1.0  0.56530  0.43359  0.98184  1.0000
  C   C989      1.0  0.70557  0.11233  0.72306  1.0000
  H   H795      1.0  0.65531  0.17187  0.93510  1.0000
  C   C990      1.0  0.81429  0.21937  0.84073  1.0000
  C   C991      1.0  0.82672  0.24051  0.86337  1.0000
  C   C992      1.0  0.80725  0.24108  0.88532  1.0000
  C   C993      1.0  0.77488  0.22077  0.88472  1.0000
  C   C994      1.0  0.76244  0.19951  0.86213  1.0000
  C   C995      1.0  0.78198  0.19855  0.84045  1.0000
  H   H796      1.0  0.85162  0.25680  0.86382  1.0000
  H   H797      1.0  0.81728  0.25749  0.90251  1.0000
  H   H798      1.0  0.73747  0.18361  0.86142  1.0000
  H   H799      1.0  0.77200  0.18214  0.82325  1.0000
  C   C996      1.0  0.76595  0.04248  0.73906  1.0000
  C   C997      1.0  0.73480  0.01748  0.73944  1.0000
  H   H800      1.0  0.79362  0.04974  0.83550  1.0000
  C   C998      1.0  0.62278  0.30041  0.95984  1.0000
  C   C999      1.0  0.79014  0.03540  0.73839  1.0000
  H   H801      1.0  0.71581  0.02249  0.73998  1.0000
  H   H802      1.0  0.81421  0.05418  0.73802  1.0000
  C   C1000     1.0  0.97657  0.25006  0.75145  1.0000
  C   C1001     1.0  0.97241  0.22148  0.74142  1.0000
  C   C1002     1.0  0.89499  0.11367  0.93405  1.0000
  H   H803      1.0  0.95633  0.25267  0.75547  1.0000
  C   C1003     1.0  0.97097  0.25534  0.67326  1.0000
  H   H804      1.0  0.76749  0.06474  0.79998  1.0000
  H   H805      1.0  0.77662  0.11874  0.79896  1.0000
  C   C1004     1.0  0.71340  0.37154  0.98193  1.0000
  C   C1005     1.0  0.91443  0.20371  0.81641  1.0000
  H   H806      1.0  0.81202  0.15798  0.83314  1.0000
  H   H807      1.0  0.76526  0.17750  0.67358  1.0000
  H   H808      1.0  0.69554  0.15783  0.92201  1.0000
  H   H809      1.0  0.87821  0.22468  0.88024  1.0000
  C   C1006     1.0  0.78510  0.37584  0.96161  1.0000
  H   H810      1.0  0.88439  0.15579  0.82799  1.0000
  H   H811      1.0  0.72476  0.08458  0.70634  1.0000
  C   C1007     1.0  0.64500  0.14928  0.97555  1.0000
  C   C1008     1.0  0.72744  0.16457  0.70368  1.0000
  Fe  Fe70      1.0  0.52073  0.29443  0.96385  1.0000
  P   P33       1.0  0.73127  0.20284  0.70403  1.0000
  C   C1009     1.0  0.69638  0.20135  0.71824  1.0000
  C   C1010     1.0  0.76489  0.22633  0.72546  1.0000
  C   C1011     1.0  0.76270  0.22197  0.75472  1.0000
  C   C1012     1.0  0.78923  0.23828  0.77128  1.0000
  C   C1013     1.0  0.81828  0.25822  0.75874  1.0000
  C   C1014     1.0  0.82072  0.26236  0.72962  1.0000
  C   C1015     1.0  0.79412  0.24658  0.71304  1.0000
  C   C1016     1.0  0.69828  0.22398  0.73751  1.0000
  C   C1017     1.0  0.67098  0.22266  0.74813  1.0000
  C   C1018     1.0  0.64168  0.19911  0.73922  1.0000
  C   C1019     1.0  0.63966  0.17700  0.71948  1.0000
  C   C1020     1.0  0.66691  0.17821  0.70889  1.0000
  H   H812      1.0  0.55894  0.42964  0.91069  1.0000
  C   C1021     1.0  0.61038  0.31632  0.97480  1.0000
  C   C1022     1.0  0.70081  0.41042  0.96674  1.0000
  H   H813      1.0  0.75535  0.26605  0.68223  1.0000
  H   H814      1.0  0.74070  0.20547  0.76470  1.0000
  H   H815      1.0  0.78759  0.23480  0.79380  1.0000
  H   H816      1.0  0.83902  0.26972  0.77156  1.0000
  H   H817      1.0  0.84341  0.27685  0.71968  1.0000
  H   H818      1.0  0.79683  0.24920  0.69044  1.0000
  H   H819      1.0  0.72075  0.24274  0.74428  1.0000
  H   H820      1.0  0.67258  0.23998  0.76324  1.0000
  H   H821      1.0  0.62056  0.19812  0.74748  1.0000
  H   H822      1.0  0.61698  0.15893  0.71233  1.0000
  H   H823      1.0  0.66506  0.16112  0.69339  1.0000
  H   H824      1.0  0.50906  0.21898  0.72065  1.0000
  S   S139      1.0  0.55289  0.21450  0.94548  1.0000
  H   H825      1.0  0.90551  0.10374  0.94717  1.0000
  S   S140      1.0  0.83619  0.22551  0.67165  1.0000
  H   H826      1.0  0.71769  0.99496  0.65910  1.0000
  H   H827      1.0  0.77218  0.45925  0.86973  1.0000
  S   S141      1.0  0.79827  0.27154  0.98188  1.0000
  C   C1023     1.0  0.60788  0.21500  0.95462  1.0000
  C   C1024     1.0  0.74648  0.13017  0.68736  1.0000
  C   C1025     1.0  0.51286  0.39393  0.96828  1.0000
  C   C1026     1.0  0.63264  0.21787  0.97102  1.0000
  C   C1027     1.0  0.74783  0.15909  0.68676  1.0000
  C   C1028     1.0  0.93864  0.24354  0.67389  1.0000
  H   H828      1.0  0.94088  0.25325  0.80903  1.0000
  H   H829      1.0  0.82867  0.48148  0.89635  1.0000
  H   H830      1.0  0.70924  0.12867  0.95551  1.0000
  H   H831      1.0  0.91779  0.26630  0.85018  1.0000
  C   C1029     1.0  0.78320  0.00391  0.73772  1.0000
  H   H832      1.0  0.76263  0.12629  0.67450  1.0000
  C   C1030     1.0  0.72525  0.10673  0.70541  1.0000
  H   H833      1.0  0.69216  0.14550  0.73692  1.0000
  C   C1031     1.0  0.64365  0.29342  0.97276  1.0000
  H   H834      1.0  0.84413  0.21400  0.96152  1.0000
  H   H835      1.0  0.59418  0.32168  0.96466  1.0000
  H   H836      1.0  0.78819  0.19759  0.95558  1.0000
  H   H837      1.0  0.53728  0.24236  0.67599  1.0000
  H   H838      1.0  0.65162  0.21596  0.96131  1.0000
  H   H839      1.0  0.50372  0.30031  0.65975  1.0000
  S   S142      1.0  0.78540  0.45636  0.94353  1.0000
  H   H840      1.0  0.65340  0.28120  0.96124  1.0000
  H   H841      1.0  0.49392  0.33541  0.93504  1.0000
  C   C1032     1.0  0.92398  0.23486  0.82263  1.0000
  C   C1033     1.0  0.70331  0.27892  0.90277  1.0000
  C   C1034     1.0  0.73438  0.29142  0.89368  1.0000
  C   C1035     1.0  0.75173  0.32278  0.88573  1.0000
  C   C1036     1.0  0.73796  0.34163  0.88663  1.0000
  C   C1037     1.0  0.70659  0.32914  0.89537  1.0000
  C   C1038     1.0  0.68955  0.29774  0.90391  1.0000
  P   P34       1.0  0.68947  0.35402  0.89890  1.0000
  C   C1039     1.0  0.69586  0.36991  0.93420  1.0000
  C   C1040     1.0  0.70841  0.38620  0.87447  1.0000
  C   C1041     1.0  0.73632  0.41312  0.88191  1.0000
  C   C1042     1.0  0.75081  0.43850  0.86355  1.0000
  C   C1043     1.0  0.73761  0.43719  0.83751  1.0000
  C   C1044     1.0  0.70997  0.41035  0.82976  1.0000
  C   C1045     1.0  0.69541  0.38488  0.84813  1.0000
  C   C1046     1.0  0.69313  0.39638  0.94020  1.0000
  C   C1047     1.0  0.68316  0.15025  0.94203  1.0000
  H   H842      1.0  0.50485  0.38984  0.92339  1.0000
  H   H843      1.0  0.60785  0.21076  0.93225  1.0000
  C   C1048     1.0  0.70589  0.35750  0.95539  1.0000
  C   C1049     1.0  0.64824  0.33253  0.89081  1.0000
  C   C1050     1.0  0.62759  0.34172  0.90223  1.0000
  C   C1051     1.0  0.59575  0.32495  0.89591  1.0000
  C   C1052     1.0  0.58423  0.29891  0.87823  1.0000
  C   C1053     1.0  0.60468  0.29000  0.86625  1.0000
  C   C1054     1.0  0.63661  0.30697  0.87217  1.0000
  H   H844      1.0  0.69017  0.25476  0.90954  1.0000
  H   H845      1.0  0.74519  0.27692  0.89329  1.0000
  H   H846      1.0  0.77604  0.33259  0.87929  1.0000
  H   H847      1.0  0.75205  0.36598  0.88092  1.0000
  H   H848      1.0  0.66571  0.28781  0.91171  1.0000
  H   H849      1.0  0.74683  0.41459  0.90202  1.0000
  C   C1055     1.0  0.49700  0.22261  0.70360  1.0000
  H   H850      1.0  0.61558  0.29272  0.93850  1.0000
  H   H851      1.0  0.69970  0.40938  0.80959  1.0000
  H   H852      1.0  0.67397  0.36441  0.84176  1.0000
  H   H853      1.0  0.68609  0.40687  0.92415  1.0000
  C   C1056     1.0  0.66043  0.15816  0.94942  1.0000
  C   C1057     1.0  0.86413  0.10657  0.93923  1.0000
  H   H854      1.0  0.68992  0.09445  0.73770  1.0000
  H   H855      1.0  0.70891  0.33756  0.95147  1.0000
  H   H856      1.0  0.63570  0.36143  0.91638  1.0000
  H   H857      1.0  0.57986  0.33193  0.90495  1.0000
  H   H858      1.0  0.55940  0.28562  0.87388  1.0000
  H   H859      1.0  0.59567  0.26982  0.85249  1.0000
  H   H860      1.0  0.65212  0.30000  0.86225  1.0000
  H   H861      1.0  0.82658  0.11364  0.92649  1.0000
  H   H862      1.0  0.82884  0.08837  0.86993  1.0000
  C   C1058     1.0  0.78300  0.16937  0.91897  1.0000
  C   C1059     1.0  0.79965  0.18912  0.94116  1.0000
  C   C1060     1.0  0.83124  0.19853  0.94434  1.0000
  C   C1061     1.0  0.84623  0.18837  0.92521  1.0000
  C   C1062     1.0  0.82981  0.16899  0.90248  1.0000
  C   C1063     1.0  0.79797  0.15947  0.89958  1.0000
  P   P35       1.0  0.84964  0.15562  0.87845  1.0000
  C   C1064     1.0  0.87879  0.18698  0.85688  1.0000
  C   C1065     1.0  0.86774  0.13938  0.89999  1.0000
  C   C1066     1.0  0.89878  0.14650  0.89498  1.0000
  C   C1067     1.0  0.91229  0.13362  0.91195  1.0000
  C   C1068     1.0  0.85054  0.11938  0.92229  1.0000
  C   C1069     1.0  0.89188  0.17985  0.83341  1.0000
  C   C1070     1.0  0.88857  0.21839  0.86300  1.0000
  C   C1071     1.0  0.82246  0.12604  0.85466  1.0000
  C   C1072     1.0  0.80761  0.13425  0.83434  1.0000
  C   C1073     1.0  0.78750  0.11208  0.81500  1.0000
  C   C1074     1.0  0.78242  0.08164  0.81551  1.0000
  C   C1075     1.0  0.79723  0.07326  0.83553  1.0000
  C   C1076     1.0  0.81720  0.09533  0.85506  1.0000
  H   H863      1.0  0.75869  0.16272  0.91620  1.0000
  C   C1077     1.0  0.79327  0.05064  0.66970  1.0000
  H   H864      1.0  0.87074  0.19588  0.92796  1.0000
  H   H865      1.0  0.78457  0.14469  0.88236  1.0000
  H   H866      1.0  0.91274  0.16199  0.87812  1.0000
  H   H867      1.0  0.93623  0.13917  0.90793  1.0000
  H   H868      1.0  0.59789  0.45758  0.94791  1.0000
  C   C1078     1.0  0.69082  0.13378  0.96093  1.0000
  H   H869      1.0  0.69934  0.43122  0.97104  1.0000
  H   H870      1.0  0.92415  0.22649  0.68970  1.0000
  H   H871      1.0  0.62830  0.15667  0.98103  1.0000
  C   C1079     1.0  0.57401  0.44035  0.95356  1.0000
  H   H872      1.0  0.85073  0.09114  0.95638  1.0000
  H   H873      1.0  0.80218  0.99889  0.73695  1.0000
  C   C1080     1.0  0.74760  0.25004  0.66456  1.0000
  C   C1081     1.0  0.74292  0.00569  0.65908  1.0000
  C   C1082     1.0  0.49738  0.24104  0.65634  1.0000
  Fe  Fe71      1.0  0.77284  0.49120  0.96265  1.0000
  C   C1083     1.0  0.51291  0.23590  0.67827  1.0000
  H   H874      1.0  0.80684  0.07394  0.67849  1.0000
  H   H875      1.0  0.98114  0.24735  0.68877  1.0000
  C   C1084     1.0  0.73541  0.21790  0.66880  1.0000
  C   C1085     1.0  0.71151  0.39837  0.98739  1.0000
  C   C1086     1.0  0.80825  0.03490  0.65914  1.0000
  C   C1087     1.0  0.67551  0.12492  0.98712  1.0000
  H   H876      1.0  0.83355  0.04621  0.65943  1.0000
  H   H877      1.0  0.89995  0.24455  0.65480  1.0000
  Fe  Fe72      1.0  0.88263  0.71094  0.22708  1.0000
  S   S143      1.0  0.86382  0.65934  0.21920  1.0000
  S   S144      1.0  0.93296  0.75293  0.22180  1.0000
  Fe  Fe73      1.0  0.81662  0.70102  0.24173  1.0000
  S   S145      1.0  0.79441  0.64900  0.23552  1.0000
  S   S146      1.0  0.78543  0.72060  0.25825  1.0000
  Fe  Fe74      1.0  0.83475  0.65186  0.25909  1.0000
  S   S147      1.0  0.82763  0.61251  0.28927  1.0000
  Fe  Fe75      1.0  0.82444  0.65991  0.19618  1.0000
  S   S148      1.0  0.79622  0.63367  0.15694  1.0000
  S   S149      1.0  0.85559  0.70336  0.26804  1.0000
  S   S150      1.0  0.84473  0.71199  0.20151  1.0000
  Fe  Fe76      1.0  0.64656  0.83403  0.20621  1.0000
  S   S151      1.0  0.69663  0.85615  0.19143  1.0000
  S   S152      1.0  0.60320  0.81830  0.17852  1.0000
  Fe  Fe77      1.0  0.66434  0.83867  0.26865  1.0000
  S   S153      1.0  0.71599  0.86089  0.25723  1.0000
  C   C1088     1.0  0.61905  0.98304  0.05827  1.0000
  Fe  Fe78      1.0  0.70790  0.89093  0.22690  1.0000
  S   S154      1.0  0.74734  0.94193  0.21921  1.0000
  Fe  Fe79      1.0  0.70166  0.82483  0.22278  1.0000
  S   S155      1.0  0.72880  0.80094  0.20567  1.0000
  S   S156      1.0  0.65718  0.87075  0.24004  1.0000
  S   S157      1.0  0.65066  0.80071  0.23578  1.0000
  Fe  Fe80      1.0  0.78170  0.54136  0.00712  1.0000
  H   H878      1.0  0.73296  0.61374  0.20192  1.0000
  S   S158      1.0  0.81293  0.57045  0.04381  1.0000
  H   H879      1.0  0.71960  0.63684  0.24289  1.0000
  C   C1089     1.0  0.71206  0.96568  0.13914  1.0000
  Fe  Fe81      1.0  0.53766  0.77069  0.01517  1.0000
  H   H880      1.0  0.71060  0.68127  0.23595  1.0000
  S   S159      1.0  0.57737  0.78499  0.04705  1.0000
  C   C1090     1.0  0.59612  0.80765  0.14217  1.0000
  C   C1091     1.0  0.56644  0.79864  0.13117  1.0000
  C   C1092     1.0  0.56005  0.79123  0.10235  1.0000
  C   C1093     1.0  0.58340  0.79296  0.08394  1.0000
  C   C1094     1.0  0.61296  0.80164  0.09502  1.0000
  C   C1095     1.0  0.61926  0.80873  0.12390  1.0000
  H   H881      1.0  0.54830  0.79760  0.14504  1.0000
  H   H882      1.0  0.53710  0.78429  0.09436  1.0000
  H   H883      1.0  0.63124  0.80305  0.08110  1.0000
  H   H884      1.0  0.64220  0.81560  0.13188  1.0000
  C   C1096     1.0  0.87480  0.81778  0.23967  1.0000
  H   H885      1.0  0.70515  0.96619  0.23553  1.0000
  C   C1097     1.0  0.53887  0.88665  0.03842  1.0000
  C   C1098     1.0  0.75309  0.98039  0.22531  1.0000
  H   H886      1.0  0.50813  0.74535  0.29329  1.0000
  C   C1099     1.0  0.60593  0.95058  0.05954  1.0000
  H   H887      1.0  0.61571  0.75949  0.28534  1.0000
  H   H888      1.0  0.95963  0.71188  0.23175  1.0000
  C   C1100     1.0  0.80772  0.58840  0.07482  1.0000
  C   C1101     1.0  0.77940  0.58716  0.08179  1.0000
  C   C1102     1.0  0.77650  0.60134  0.10682  1.0000
  C   C1103     1.0  0.80179  0.61705  0.12527  1.0000
  C   C1104     1.0  0.83015  0.61846  0.11822  1.0000
  C   C1105     1.0  0.83307  0.60438  0.09315  1.0000
  H   H889      1.0  0.75975  0.57531  0.06791  1.0000
  H   H890      1.0  0.75441  0.60000  0.11202  1.0000
  H   H891      1.0  0.84985  0.63040  0.13208  1.0000
  H   H892      1.0  0.85522  0.60588  0.08793  1.0000
  C   C1106     1.0  0.76956  0.74247  0.24280  1.0000
  C   C1107     1.0  0.74796  0.74756  0.25853  1.0000
  C   C1108     1.0  0.73552  0.76558  0.24777  1.0000
  C   C1109     1.0  0.74412  0.77843  0.22081  1.0000
  C   C1110     1.0  0.76550  0.77311  0.20497  1.0000
  C   C1111     1.0  0.77798  0.75512  0.21576  1.0000
  H   H893      1.0  0.74089  0.73761  0.27932  1.0000
  H   H894      1.0  0.71919  0.76939  0.26032  1.0000
  H   H895      1.0  0.77282  0.78334  0.18430  1.0000
  H   H896      1.0  0.79431  0.75125  0.20327  1.0000
  H   H897      1.0  0.60466  0.87277  0.14308  1.0000
  C   C1112     1.0  0.55648  0.87315  0.04721  1.0000
  H   H898      1.0  0.71511  0.51252  0.04486  1.0000
  H   H899      1.0  0.81955  0.78682  0.09679  1.0000
  H   H900      1.0  0.95884  0.76664  0.28158  1.0000
  H   H901      1.0  0.73824  0.63539  0.15476  1.0000
  H   H902      1.0  0.65844  0.88160  0.13888  1.0000
  H   H903      1.0  0.80114  0.85871  0.29306  1.0000
  C   C1113     1.0  0.54321  0.81979  0.26878  1.0000
  C   C1114     1.0  0.72706  0.51354  0.31754  1.0000
  C   C1115     1.0  0.50615  0.86974  0.04034  1.0000
  C   C1116     1.0  0.61498  0.85461  0.01216  1.0000
  C   C1117     1.0  0.61468  0.71749  0.21661  1.0000
  C   C1118     1.0  0.61381  0.72947  0.19039  1.0000
  C   C1119     1.0  0.59338  0.74087  0.18615  1.0000
  C   C1120     1.0  0.61422  0.93490  0.03936  1.0000
  H   H904      1.0  0.86067  0.77722  0.11544  1.0000
  H   H905      1.0  0.50422  0.79314  0.29699  1.0000
  H   H906      1.0  0.75087  0.97319  0.16451  1.0000
  H   H907      1.0  0.58838  0.79370  0.23782  1.0000
  H   H908      1.0  0.62912  0.73010  0.17344  1.0000
  H   H909      1.0  0.59276  0.75031  0.16586  1.0000
  H   H910      1.0  0.76385  0.74817  0.10429  1.0000
  H   H911      1.0  0.87698  0.53981  0.04289  1.0000
  C   C1121     1.0  0.72856  0.98580  0.23267  1.0000
  C   C1122     1.0  0.50895  0.66744  0.26828  1.0000
  P   P36       1.0  0.59844  0.89329  0.04237  1.0000
  H   H912      1.0  0.64407  0.94082  0.00313  1.0000
  C   C1123     1.0  0.61720  0.88902  0.07288  1.0000
  C   C1124     1.0  0.81713  0.79901  0.29123  1.0000
  H   H913      1.0  0.57816  0.87738  0.10162  1.0000
  C   C1125     1.0  0.56926  0.79275  0.25007  1.0000
  C   C1126     1.0  0.66314  0.89268  0.09462  1.0000
  C   C1127     1.0  0.64827  0.89529  0.07090  1.0000
  H   H914      1.0  0.49479  0.72014  0.23562  1.0000
  C   C1128     1.0  0.52423  0.76577  0.28123  1.0000
  S   S160      1.0  0.74401  0.54762  0.98801  1.0000
  H   H915      1.0  0.59642  0.70783  0.25880  1.0000
  H   H916      1.0  0.66796  0.58097  0.09383  1.0000
  C   C1129     1.0  0.81154  0.91417  0.22099  1.0000
  H   H917      1.0  0.83614  0.54939  0.11999  1.0000
  C   C1130     1.0  0.59942  0.74657  0.30222  1.0000
  H   H918      1.0  0.68673  0.89649  0.09284  1.0000
  H   H919      1.0  0.66084  0.90174  0.05094  1.0000
  H   H920      1.0  0.84557  0.72880  0.14214  1.0000
  C   C1131     1.0  0.85957  0.54705  0.08252  1.0000
  C   C1132     1.0  0.60183  0.88166  0.09923  1.0000
  H   H921      1.0  0.79014  0.69067  0.15118  1.0000
  P   P37       1.0  0.84874  0.85357  0.25894  1.0000
  C   C1133     1.0  0.85614  0.83086  0.23292  1.0000
  H   H922      1.0  0.83152  0.79095  0.28090  1.0000
  C   C1134     1.0  0.50817  0.82532  0.05867  1.0000
  H   H923      1.0  0.88093  0.56857  0.08713  1.0000
  H   H924      1.0  0.52716  0.66561  0.27897  1.0000
  C   C1135     1.0  0.80158  0.51646  0.20062  1.0000
  C   C1136     1.0  0.74202  0.49962  0.10586  1.0000
  C   C1137     1.0  0.84390  0.82642  0.20577  1.0000
  C   C1138     1.0  0.84992  0.80889  0.18588  1.0000
  C   C1139     1.0  0.86817  0.79567  0.19292  1.0000
  C   C1140     1.0  0.69887  0.97968  0.12327  1.0000
  C   C1141     1.0  0.97873  0.73545  0.22849  1.0000
  C   C1142     1.0  0.83499  0.87749  0.24299  1.0000
  C   C1143     1.0  0.80421  0.86350  0.23327  1.0000
  H   H925      1.0  0.58951  0.93768  0.07640  1.0000
  H   H926      1.0  0.78899  0.83846  0.23466  1.0000
  C   C1144     1.0  0.69356  0.50046  0.11396  1.0000
  H   H927      1.0  0.85685  0.95356  0.22967  1.0000
  C   C1145     1.0  0.83393  0.53607  0.10112  1.0000
  C   C1146     1.0  0.94968  0.72636  0.30578  1.0000
  C   C1147     1.0  0.88478  0.87805  0.27714  1.0000
  C   C1148     1.0  0.59556  0.71749  0.23877  1.0000
  C   C1149     1.0  0.56703  0.73019  0.29776  1.0000
  H   H928      1.0  0.82933  0.83599  0.19992  1.0000
  H   H929      1.0  0.83983  0.80501  0.16520  1.0000
  H   H930      1.0  0.87248  0.78169  0.17772  1.0000
  C   C1150     1.0  0.74082  0.50544  0.07728  1.0000
  C   C1151     1.0  0.78475  0.51346  0.15241  1.0000
  C   C1152     1.0  0.79262  0.88172  0.22217  1.0000
  H   H931      1.0  0.71523  0.70307  0.18900  1.0000
  H   H932      1.0  0.55398  0.83071  0.06196  1.0000
  C   C1153     1.0  0.73890  0.63579  0.06772  1.0000
  C   C1154     1.0  0.71113  0.60721  0.07044  1.0000
  C   C1155     1.0  0.68939  0.60320  0.09163  1.0000
  C   C1156     1.0  0.69551  0.62769  0.11024  1.0000
  C   C1157     1.0  0.72344  0.65647  0.10773  1.0000
  C   C1158     1.0  0.74504  0.66039  0.08619  1.0000
  P   P38       1.0  0.73192  0.68723  0.13310  1.0000
  C   C1159     1.0  0.77265  0.71689  0.12913  1.0000
  C   C1160     1.0  0.70725  0.70435  0.12847  1.0000
  C   C1161     1.0  0.71428  0.73227  0.14244  1.0000
  C   C1162     1.0  0.69551  0.74579  0.13917  1.0000
  C   C1163     1.0  0.66973  0.73180  0.12152  1.0000
  C   C1164     1.0  0.66269  0.70421  0.10723  1.0000
  C   C1165     1.0  0.68135  0.69050  0.11065  1.0000
  C   C1166     1.0  0.79610  0.71173  0.13962  1.0000
  C   C1167     1.0  0.82768  0.73338  0.13454  1.0000
  C   C1168     1.0  0.83616  0.76054  0.11932  1.0000
  C   C1169     1.0  0.81301  0.76592  0.10885  1.0000
  C   C1170     1.0  0.78137  0.74404  0.11344  1.0000
  C   C1171     1.0  0.72642  0.67053  0.16785  1.0000
  C   C1172     1.0  0.71848  0.68316  0.19110  1.0000
  C   C1173     1.0  0.71560  0.67070  0.21796  1.0000
  C   C1174     1.0  0.72065  0.64562  0.22189  1.0000
  C   C1175     1.0  0.72822  0.63269  0.19889  1.0000
  C   C1176     1.0  0.73123  0.64513  0.17205  1.0000
  H   H933      1.0  0.75599  0.63869  0.05158  1.0000
  C   C1177     1.0  0.97216  0.75940  0.22317  1.0000
  H   H934      1.0  0.80216  0.92826  0.21297  1.0000
  H   H935      1.0  0.67874  0.62409  0.12691  1.0000
  H   H936      1.0  0.76694  0.68211  0.08384  1.0000
  H   H937      1.0  0.73440  0.74369  0.15585  1.0000
  H   H938      1.0  0.70110  0.76722  0.15035  1.0000
  H   H939      1.0  0.76876  0.87067  0.21480  1.0000
  H   H940      1.0  0.67553  0.66933  0.09916  1.0000
  H   H941      1.0  0.91413  0.88774  0.23986  1.0000
  H   H942      1.0  0.70667  0.58812  0.05626  1.0000
  H   H943      1.0  0.63056  0.70868  0.21988  1.0000
  H   H944      1.0  0.80009  0.58233  0.18330  1.0000
  H   H945      1.0  0.64280  0.69351  0.09338  1.0000
  H   H946      1.0  0.75617  0.58570  0.28854  1.0000
  H   H947      1.0  0.62031  0.84821  0.03210  1.0000
  C   C1178     1.0  0.64737  0.88456  0.12058  1.0000
  C   C1179     1.0  0.85407  0.91014  0.24139  1.0000
  C   C1180     1.0  0.60478  0.87647  0.01074  1.0000
  C   C1181     1.0  0.57432  0.74098  0.20827  1.0000
  C   C1182     1.0  0.54775  0.76543  0.26432  1.0000
  H   H948      1.0  0.55881  0.75013  0.20452  1.0000
  C   C1183     1.0  0.80452  0.54601  0.20360  1.0000
  H   H949      1.0  0.76052  0.53815  0.28408  1.0000
  P   P39       1.0  0.55181  0.73106  0.26375  1.0000
  C   C1184     1.0  0.91340  0.89201  0.26219  1.0000
  H   H950      1.0  0.89459  0.78961  0.22527  1.0000
  H   H951      1.0  0.88457  0.82085  0.26043  1.0000
  C   C1185     1.0  0.54087  0.84216  0.05679  1.0000
  H   H952      1.0  0.67633  0.96529  0.11365  1.0000
  C   C1186     1.0  0.57603  0.73027  0.23504  1.0000
  C   C1187     1.0  0.56674  0.81967  0.25202  1.0000
  C   C1188     1.0  0.52199  0.79286  0.28345  1.0000
  C   C1189     1.0  0.81956  0.82767  0.28418  1.0000
  H   H953      1.0  0.54175  0.84089  0.27069  1.0000
  H   H954      1.0  0.55022  0.90986  0.02950  1.0000
  H   H955      1.0  0.58486  0.80484  0.30904  1.0000
  H   H956      1.0  0.58346  0.84055  0.24079  1.0000
  S   S161      1.0  0.65267  0.83143  0.31639  1.0000
  H   H957      1.0  0.49621  0.80113  0.06540  1.0000
  C   C1190     1.0  0.85736  0.53088  0.05759  1.0000
  H   H958      1.0  0.69987  0.94061  0.14204  1.0000
  H   H959      1.0  0.92496  0.71365  0.30090  1.0000
  H   H960      1.0  0.81236  0.55879  0.22327  1.0000
  C   C1191     1.0  0.61690  0.87945  0.12293  1.0000
  C   C1192     1.0  0.79757  0.55929  0.18110  1.0000
  C   C1193     1.0  0.84230  0.92836  0.23048  1.0000
  C   C1194     1.0  0.63641  0.95221  0.01833  1.0000
  H   H961      1.0  0.87782  0.92171  0.24889  1.0000
  C   C1195     1.0  0.69232  0.50572  0.08533  1.0000
  C   C1196     1.0  0.78771  0.54311  0.15564  1.0000
  C   C1197     1.0  0.74445  0.53887  0.29954  1.0000
  H   H962      1.0  0.78275  0.55391  0.13831  1.0000
  C   C1198     1.0  0.82958  0.50351  0.05131  1.0000
  H   H963      1.0  0.65534  0.74246  0.11881  1.0000
  C   C1199     1.0  0.88064  0.80014  0.21979  1.0000
  C   C1200     1.0  0.74090  0.98409  0.15186  1.0000
  C   C1201     1.0  0.96881  0.75629  0.29492  1.0000
  C   C1202     1.0  0.51430  0.69651  0.25873  1.0000
  H   H964      1.0  0.75932  0.50845  0.06293  1.0000
  S   S162      1.0  0.52627  0.80403  0.99309  1.0000
  C   C1203     1.0  0.79968  0.83664  0.29782  1.0000
  H   H965      1.0  0.87029  0.60789  0.00679  1.0000
  H   H966      1.0  0.96338  0.92216  0.26436  1.0000
  H   H967      1.0  0.49250  0.87996  0.03325  1.0000
  C   C1204     1.0  0.49084  0.83916  0.05055  1.0000
  C   C1205     1.0  0.71594  0.50819  0.06704  1.0000
  C   C1206     1.0  0.79175  0.50019  0.17511  1.0000
  H   H968      1.0  0.67319  0.50800  0.07721  1.0000
  H   H969      1.0  0.52147  0.70551  0.31842  1.0000
  P   P40       1.0  0.77265  0.49343  0.11901  1.0000
  H   H970      1.0  0.55699  0.98738  0.03589  1.0000
  C   C1207     1.0  0.94135  0.91166  0.27598  1.0000
  C   C1208     1.0  0.74197  0.56575  0.30198  1.0000
  H   H971      1.0  0.83371  0.62802  0.00260  1.0000
  H   H972      1.0  0.67544  0.49890  0.12823  1.0000
  H   H973      1.0  0.80716  0.50630  0.21806  1.0000
  H   H974      1.0  0.62352  0.82162  0.98933  1.0000
  C   C1209     1.0  0.64941  0.98467  0.01705  1.0000
  C   C1210     1.0  0.80582  0.50868  0.09489  1.0000
  C   C1211     1.0  0.91242  0.90438  0.31962  1.0000
  C   C1212     1.0  0.77750  0.81705  0.31776  1.0000
  C   C1213     1.0  0.88442  0.88468  0.30590  1.0000
  C   C1214     1.0  0.79523  0.77969  0.31146  1.0000
  C   C1215     1.0  0.49076  0.69812  0.24401  1.0000
  C   C1216     1.0  0.71820  0.49721  0.12419  1.0000
  C   C1217     1.0  0.94087  0.91779  0.30469  1.0000
  H   H975      1.0  0.79302  0.75722  0.31611  1.0000
  C   C1218     1.0  0.54654  0.71654  0.32086  1.0000
  H   H976      1.0  0.71874  0.49288  0.14638  1.0000
  H   H977      1.0  0.86263  0.87472  0.31779  1.0000
  H   H978      1.0  0.96254  0.93303  0.31535  1.0000
  H   H979      1.0  0.58877  0.89208  0.31109  1.0000
  H   H980      1.0  0.72921  0.49288  0.31524  1.0000
  C   C1219     1.0  0.61673  0.83931  0.98785  1.0000
  C   C1220     1.0  0.96288  0.55894  0.47553  1.0000
  C   C1221     1.0  0.71803  0.96712  0.58474  1.0000
  Fe  Fe82      1.0  0.77305  0.54329  0.44832  1.0000
  S   S163      1.0  0.78113  0.58300  0.41837  1.0000
  S   S164      1.0  0.75046  0.53996  0.49119  1.0000
  Fe  Fe83      1.0  0.52430  0.77169  0.45054  1.0000
  S   S165      1.0  0.53500  0.77178  0.40287  1.0000
  S   S166      1.0  0.54044  0.81457  0.47773  1.0000
  H   H981      1.0  0.60521  0.76415  0.61609  1.0000
  H   H982      1.0  0.95656  0.53907  0.41888  1.0000
  C   C1222     1.0  0.56354  0.79095  0.35057  1.0000
  C   C1223     1.0  0.56836  0.78991  0.37958  1.0000
  C   C1224     1.0  0.59914  0.80241  0.38881  1.0000
  H   H983      1.0  0.87477  0.81716  0.55036  1.0000
  C   C1225     1.0  0.54137  0.72048  0.56203  1.0000
  H   H984      1.0  0.53996  0.78142  0.34309  1.0000
  H   H985      1.0  0.60339  0.80182  0.41095  1.0000
  C   C1226     1.0  0.87421  0.50869  0.49127  1.0000
  H   H986      1.0  0.86927  0.68370  0.62869  1.0000
  C   C1227     1.0  0.78381  0.70359  0.63579  1.0000
  C   C1228     1.0  0.80244  0.57146  0.36700  1.0000
  C   C1229     1.0  0.79388  0.59047  0.38237  1.0000
  C   C1230     1.0  0.79565  0.61657  0.36888  1.0000
  C   C1231     1.0  0.80602  0.62377  0.34059  1.0000
  H   H987      1.0  0.64604  0.80348  0.47751  1.0000
  H   H988      1.0  0.80140  0.55143  0.37702  1.0000
  H   H989      1.0  0.78910  0.63146  0.38046  1.0000
  H   H990      1.0  0.54250  0.70848  0.36563  1.0000
  Fe  Fe84      1.0  0.78806  0.53224  0.50855  1.0000
  S   S167      1.0  0.81257  0.53889  0.46625  1.0000
  S   S168      1.0  0.81609  0.55281  0.54900  1.0000
  C   C1232     1.0  0.84278  0.63392  0.52090  1.0000
  C   C1233     1.0  0.83116  0.65399  0.51583  1.0000
  Fe  Fe85      1.0  0.54339  0.78594  0.51318  1.0000
  S   S169      1.0  0.53010  0.74381  0.48511  1.0000
  S   S170      1.0  0.58621  0.80655  0.54216  1.0000
  C   C1234     1.0  0.92392  0.53559  0.38789  1.0000
  C   C1235     1.0  0.57026  0.79933  0.62777  1.0000
  C   C1236     1.0  0.56534  0.79647  0.59841  1.0000
  C   C1237     1.0  0.59082  0.80958  0.57954  1.0000
  C   C1238     1.0  0.62126  0.82552  0.59061  1.0000
  C   C1239     1.0  0.62621  0.82816  0.61997  1.0000
  H   H991      1.0  0.64935  0.71150  0.58913  1.0000
  H   H992      1.0  0.54181  0.78414  0.59037  1.0000
  H   H993      1.0  0.64119  0.83595  0.57633  1.0000
  H   H994      1.0  0.64975  0.84044  0.62801  1.0000
  C   C1240     1.0  0.81189  0.57619  0.57588  1.0000
  C   C1241     1.0  0.79018  0.58648  0.57416  1.0000
  C   C1242     1.0  0.78859  0.60595  0.59538  1.0000
  C   C1243     1.0  0.80852  0.61540  0.61870  1.0000
  C   C1244     1.0  0.83024  0.60512  0.62044  1.0000
  C   C1245     1.0  0.83186  0.58565  0.59920  1.0000
  H   H995      1.0  0.77482  0.57969  0.55635  1.0000
  H   H996      1.0  0.77170  0.61371  0.59374  1.0000
  C   C1246     1.0  0.75776  0.98947  0.64894  1.0000
  H   H997      1.0  0.84880  0.57796  0.60079  1.0000
  C   C1247     1.0  0.51171  0.71530  0.56998  1.0000
  C   C1248     1.0  0.71976  0.97258  0.55580  1.0000
  H   H998      1.0  0.86297  0.74818  0.63144  1.0000
  H   H999      1.0  0.94668  0.56477  0.46599  1.0000
  C   C1249     1.0  0.70755  0.51525  0.33857  1.0000
  H   H1000     1.0  0.85708  0.77185  0.58151  1.0000
  H   H1001     1.0  0.53587  0.94758  0.47216  1.0000
  H   H1002     1.0  0.75783  0.77319  0.33976  1.0000
  C   C1250     1.0  0.85391  0.50639  0.51326  1.0000
  C   C1251     1.0  0.61370  0.75660  0.49124  1.0000
  H   H1003     1.0  0.54816  0.65559  0.58316  1.0000
  C   C1252     1.0  0.64727  0.72754  0.60345  1.0000
  C   C1253     1.0  0.81278  0.57865  0.33869  1.0000
  C   C1254     1.0  0.63786  0.77763  0.54488  1.0000
  C   C1255     1.0  0.50393  0.87764  0.43806  1.0000
  C   C1256     1.0  0.75020  0.87653  0.63724  1.0000
  C   C1257     1.0  0.67901  0.49551  0.39615  1.0000
  C   C1258     1.0  0.72188  0.56726  0.32225  1.0000
  H   H1004     1.0  0.72521  0.89149  0.61104  1.0000
  C   C1259     1.0  0.96063  0.67659  0.62270  1.0000
  H   H1005     1.0  0.72215  0.54002  0.39505  1.0000
  C   C1260     1.0  0.97424  0.68624  0.64908  1.0000
  H   H1006     1.0  0.97018  0.49665  0.49491  1.0000
  H   H1007     1.0  0.94194  0.55251  0.37398  1.0000
  H   H1008     1.0  0.64699  0.78656  0.56551  1.0000
  H   H1009     1.0  0.54951  0.72784  0.54074  1.0000
  C   C1261     1.0  0.64341  0.76962  0.64092  1.0000
  P   P41       1.0  0.50231  0.86113  0.38134  1.0000
  H   H1010     1.0  0.63618  0.76109  0.33232  1.0000
  C   C1262     1.0  0.81423  0.72646  0.64262  1.0000
  C   C1263     1.0  0.60189  0.73623  0.51416  1.0000
  C   C1264     1.0  0.64975  0.79789  0.52187  1.0000
  H   H1011     1.0  0.50593  0.89065  0.48164  1.0000
  P   P42       1.0  0.91849  0.49684  0.46506  1.0000
  P   P43       1.0  0.73511  0.95070  0.63430  1.0000
  H   H1012     1.0  0.97508  0.77682  0.61788  1.0000
  C   C1265     1.0  0.90870  0.50683  0.43191  1.0000
  C   C1266     1.0  0.53927  0.86643  0.36822  1.0000
  C   C1267     1.0  0.55088  0.87863  0.34128  1.0000
  C   C1268     1.0  0.93208  0.52813  0.41351  1.0000
  C   C1269     1.0  0.95540  0.52764  0.47785  1.0000
  C   C1270     1.0  0.51205  0.88823  0.41025  1.0000
  C   C1271     1.0  0.67214  0.51283  0.45111  1.0000
  S   S171      1.0  0.49413  0.76912  0.52764  1.0000
  C   C1272     1.0  0.52930  0.93111  0.45487  1.0000
  C   C1273     1.0  0.53807  0.94184  0.42729  1.0000
  C   C1274     1.0  0.52967  0.92048  0.40506  1.0000
  C   C1275     1.0  0.61365  0.74669  0.54123  1.0000
  H   H1013     1.0  0.76435  0.69974  0.64943  1.0000
  C   C1276     1.0  0.69775  0.53325  0.43440  1.0000
  C   C1277     1.0  0.61007  0.65219  0.53392  1.0000
  C   C1278     1.0  0.50063  0.70655  0.59749  1.0000
  H   H1014     1.0  0.81936  0.56380  0.32710  1.0000
  C   C1279     1.0  0.97944  0.68634  0.59836  1.0000
  H   H1015     1.0  0.79924  0.67381  0.57696  1.0000
  C   C1280     1.0  0.75782  0.95222  0.57969  1.0000
  H   H1016     1.0  0.96880  0.67886  0.57793  1.0000
  C   C1281     1.0  0.87160  0.77403  0.56337  1.0000
  C   C1282     1.0  0.61116  0.74763  0.32897  1.0000
  C   C1283     1.0  0.70139  0.52448  0.40716  1.0000
  H   H1017     1.0  0.87048  0.62321  0.54798  1.0000
  C   C1284     1.0  0.69545  0.93122  0.64787  1.0000
  C   C1285     1.0  0.95201  0.75639  0.61994  1.0000
  C   C1286     1.0  0.59064  0.73349  0.35172  1.0000
  H   H1018     1.0  0.53697  0.92906  0.38382  1.0000
  H   H1019     1.0  0.87731  0.52366  0.47363  1.0000
  C   C1287     1.0  0.88025  0.75141  0.55741  1.0000
  H   H1020     1.0  0.68615  0.73393  0.62844  1.0000
  H   H1021     1.0  0.60382  0.74872  0.47059  1.0000
  C   C1288     1.0  0.62418  0.73588  0.59983  1.0000
  H   H1022     1.0  0.64812  0.82460  0.37669  1.0000
  H   H1023     1.0  0.49148  0.85294  0.44288  1.0000
  P   P44       1.0  0.86760  0.71785  0.57988  1.0000
  H   H1024     1.0  0.76183  0.82385  0.32771  1.0000
  H   H1025     1.0  0.74175  0.97205  0.51636  1.0000
  H   H1026     1.0  0.94763  0.68940  0.33081  1.0000
  H   H1027     1.0  0.88605  0.52760  0.36075  1.0000
  C   C1289     1.0  0.89903  0.75506  0.53356  1.0000
  C   C1290     1.0  0.58895  0.80417  0.33112  1.0000
  C   C1291     1.0  0.77529  0.78859  0.32460  1.0000
  H   H1028     1.0  0.70526  0.98080  0.54660  1.0000
  H   H1029     1.0  0.56214  0.70317  0.62434  1.0000
  C   C1292     1.0  0.91562  0.70958  0.64520  1.0000
  C   C1293     1.0  0.54844  0.70697  0.60902  1.0000
  C   C1294     1.0  0.89238  0.70393  0.62587  1.0000
  C   C1295     1.0  0.80384  0.68923  0.59474  1.0000
  H   H1030     1.0  0.66755  0.82205  0.52500  1.0000
  H   H1031     1.0  0.63456  0.70233  0.53493  1.0000
  H   H1032     1.0  0.67356  0.91021  0.60821  1.0000
  C   C1296     1.0  0.83950  0.73067  0.62558  1.0000
  H   H1033     1.0  0.75187  0.50078  0.36461  1.0000
  H   H1034     1.0  0.50455  0.80275  0.37404  1.0000
  C   C1297     1.0  0.56005  0.71639  0.58149  1.0000
  C   C1298     1.0  0.51237  0.89905  0.46023  1.0000
  C   C1299     1.0  0.92884  0.75075  0.60045  1.0000
  H   H1035     1.0  0.82956  0.69472  0.52956  1.0000
  C   C1300     1.0  0.58386  0.62464  0.54323  1.0000
  C   C1301     1.0  0.74992  0.92529  0.64385  1.0000
  H   H1036     1.0  0.53787  0.88502  0.32749  1.0000
  C   C1302     1.0  0.58705  0.86524  0.37688  1.0000
  H   H1037     1.0  0.62722  0.65107  0.52009  1.0000
  H   H1038     1.0  0.93446  0.76718  0.58349  1.0000
  H   H1039     1.0  0.60112  0.86018  0.39072  1.0000
  C   C1303     1.0  0.63754  0.78746  0.49511  1.0000
  C   C1304     1.0  0.70443  0.54199  0.34027  1.0000
  C   C1305     1.0  0.94531  0.73595  0.64243  1.0000
  H   H1040     1.0  0.77590  0.95450  0.53760  1.0000
  H   H1041     1.0  0.59977  0.73568  0.37266  1.0000
  P   P45       1.0  0.59736  0.72043  0.57085  1.0000
  C   C1306     1.0  0.66822  0.74019  0.62569  1.0000
  C   C1307     1.0  0.86925  0.49940  0.39815  1.0000
  H   H1042     1.0  0.49729  0.71807  0.55472  1.0000
  C   C1308     1.0  0.90893  0.78087  0.51591  1.0000
  C   C1309     1.0  0.97605  0.52064  0.49166  1.0000
  H   H1043     1.0  0.51056  0.69585  0.63846  1.0000
  C   C1310     1.0  0.67002  0.91305  0.63033  1.0000
  H   H1044     1.0  0.75381  0.50761  0.57997  1.0000
  C   C1311     1.0  0.85773  0.68460  0.55721  1.0000
  C   C1312     1.0  0.83874  0.67935  0.53379  1.0000
  H   H1045     1.0  0.55030  0.78909  0.64203  1.0000
  C   C1313     1.0  0.61412  0.68119  0.54235  1.0000
  C   C1314     1.0  0.77862  0.68506  0.61185  1.0000
  H   H1046     1.0  0.90600  0.73790  0.52859  1.0000
  S   S172      1.0  0.80532  0.64022  0.64463  1.0000
  H   H1047     1.0  0.54944  0.85095  0.40703  1.0000
  H   H1048     1.0  0.75516  0.66661  0.60711  1.0000
  H   H1049     1.0  0.61997  0.88314  0.62803  1.0000
  C   C1315     1.0  0.83452  0.71207  0.60150  1.0000
  H   H1050     1.0  0.70238  0.97157  0.59776  1.0000
  C   C1316     1.0  0.74038  0.96772  0.53878  1.0000
  H   H1051     1.0  0.77337  0.94523  0.58868  1.0000
  H   H1052     1.0  0.84142  0.51924  0.51240  1.0000
  H   H1053     1.0  0.66996  0.51907  0.47263  1.0000
  C   C1317     1.0  0.86208  0.63926  0.54384  1.0000
  H   H1054     1.0  0.81604  0.64964  0.49808  1.0000
  C   C1318     1.0  0.75953  0.95772  0.55074  1.0000
  C   C1319     1.0  0.86928  0.66426  0.56213  1.0000
  C   C1320     1.0  0.62452  0.81537  0.36926  1.0000
  H   H1055     1.0  0.83636  0.61382  0.50738  1.0000
  C   C1321     1.0  0.59195  0.68284  0.56021  1.0000
  H   H1056     1.0  0.88357  0.66724  0.58009  1.0000
  H   H1057     1.0  0.90783  0.82321  0.50825  1.0000
  H   H1058     1.0  0.93546  0.66175  0.62115  1.0000
  C   C1322     1.0  0.90022  0.80325  0.52197  1.0000
  C   C1323     1.0  0.55834  0.71810  0.34770  1.0000
  H   H1059     1.0  0.91202  0.90928  0.34184  1.0000
  C   C1324     1.0  0.89874  0.72451  0.60339  1.0000
  C   C1325     1.0  0.56569  0.65505  0.56950  1.0000
  H   H1060     1.0  0.58068  0.60218  0.53660  1.0000
  C   C1326     1.0  0.62256  0.75713  0.61867  1.0000
  H   H1061     1.0  0.58300  0.71256  0.51087  1.0000
  C   C1327     1.0  0.56169  0.62609  0.56099  1.0000
  C   C1328     1.0  0.96252  0.71271  0.32255  1.0000
  C   C1329     1.0  0.60068  0.81512  0.63885  1.0000
  C   C1330     1.0  0.55774  0.86006  0.38604  1.0000
  C   C1331     1.0  0.73642  0.95607  0.59677  1.0000
  C   C1332     1.0  0.88159  0.79984  0.54569  1.0000
  H   H1062     1.0  0.80724  0.64395  0.33066  1.0000
  C   C1333     1.0  0.63954  0.89747  0.64151  1.0000
  H   H1063     1.0  0.74241  0.85475  0.62598  1.0000
  H   H1064     1.0  0.62042  0.87951  0.34251  1.0000
  C   C1334     1.0  0.89247  0.52146  0.38035  1.0000
  C   C1335     1.0  0.61967  0.81616  0.34022  1.0000
  H   H1065     1.0  0.54128  0.60472  0.56809  1.0000
  C   C1336     1.0  0.51904  0.70250  0.61707  1.0000
  C   C1337     1.0  0.74059  0.89744  0.62881  1.0000
  C   C1338     1.0  0.66627  0.76122  0.64438  1.0000
  H   H1066     1.0  0.71542  0.55552  0.44283  1.0000
  H   H1067     1.0  0.84570  0.61209  0.63819  1.0000
  H   H1068     1.0  0.92328  0.78344  0.49746  1.0000
  H   H1069     1.0  0.72033  0.58832  0.32431  1.0000
  H   H1070     1.0  0.68891  0.54359  0.35576  1.0000
  H   H1071     1.0  0.55159  0.96670  0.42319  1.0000
  C   C1339     1.0  0.81478  0.60491  0.32526  1.0000
  C   C1340     1.0  0.57996  0.88310  0.33198  1.0000
  C   C1341     1.0  0.59798  0.87631  0.34975  1.0000
  Fe  Fe86      1.0  0.88916  0.70163  0.72064  1.0000
  S   S173      1.0  0.85648  0.64976  0.71481  1.0000
  S   S174      1.0  0.94137  0.71532  0.71813  1.0000
  Fe  Fe87      1.0  0.83321  0.71337  0.72761  1.0000
  S   S175      1.0  0.79758  0.66243  0.72245  1.0000
  S   S176      1.0  0.82321  0.75342  0.73788  1.0000
  Fe  Fe88      1.0  0.82797  0.65306  0.75110  1.0000
  S   S177      1.0  0.80863  0.61281  0.78309  1.0000
  Fe  Fe89      1.0  0.82862  0.66248  0.68669  1.0000
  S   S178      1.0  0.54104  0.74884  0.97402  1.0000
  S   S179      1.0  0.86207  0.70393  0.75864  1.0000
  S   S180      1.0  0.86272  0.71436  0.69026  1.0000
  Fe  Fe90      1.0  0.64675  0.83479  0.70650  1.0000
  S   S181      1.0  0.69815  0.85912  0.69572  1.0000
  C   C1342     1.0  0.94747  0.75245  0.79046  1.0000
  Fe  Fe91      1.0  0.65828  0.82993  0.76978  1.0000
  S   S182      1.0  0.71078  0.85386  0.76252  1.0000
  S   S183      1.0  0.63738  0.80623  0.81273  1.0000
  Fe  Fe92      1.0  0.70495  0.88790  0.73521  1.0000
  S   S184      1.0  0.74498  0.93954  0.73679  1.0000
  Fe  Fe93      1.0  0.70113  0.82404  0.72376  1.0000
  S   S185      1.0  0.72246  0.79451  0.70670  1.0000
  S   S186      1.0  0.65290  0.86550  0.74467  1.0000
  S   S187      1.0  0.64908  0.79810  0.73237  1.0000
  C   C1343     1.0  0.76812  0.93140  0.66792  1.0000
  H   H1072     1.0  0.89686  0.60200  0.96447  1.0000
  Fe  Fe94      1.0  0.76567  0.54710  0.94559  1.0000
  S   S188      1.0  0.77730  0.58769  0.91520  1.0000
  C   C1344     1.0  0.88611  0.66018  0.82441  1.0000
  Fe  Fe95      1.0  0.52640  0.77955  0.95243  1.0000
  S   S189      1.0  0.54573  0.80708  0.91100  1.0000
  H   H1073     1.0  0.76986  0.72713  0.69898  1.0000
  C   C1345     1.0  0.61167  0.80693  0.83965  1.0000
  C   C1346     1.0  0.60431  0.78723  0.86321  1.0000
  C   C1347     1.0  0.58425  0.78686  0.88513  1.0000
  C   C1348     1.0  0.57116  0.80627  0.88388  1.0000
  C   C1349     1.0  0.57851  0.82597  0.86034  1.0000
  C   C1350     1.0  0.59854  0.82631  0.83840  1.0000
  H   H1074     1.0  0.61424  0.77211  0.86453  1.0000
  H   H1075     1.0  0.57897  0.77156  0.90298  1.0000
  H   H1076     1.0  0.56868  0.84118  0.85905  1.0000
  H   H1077     1.0  0.60391  0.84165  0.82056  1.0000
  C   C1351     1.0  0.75204  0.97889  0.73797  1.0000
  H   H1078     1.0  0.70379  0.96723  0.73937  1.0000
  C   C1352     1.0  0.67162  0.72906  0.74775  1.0000
  C   C1353     1.0  0.97879  0.75002  0.72085  1.0000
  H   H1079     1.0  0.88605  0.50974  0.90248  1.0000
  C   C1354     1.0  0.76359  0.80627  0.80884  1.0000
  H   H1080     1.0  0.96175  0.78235  0.72291  1.0000
  C   C1355     1.0  0.69004  0.93249  0.67677  1.0000
  C   C1356     1.0  0.80076  0.60684  0.82006  1.0000
  C   C1357     1.0  0.79048  0.57688  0.83117  1.0000
  C   C1358     1.0  0.78370  0.57067  0.86017  1.0000
  C   C1359     1.0  0.78691  0.59438  0.87855  1.0000
  C   C1360     1.0  0.79753  0.62448  0.86751  1.0000
  C   C1361     1.0  0.80457  0.63075  0.83852  1.0000
  H   H1081     1.0  0.78756  0.55822  0.81716  1.0000
  H   H1082     1.0  0.77548  0.54741  0.86819  1.0000
  H   H1083     1.0  0.80018  0.64303  0.88150  1.0000
  H   H1084     1.0  0.81278  0.65397  0.83044  1.0000
  C   C1362     1.0  0.79436  0.76376  0.72921  1.0000
  C   C1363     1.0  0.79503  0.78960  0.74281  1.0000
  C   C1364     1.0  0.77286  0.79887  0.73678  1.0000
  C   C1365     1.0  0.74974  0.78259  0.71682  1.0000
  C   C1366     1.0  0.74900  0.75667  0.70327  1.0000
  C   C1367     1.0  0.77097  0.74718  0.70950  1.0000
  H   H1085     1.0  0.81294  0.80268  0.75807  1.0000
  H   H1086     1.0  0.77401  0.81900  0.74719  1.0000
  H   H1087     1.0  0.73127  0.74382  0.68779  1.0000
  H   H1088     1.0  0.67501  0.75008  0.75816  1.0000
  H   H1089     1.0  0.70116  0.81691  0.81989  1.0000
  C   C1368     1.0  0.95862  0.78441  0.79505  1.0000
  H   H1090     1.0  0.68257  0.77117  0.66147  1.0000
  C   C1369     1.0  0.74688  0.82170  0.81477  1.0000
  C   C1370     1.0  0.65618  0.69668  0.70588  1.0000
  H   H1091     1.0  0.68002  0.66517  0.75603  1.0000
  H   H1092     1.0  0.70947  0.94527  0.69077  1.0000
  H   H1093     1.0  0.65568  0.91775  0.71029  1.0000
  H   H1094     1.0  0.59041  0.87120  0.94030  1.0000
  C   C1371     1.0  0.89919  0.67805  0.84857  1.0000
  H   H1095     1.0  0.60876  0.83311  0.94321  1.0000
  C   C1372     1.0  0.97002  0.86112  0.85994  1.0000
  C   C1373     1.0  0.87643  0.61367  0.84942  1.0000
  C   C1374     1.0  0.88907  0.63141  0.87392  1.0000
  C   C1375     1.0  0.90072  0.66377  0.87323  1.0000
  P   P46       1.0  0.89442  0.61412  0.90500  1.0000
  C   C1376     1.0  0.87425  0.57216  0.90163  1.0000
  C   C1377     1.0  0.93624  0.63056  0.90743  1.0000
  C   C1378     1.0  0.95266  0.62574  0.88531  1.0000
  H   H1096     1.0  0.96420  0.81637  0.84844  1.0000
  C   C1379     1.0  0.89023  0.55535  0.90323  1.0000
  C   C1380     1.0  0.87382  0.52276  0.90097  1.0000
  C   C1381     1.0  0.96026  0.83515  0.84227  1.0000
  C   C1382     1.0  0.96815  0.74083  0.78981  1.0000
  C   C1383     1.0  0.84163  0.55587  0.89862  1.0000
  C   C1384     1.0  0.87709  0.62118  0.93599  1.0000
  C   C1385     1.0  0.85604  0.63233  0.93376  1.0000
  C   C1386     1.0  0.84080  0.63520  0.95777  1.0000
  C   C1387     1.0  0.96464  0.88533  0.85258  1.0000
  H   H1097     1.0  0.76114  0.76288  0.79846  1.0000
  C   C1388     1.0  0.88205  0.61225  0.96247  1.0000
  C   C1389     1.0  0.66071  0.69746  0.82066  1.0000
  C   C1390     1.0  0.75964  0.68979  0.78176  1.0000
  C   C1391     1.0  0.71842  0.69860  0.80044  1.0000
  H   H1098     1.0  0.86775  0.58878  0.84899  1.0000
  H   H1099     1.0  0.91126  0.67794  0.89172  1.0000
  H   H1100     1.0  0.94026  0.61173  0.86724  1.0000
  H   H1101     1.0  0.86472  0.61420  0.80607  1.0000
  H   H1102     1.0  0.91514  0.56708  0.90670  1.0000
  H   H1103     1.0  0.92299  0.73659  0.78645  1.0000
  H   H1104     1.0  0.64774  0.69250  0.68453  1.0000
  C   C1392     1.0  0.93955  0.85758  0.80990  1.0000
  H   H1105     1.0  0.82873  0.56835  0.89836  1.0000
  H   H1106     1.0  0.85009  0.63739  0.91345  1.0000
  H   H1107     1.0  0.82357  0.64254  0.95572  1.0000
  H   H1108     1.0  0.78892  0.81932  0.80793  1.0000
  H   H1109     1.0  0.65487  0.73948  0.71030  1.0000
  H   H1110     1.0  0.94123  0.65514  0.94684  1.0000
  C   C1393     1.0  0.63814  0.69492  0.86717  1.0000
  P   P47       1.0  0.69367  0.71566  0.79647  1.0000
  H   H1111     1.0  0.93654  0.83412  0.67981  1.0000
  H   H1112     1.0  0.66057  0.65549  0.70758  1.0000
  S   S190      1.0  0.80487  0.54332  0.96505  1.0000
  C   C1394     1.0  0.60957  0.66999  0.85844  1.0000
  H   H1113     1.0  0.58438  0.63925  0.82421  1.0000
  C   C1395     1.0  0.71420  0.80496  0.81547  1.0000
  H   H1114     1.0  0.77405  0.95171  0.68090  1.0000
  C   C1396     1.0  0.84142  0.50678  0.89748  1.0000
  H   H1115     1.0  0.89079  0.78550  0.69804  1.0000
  C   C1397     1.0  0.87498  0.62806  0.82482  1.0000
  H   H1116     1.0  0.76932  0.65883  0.80554  1.0000
  C   C1398     1.0  0.98552  0.66302  0.93104  1.0000
  C   C1399     1.0  0.94930  0.88349  0.82763  1.0000
  H   H1117     1.0  0.77707  0.69392  0.76559  1.0000
  H   H1118     1.0  0.88905  0.76983  0.74702  1.0000
  H   H1119     1.0  0.67280  0.76055  0.81013  1.0000
  H   H1120     1.0  0.88442  0.67101  0.80533  1.0000
  C   C1400     1.0  0.73317  0.66528  0.82538  1.0000
  H   H1121     1.0  0.69747  0.67503  0.83986  1.0000
  C   C1401     1.0  0.86009  0.72896  0.83894  1.0000
  C   C1402     1.0  0.83382  0.72963  0.82941  1.0000
  C   C1403     1.0  0.83742  0.75206  0.80980  1.0000
  C   C1404     1.0  0.86720  0.77344  0.79926  1.0000
  C   C1405     1.0  0.89354  0.77188  0.80759  1.0000
  C   C1406     1.0  0.88990  0.75039  0.82845  1.0000
  P   P48       1.0  0.93217  0.79974  0.79442  1.0000
  H   H1122     1.0  0.80003  0.51086  0.89498  1.0000
  C   C1407     1.0  0.93284  0.81071  0.75822  1.0000
  C   C1408     1.0  0.95882  0.83800  0.74771  1.0000
  C   C1409     1.0  0.96014  0.84641  0.71953  1.0000
  C   C1410     1.0  0.93558  0.82761  0.70162  1.0000
  C   C1411     1.0  0.90989  0.80021  0.71183  1.0000
  C   C1412     1.0  0.90874  0.79154  0.73988  1.0000
  C   C1413     1.0  0.82530  0.52331  0.89653  1.0000
  H   H1123     1.0  0.92723  0.85626  0.79086  1.0000
  C   C1414     1.0  0.69818  0.77289  0.80990  1.0000
  C   C1415     1.0  0.60827  0.84564  0.96194  1.0000
  H   H1124     1.0  0.50375  0.83250  0.92403  1.0000
  C   C1416     1.0  0.94547  0.83350  0.81689  1.0000
  C   C1417     1.0  0.60655  0.65856  0.83097  1.0000
  C   C1418     1.0  0.77756  0.91040  0.67638  1.0000
  H   H1125     1.0  0.97826  0.85257  0.76120  1.0000
  C   C1419     1.0  0.67474  0.68166  0.74630  1.0000
  H   H1126     1.0  0.58665  0.89810  0.98323  1.0000
  H   H1127     1.0  0.85726  0.71179  0.85444  1.0000
  H   H1128     1.0  0.81071  0.71291  0.83736  1.0000
  H   H1129     1.0  0.81709  0.75266  0.80236  1.0000
  H   H1130     1.0  0.86944  0.79079  0.78425  1.0000
  H   H1131     1.0  0.91010  0.75021  0.83659  1.0000
  C   C1420     1.0  0.84632  0.62684  0.98411  1.0000
  C   C1421     1.0  0.63434  0.89919  0.67029  1.0000
  H   H1132     1.0  0.97215  0.90542  0.86631  1.0000
  S   S191      1.0  0.60513  0.81776  0.67625  1.0000
  H   H1133     1.0  0.94479  0.90208  0.82207  1.0000
  C   C1422     1.0  0.72786  0.98599  0.73897  1.0000
  C   C1423     1.0  0.74119  0.70382  0.77974  1.0000
  C   C1424     1.0  0.74764  0.77413  0.80338  1.0000
  C   C1425     1.0  0.67920  0.70847  0.76091  1.0000
  H   H1134     1.0  0.98034  0.86738  0.71153  1.0000
  C   C1426     1.0  0.75542  0.67024  0.80439  1.0000
  H   H1135     1.0  0.61082  0.88607  0.67905  1.0000
  H   H1136     1.0  0.81826  0.74041  0.66151  1.0000
  H   H1137     1.0  0.62910  0.66308  0.79092  1.0000
  C   C1427     1.0  0.95299  0.64983  0.93008  1.0000
  H   H1138     1.0  0.68565  0.72783  0.85556  1.0000
  C   C1428     1.0  0.66347  0.67594  0.71884  1.0000
  H   H1139     1.0  0.72996  0.65010  0.84293  1.0000
  H   H1140     1.0  0.90836  0.70298  0.84813  1.0000
  C   C1429     1.0  0.71476  0.67948  0.82352  1.0000
  C   C1430     1.0  0.63201  0.67220  0.81212  1.0000
  H   H1141     1.0  0.58975  0.65962  0.87295  1.0000
  H   H1142     1.0  0.75916  0.84669  0.81850  1.0000
  C   C1431     1.0  0.66367  0.70852  0.84843  1.0000
  H   H1143     1.0  0.64044  0.70389  0.88843  1.0000
  C   C1432     1.0  0.66004  0.72306  0.72041  1.0000
  H   H1144     1.0  0.74438  0.71848  0.76182  1.0000
  C   C1433     1.0  0.71477  0.75718  0.80371  1.0000
  H   H1145     1.0  0.95964  0.67911  0.66800  1.0000
  C   C1434     1.0  0.65959  0.91679  0.68790  1.0000
  H   H1146     1.0  0.95946  0.71630  0.78537  1.0000
  C   C1435     1.0  0.98227  0.77984  0.72311  1.0000
  C   C1436     1.0  0.59596  0.88244  0.98466  1.0000
  H   H1147     1.0  0.98165  0.86241  0.87942  1.0000
  H   H1148     1.0  0.91037  0.69379  0.66274  1.0000
  C   C1437     1.0  0.59795  0.86725  0.96033  1.0000
  C   C1438     1.0  0.98518  0.63898  0.88632  1.0000
  H   H1149     1.0  0.79067  0.91483  0.69556  1.0000
  H   H1150     1.0  0.96300  0.74057  0.65789  1.0000
  C   C1439     1.0  0.76868  0.88300  0.66104  1.0000
  Fe  Fe96      1.0  0.71680  0.49494  0.98438  1.0000
  S   S192      1.0  0.73475  0.49487  0.94052  1.0000
  H   H1151     1.0  0.77506  0.86620  0.66825  1.0000
  H   H1152     1.0  0.64194  0.78600  0.65544  1.0000
  C   C1440     1.0  0.86703  0.61547  0.98646  1.0000
