data_image0
_chemical_formula_structural       S2FeSFeS3FeSFeSC6H4C7HC3H2SFeSFeS3C4HCHCPHC6H4C3HCH3C2HCH6CSC3HC3HCPC4H2CH2C3H3C3H2C3HCH3C4HCHC3PC3HC7PC2HC8HCH2CH6CH3CH2CH2CHCHCHC8HCH2CHCH2FeH2SHCHC3HPC2H4C4HC6H2C2H2C3H3CH2CH2SH2C2H4CH2CH3CHC2H2C2HC2HSCSH2C2HCH2SCHSCFeCHSFeHCHCH2SHCSC2HCHSC6SCSFeHCHC3HCHCHCFeCFeC5HCHC3PCH3C2H3CHC2H2CHCH2C3HC3HCHPC2H2C2HCHC2SC2HC3H6C2H2CSH3CHSFeSH4C2HCHC2HCH2C3H2SCH2FeH2C2FeCPHCHSCHC3FeHC2HCHC2H2FeS2HCSH3CHC2HC6HCH3CHC5HCHPHCH4CHC2HC2SC5H3CHCH5CHCHCHC2HCHCHC3H4C6PC8H2C4H2CHC4H3C2H2CHCH3CH3CHFeH2C2SCFeS2C6H4C3HCHC3H3CH2CHC2PC5H2C2H2C3H2C2H3CH2CH2CH2CHC2HCHCHC3SCH3SHCHC2SHCHC2H2CSFeHCSH2C2Fe2CH2C2FeS2FeS2FeSFeSHC3H2C2HCH2C2HC6PC7H6CH3CH2C2H2C2H2C4HC3HCH2C2HCHC2HC3HC2HCSH4CH4CH5C5H2PHC7HSC6HCHCH2SH2CH2CH3CH3C2H4CH2CHSC2H2FeCHCHSCSC3HC5PC5HCHC2HCH2SH2C2FeCH2C2SFeCSH2CS2H3FeS2FeS2FeSFeS3C4HC3H2C2HC3H4C6H4C6PC5HC3SCHC6H6CPH3CHCHCH4C2FeC2HCHCHC4HCH4C2HCHC3HC2H4CPFeC4HC6H2C3H4CHCHCH4CHPC4H3C2HC3HC4H3CH2CSCSFeS2FeS2FeSFeS3CHCH2C3H2C3HCH2C6H5C3H2C2H2C2HC2HC3PC2H2CHC3HC2HCH2FeH3CH5C6PHC4H3CHCH4CHC8H3C2HCPC8H3C2H3C3H2CH4CH3CHC4PC5HCH8C2HSCH2C2HSHFeSCFePCFeSFeS2FeS2FeSFeS3CFeC2HPCH2C3SH3C2SCHC8H4CH3CHC2HSHCHC4HC2HCH3C4H2CHC2HCHC2H2CH4C4H3C5H4CHCHSC2H2C3H2CHC4SC6H2C2H4CHCHCFeCH2CHCH2C2HPH2CHC3SCHC2H3SCH8C6H2CH5SH2FeH2C7PC3H2C13H4CHCH13C3SPC14H2C4H3SCH3CHC2FeHSFeSFeCS2CHCSC2H2C6H4C2HCHC4H2C2HCH3C3H2CH2C2HS2C2HCHCH2CH3C3HCHC6H2C2H2PC4HC2HC2HC3H6CH3CFeCSFeS2FeS2FeSFeS4CSFeSFeSC2H5C5HC6H4C3H2C6H4C7H2C2HC3H3CH5FeCH3CHCHCSC4H5CPHCHCHC3HCPHSHC2H2C2H2CHCHC5H2CH2C6HC3HCH2CHC5PHC5HC2HC2H2CH3C5SH2C3HC6H3CH2CH2CFeH4CHCH3CHCHCH3C2HCPH4CH3FeSCFeS2FeS2FeSFeS4HSFeSFeSHCHSHSC4HC6H9C6H5C2HCHC6PC3HC3SCHC4HC3H5CHCHCH3C3H2C6H2C2HC2HC2PC2H3C2HCH2C3HC2H2CHFe2H2C2HPHC6H2C2H2C6PH4C6HCH3CSCHFeH3C2HC3H3CH2C2SCH3C6SC2H2CH3
_chemical_formula_sum              "S144 Fe72 C1080 H864 P36"
_cell_length_a       51.4318
_cell_length_b       51.1572
_cell_length_c       35.891
_cell_angle_alpha    91.0671
_cell_angle_beta     87.2779
_cell_angle_gamma    119.41

_space_group_name_H-M_alt    "P 1"
_space_group_IT_number       1

loop_
  _space_group_symop_operation_xyz
  'x, y, z'

loop_
  _atom_site_type_symbol
  _atom_site_label
  _atom_site_symmetry_multiplicity
  _atom_site_fract_x
  _atom_site_fract_y
  _atom_site_fract_z
  _atom_site_occupancy
  S   S1        1.0  0.15053  0.27588  0.22096  1.0000
  S   S2        1.0  0.11889  0.24857  0.30241  1.0000
  Fe  Fe1       1.0  0.16360  0.26287  0.27371  1.0000
  S   S3        1.0  0.17476  0.22550  0.28216  1.0000
  Fe  Fe2       1.0  0.10735  0.26517  0.25207  1.0000
  S   S4        1.0  0.06524  0.23697  0.22012  1.0000
  S   S5        1.0  0.29283  0.14794  0.21405  1.0000
  S   S6        1.0  0.28080  0.14608  0.30551  1.0000
  Fe  Fe3       1.0  0.27548  0.11304  0.25993  1.0000
  S   S7        1.0  0.23073  0.06974  0.25862  1.0000
  Fe  Fe4       1.0  0.30192  0.18118  0.26056  1.0000
  S   S8        1.0  0.29706  0.22303  0.25706  1.0000
  C   C1        1.0  0.26294  0.22339  0.26451  1.0000
  C   C2        1.0  0.26236  0.25022  0.25869  1.0000
  C   C3        1.0  0.23557  0.25133  0.26382  1.0000
  C   C4        1.0  0.20914  0.22558  0.27505  1.0000
  C   C5        1.0  0.20983  0.19887  0.28135  1.0000
  C   C6        1.0  0.23656  0.19771  0.27601  1.0000
  H   H1        1.0  0.28273  0.27021  0.24996  1.0000
  H   H2        1.0  0.23538  0.27205  0.25912  1.0000
  H   H3        1.0  0.18950  0.17886  0.29014  1.0000
  H   H4        1.0  0.23673  0.17696  0.28061  1.0000
  C   C7        1.0  0.35666  0.14474  0.01251  1.0000
  C   C8        1.0  0.22006  0.24505  0.36875  1.0000
  C   C9        1.0  0.24338  0.09561  0.04563  1.0000
  C   C10       1.0  0.14399  0.23100  0.41084  1.0000
  C   C11       1.0  0.22747  0.03371  0.26235  1.0000
  C   C12       1.0  0.25265  0.03002  0.26246  1.0000
  C   C13       1.0  0.29715  0.03733  0.36790  1.0000
  H   H5        1.0  0.27472  0.04948  0.26178  1.0000
  C   C14       1.0  0.02478  0.24490  0.26545  1.0000
  C   C15       1.0  0.02899  0.22847  0.23668  1.0000
  C   C16       1.0  0.00391  0.20570  0.21942  1.0000
  H   H6        1.0  0.04398  0.26268  0.27848  1.0000
  H   H7        1.0  0.00701  0.19297  0.19697  1.0000
  S   S9        1.0  0.44381  0.23750  0.03530  1.0000
  Fe  Fe5       1.0  0.33843  0.15388  0.22410  1.0000
  S   S10       1.0  0.37112  0.15399  0.17738  1.0000
  Fe  Fe6       1.0  0.32631  0.15114  0.31031  1.0000
  S   S11       1.0  0.34651  0.15218  0.36604  1.0000
  S   S12       1.0  0.32005  0.11626  0.26704  1.0000
  S   S13       1.0  0.34853  0.18898  0.26832  1.0000
  C   C17       1.0  0.32772  0.14766  0.41032  1.0000
  C   C18       1.0  0.34368  0.15237  0.44286  1.0000
  C   C19       1.0  0.01305  0.23269  0.36811  1.0000
  C   C20       1.0  0.34496  0.06381  0.31470  1.0000
  H   H8        1.0  0.32088  0.21228  0.45134  1.0000
  C   C21       1.0  0.29754  0.13980  0.41386  1.0000
  H   H9        1.0  0.36701  0.15840  0.44042  1.0000
  C   C22       1.0  0.98418  0.28219  0.20167  1.0000
  P   P1        1.0  0.04684  0.30610  0.09637  1.0000
  H   H10       1.0  0.28497  0.13610  0.38916  1.0000
  C   C23       1.0  0.42330  0.21359  0.07431  1.0000
  C   C24       1.0  0.41249  0.22498  0.10354  1.0000
  C   C25       1.0  0.39622  0.20713  0.13496  1.0000
  C   C26       1.0  0.39053  0.17749  0.13777  1.0000
  C   C27       1.0  0.40130  0.16609  0.10855  1.0000
  C   C28       1.0  0.41727  0.18384  0.07698  1.0000
  H   H11       1.0  0.41680  0.24787  0.10191  1.0000
  H   H12       1.0  0.38842  0.21644  0.15723  1.0000
  H   H13       1.0  0.39703  0.14322  0.11017  1.0000
  H   H14       1.0  0.42441  0.17427  0.05448  1.0000
  C   C29       1.0  0.12290  0.30008  0.07686  1.0000
  C   C30       1.0  0.22080  0.08487  0.01994  1.0000
  C   C31       1.0  0.06363  0.21004  0.45145  1.0000
  H   H15       1.0  0.27287  0.07552  0.36029  1.0000
  C   C32       1.0  0.03953  0.18871  0.31603  1.0000
  H   H16       1.0  0.13565  0.20496  0.36054  1.0000
  H   H17       1.0  0.09185  0.24810  0.14644  1.0000
  H   H18       1.0  0.17932  0.01073  0.26385  1.0000
  C   C33       1.0  0.24933  0.06076  0.36661  1.0000
  C   C34       1.0  0.29974  0.14212  0.48203  1.0000
  H   H19       1.0  0.25110  0.30929  0.48192  1.0000
  C   C35       1.0  0.47584  0.17131  0.13615  1.0000
  H   H20       1.0  0.05795  0.20356  0.33281  1.0000
  H   H21       1.0  0.32380  0.02108  0.28701  1.0000
  H   H22       1.0  0.31862  0.08106  0.39442  1.0000
  H   H23       1.0  0.01544  0.14493  0.38529  1.0000
  H   H24       1.0  0.19787  0.23554  0.35819  1.0000
  H   H25       1.0  0.14175  0.24871  0.39778  1.0000
  C   C36       1.0  0.02225  0.28686  0.05886  1.0000
  S   S14       1.0  0.12263  0.29566  0.38535  1.0000
  C   C37       1.0  0.15084  0.23313  0.44840  1.0000
  C   C38       1.0  0.26827  0.05379  0.46582  1.0000
  C   C39       1.0  0.21661  0.13210  0.38294  1.0000
  H   H26       1.0  0.21276  0.31387  0.99903  1.0000
  C   C40       1.0  0.30133  0.03265  0.46037  1.0000
  C   C41       1.0  0.15377  0.21028  0.46566  1.0000
  C   C42       1.0  0.18800  0.02345  0.38059  1.0000
  H   H27       1.0  0.05925  0.24729  0.35109  1.0000
  C   C43       1.0  0.05118  0.28442  0.35501  1.0000
  P   P2        1.0  0.00262  0.19342  0.37207  1.0000
  C   C44       1.0  0.19641  0.11681  0.41261  1.0000
  C   C45       1.0  0.04258  0.25397  0.35734  1.0000
  C   C46       1.0  0.00106  0.27311  0.37431  1.0000
  C   C47       1.0  0.24067  0.17695  0.42090  1.0000
  H   H28       1.0  0.14217  0.16514  0.38971  1.0000
  H   H29       1.0  0.24758  0.07975  0.06006  1.0000
  C   C48       1.0  0.14042  0.20627  0.38990  1.0000
  H   H30       1.0  0.15419  0.25291  0.46381  1.0000
  H   H31       1.0  0.15406  0.16841  0.45578  1.0000
  C   C49       1.0  0.46244  0.15409  0.01439  1.0000
  C   C50       1.0  0.04402  0.21289  0.42838  1.0000
  C   C51       1.0  0.32282  0.03391  0.31086  1.0000
  H   H32       1.0  0.19978  0.99448  0.40894  1.0000
  H   H33       1.0  0.29189  0.22897  0.34743  1.0000
  H   H34       1.0  0.07739  0.22839  0.46947  1.0000
  C   C52       1.0  0.02248  0.15817  0.26072  1.0000
  C   C53       1.0  0.09419  0.26477  0.12631  1.0000
  C   C54       1.0  0.03225  0.27703  0.02737  1.0000
  H   H35       1.0  0.26899  0.99841  0.26092  1.0000
  H   H36       1.0  0.25399  0.17344  0.36363  1.0000
  C   C55       1.0  0.34997  0.22051  0.40349  1.0000
  C   C56       1.0  0.37368  0.17531  0.00407  1.0000
  C   C57       1.0  0.25718  0.23919  0.40141  1.0000
  H   H37       1.0  0.36579  0.21703  0.41857  1.0000
  C   C58       1.0  0.21551  0.10494  0.00012  1.0000
  H   H38       1.0  0.05016  0.14021  0.42626  1.0000
  H   H39       1.0  0.36306  0.07425  0.29382  1.0000
  H   H40       1.0  0.36032  0.10382  0.34786  1.0000
  C   C59       1.0  0.02083  0.28214  0.47643  1.0000
  C   C60       1.0  0.36573  0.19556  0.02026  1.0000
  C   C61       1.0  0.00249  0.26688  0.14686  1.0000
  C   C62       1.0  0.13946  0.30225  0.42946  1.0000
  H   H41       1.0  0.02742  0.15038  0.23447  1.0000
  C   C63       1.0  0.30290  0.22091  0.40232  1.0000
  H   H42       1.0  0.04296  0.23351  0.42928  1.0000
  C   C64       1.0  0.30805  0.22701  0.36378  1.0000
  C   C65       1.0  0.04575  0.17787  0.28271  1.0000
  C   C66       1.0  0.00991  0.18006  0.32773  1.0000
  P   P3        1.0  0.26861  0.21594  0.42528  1.0000
  C   C67       1.0  0.11976  0.27854  0.10270  1.0000
  C   C68       1.0  0.27428  0.22595  0.47409  1.0000
  C   C69       1.0  0.32416  0.21768  0.42200  1.0000
  H   H43       1.0  0.33758  0.23430  0.31574  1.0000
  C   C70       1.0  0.99580  0.23901  0.27643  1.0000
  C   C71       1.0  0.31579  0.21195  0.15493  1.0000
  C   C72       1.0  0.28966  0.21375  0.16078  1.0000
  C   C73       1.0  0.26364  0.19337  0.14343  1.0000
  C   C74       1.0  0.26384  0.17150  0.11962  1.0000
  C   C75       1.0  0.29031  0.17026  0.11253  1.0000
  C   C76       1.0  0.31603  0.19008  0.13119  1.0000
  P   P4        1.0  0.29046  0.14092  0.08404  1.0000
  C   C77       1.0  0.28617  0.11238  0.11640  1.0000
  C   C78       1.0  0.26053  0.12656  0.05208  1.0000
  H   H44       1.0  0.14283  0.31097  0.05868  1.0000
  C   C79       1.0  0.15080  0.18581  0.44408  1.0000
  C   C80       1.0  0.25552  0.14662  0.03149  1.0000
  C   C81       1.0  0.25849  0.09474  0.13536  1.0000
  C   C82       1.0  0.25524  0.07347  0.16178  1.0000
  C   C83       1.0  0.27970  0.07007  0.16993  1.0000
  C   C84       1.0  0.30746  0.08804  0.15183  1.0000
  C   C85       1.0  0.31075  0.10922  0.12526  1.0000
  C   C86       1.0  0.32389  0.15472  0.05420  1.0000
  H   H45       1.0  0.33503  0.20149  0.05689  1.0000
  C   C87       1.0  0.29898  0.02070  0.33726  1.0000
  H   H46       1.0  0.23496  0.28811  0.34332  1.0000
  H   H47       1.0  0.28662  0.30980  0.36515  1.0000
  C   C88       1.0  0.12081  0.29340  0.46204  1.0000
  H   H48       1.0  0.33555  0.22688  0.16981  1.0000
  H   H49       1.0  0.28935  0.23034  0.17976  1.0000
  H   H50       1.0  0.24316  0.19413  0.14929  1.0000
  H   H51       1.0  0.24321  0.15528  0.10748  1.0000
  H   H52       1.0  0.33606  0.18815  0.12802  1.0000
  H   H53       1.0  0.09687  0.28174  0.45955  1.0000
  C   C89       1.0  0.33394  0.22991  0.34549  1.0000
  H   H54       1.0  0.98498  0.29067  0.08385  1.0000
  H   H55       1.0  0.23957  0.09781  0.13031  1.0000
  H   H56       1.0  0.23400  0.06022  0.17687  1.0000
  C   C90       1.0  0.21958  0.16179  0.45015  1.0000
  H   H57       1.0  0.32677  0.08637  0.15932  1.0000
  H   H58       1.0  0.33274  0.12377  0.11281  1.0000
  C   C91       1.0  0.27877  0.03680  0.44570  1.0000
  H   H59       1.0  0.30103  0.27862  0.40134  1.0000
  H   H60       1.0  0.36294  0.12912  0.99992  1.0000
  C   C92       1.0  0.24110  0.27477  0.36017  1.0000
  H   H61       1.0  0.18385  0.30702  0.14184  1.0000
  C   C93       1.0  0.07177  0.27262  0.12443  1.0000
  H   H62       1.0  0.46730  0.15508  0.11392  1.0000
  C   C94       1.0  0.23910  0.03367  0.38610  1.0000
  H   H63       1.0  0.23700  0.08900  0.33743  1.0000
  C   C95       1.0  0.19783  0.13170  0.44616  1.0000
  C   C96       1.0  0.06590  0.18389  0.45066  1.0000
  C   C97       1.0  0.23865  0.16201  0.38704  1.0000
  C   C98       1.0  0.07476  0.29437  0.09864  1.0000
  C   C99       1.0  0.31973  0.06733  0.37167  1.0000
  C   C100      1.0  0.28364  0.13691  0.44951  1.0000
  C   C101      1.0  0.35477  0.22643  0.36524  1.0000
  C   C102      1.0  0.34346  0.08044  0.34518  1.0000
  H   H64       1.0  0.31037  0.02039  0.44468  1.0000
  C   C103      1.0  0.22793  0.22728  0.38940  1.0000
  H   H65       1.0  0.37428  0.22756  0.35076  1.0000
  H   H66       1.0  0.17961  0.09352  0.40947  1.0000
  C   C104      1.0  0.27822  0.26918  0.39286  1.0000
  H   H67       1.0  0.21527  0.12088  0.35661  1.0000
  C   C105      1.0  0.33169  0.13442  0.03724  1.0000
  H   H68       1.0  0.06870  0.18527  0.27347  1.0000
  H   H69       1.0  0.21136  0.20414  0.39496  1.0000
  Fe  Fe7       1.0  0.13905  0.29543  0.32459  1.0000
  H   H70       1.0  0.25201  0.05860  0.45439  1.0000
  H   H71       1.0  0.20755  0.06096  0.01519  1.0000
  S   S15       1.0  0.12415  0.31144  0.27562  1.0000
  H   H72       1.0  0.27731  0.05406  0.19098  1.0000
  C   C106      1.0  0.02357  0.29695  0.13877  1.0000
  H   H73       1.0  0.13709  0.27246  0.10455  1.0000
  C   C107      1.0  0.22899  0.06878  0.35386  1.0000
  C   C108      1.0  0.19836  0.05001  0.36032  1.0000
  C   C109      1.0  0.02659  0.18955  0.40413  1.0000
  H   H74       1.0  0.00766  0.27730  0.45216  1.0000
  P   P5        1.0  0.26502  0.02193  0.40034  1.0000
  C   C110      1.0  0.23295  0.13581  0.00579  1.0000
  C   C111      1.0  0.19894  0.00808  0.26378  1.0000
  H   H75       1.0  0.05255  0.26182  0.14360  1.0000
  H   H76       1.0  0.44404  0.15406  0.00102  1.0000
  H   H77       1.0  0.37933  0.21931  0.01402  1.0000
  H   H78       1.0  0.05510  0.28927  0.20592  1.0000
  C   C112      1.0  0.98664  0.16008  0.30538  1.0000
  C   C113      1.0  0.20826  0.01536  0.39371  1.0000
  C   C114      1.0  0.14411  0.18385  0.40640  1.0000
  C   C115      1.0  0.03039  0.29398  0.36322  1.0000
  H   H79       1.0  0.08146  0.18187  0.46805  1.0000
  C   C116      1.0  0.99248  0.24266  0.37728  1.0000
  C   C117      1.0  0.27015  0.28690  0.37238  1.0000
  C   C118      1.0  0.17044  0.31715  0.43315  1.0000
  C   C119      1.0  0.46774  0.12999  0.00896  1.0000
  C   C120      1.0  0.05137  0.30297  0.47320  1.0000
  C   C121      1.0  0.10048  0.30786  0.07470  1.0000
  H   H80       1.0  0.99280  0.25257  0.29777  1.0000
  H   H81       1.0  0.18276  0.05581  0.34878  1.0000
  C   C122      1.0  0.02867  0.16317  0.40387  1.0000
  C   C123      1.0  0.04829  0.16041  0.42703  1.0000
  H   H82       1.0  0.31848  0.11062  0.04311  1.0000
  H   H83       1.0  0.26031  0.13088  0.45185  1.0000
  C   C124      1.0  0.99310  0.28277  0.06026  1.0000
  C   C125      1.0  0.34086  0.18536  0.04508  1.0000
  C   C126      1.0  0.24935  0.00103  0.26218  1.0000
  H   H84       1.0  0.39332  0.18351  0.98534  1.0000
  H   H85       1.0  0.16424  0.00874  0.38512  1.0000
  H   H86       1.0  0.07410  0.30052  0.34677  1.0000
  C   C127      1.0  0.32984  0.14981  0.47855  1.0000
  H   H87       1.0  0.26921  0.17062  0.03521  1.0000
  H   H88       1.0  0.00095  0.24898  0.12884  1.0000
  C   C128      1.0  0.46716  0.18765  0.19697  1.0000
  H   H89       1.0  0.21995  0.17301  0.47614  1.0000
  H   H90       1.0  0.27152  0.26674  0.46955  1.0000
  S   S16       1.0  0.18462  0.30950  0.29776  1.0000
  H   H91       1.0  0.05468  0.28024  0.02522  1.0000
  H   H92       1.0  0.21148  0.25793  0.46879  1.0000
  C   C129      1.0  0.98291  0.25961  0.17814  1.0000
  C   C130      1.0  0.99294  0.14915  0.27216  1.0000
  H   H93       1.0  0.28203  0.99771  0.33311  1.0000
  H   H94       1.0  0.19484  0.01895  0.47619  1.0000
  H   H95       1.0  0.43532  0.14720  0.17033  1.0000
  H   H96       1.0  0.98485  0.28044  0.38057  1.0000
  C   C131      1.0  0.06968  0.31172  0.21589  1.0000
  H   H97       1.0  0.18215  0.11994  0.46915  1.0000
  H   H98       1.0  0.45408  0.11193  0.99046  1.0000
  C   C132      1.0  0.00477  0.31221  0.19357  1.0000
  H   H99       1.0  0.31501  0.31384  0.02003  1.0000
  H   H100      1.0  0.45251  0.18424  0.22133  1.0000
  H   H101      1.0  0.03831  0.30943  0.25926  1.0000
  C   C133      1.0  0.45752  0.16664  0.16823  1.0000
  H   H102      1.0  0.06138  0.31412  0.44679  1.0000
  C   C134      1.0  0.98401  0.25822  0.00020  1.0000
  C   C135      1.0  0.01315  0.26272  0.99821  1.0000
  H   H103      1.0  0.22915  0.15140  0.99004  1.0000
  H   H104      1.0  0.03705  0.31755  0.36109  1.0000
  C   C136      1.0  0.01230  0.21202  0.65287  1.0000
  C   C137      1.0  0.01333  0.23910  0.64446  1.0000
  H   H105      1.0  0.03284  0.21165  0.65682  1.0000
  C   C138      1.0  0.16799  0.27910  0.76379  1.0000
  C   C139      1.0  0.02627  0.27278  0.54069  1.0000
  H   H106      1.0  0.19248  0.12849  0.56990  1.0000
  S   S17       1.0  0.28115  0.15371  0.69609  1.0000
  C   C140      1.0  0.20622  0.19213  0.65734  1.0000
  S   S18       1.0  0.04739  0.27343  0.63919  1.0000
  H   H107      1.0  0.05435  0.18749  0.59981  1.0000
  H   H108      1.0  0.25425  0.26682  0.64699  1.0000
  C   C141      1.0  0.15264  0.24818  0.75764  1.0000
  C   C142      1.0  0.19009  0.02087  0.57123  1.0000
  H   H109      1.0  0.22743  0.18284  0.57512  1.0000
  C   C143      1.0  0.15216  0.15521  0.52775  1.0000
  H   H110      1.0  0.14384  0.11066  0.54069  1.0000
  H   H111      1.0  0.08844  0.17054  0.62271  1.0000
  S   S19       1.0  0.11891  0.26565  0.60760  1.0000
  C   C144      1.0  0.07443  0.19200  0.58346  1.0000
  H   H112      1.0  0.27137  0.07871  0.51611  1.0000
  S   S20       1.0  0.26820  0.21945  0.65210  1.0000
  C   C145      1.0  0.17230  0.18617  0.52955  1.0000
  Fe  Fe8       1.0  0.14177  0.26322  0.65816  1.0000
  C   C146      1.0  0.28241  0.23575  0.75333  1.0000
  H   H113      1.0  0.13482  0.18213  0.58735  1.0000
  S   S21       1.0  0.21965  0.06742  0.67947  1.0000
  Fe  Fe9       1.0  0.25787  0.11269  0.65950  1.0000
  H   H114      1.0  0.15828  0.17234  0.66420  1.0000
  C   C147      1.0  0.21066  0.07064  0.54457  1.0000
  H   H115      1.0  0.26124  0.05278  0.63805  1.0000
  C   C148      1.0  0.17921  0.22043  0.65865  1.0000
  H   H116      1.0  0.21528  0.21958  0.54981  1.0000
  H   H117      1.0  0.22022  0.09465  0.54825  1.0000
  S   S22       1.0  0.14495  0.22069  0.66439  1.0000
  H   H118      1.0  0.20479  0.06127  0.60347  1.0000
  C   C149      1.0  0.20201  0.05181  0.57572  1.0000
  S   S23       1.0  0.29968  0.11847  0.62983  1.0000
  C   C150      1.0  0.23332  0.24612  0.65050  1.0000
  C   C151      1.0  0.20638  0.24698  0.65356  1.0000
  H   H119      1.0  0.15655  0.20875  0.74651  1.0000
  C   C152      1.0  0.17922  0.19300  0.66020  1.0000
  H   H120      1.0  0.20666  0.26820  0.65268  1.0000
  S   S24       1.0  0.24871  0.13780  0.61619  1.0000
  C   C153      1.0  0.24257  0.00483  0.64376  1.0000
  C   C154      1.0  0.23342  0.21877  0.65286  1.0000
  C   C155      1.0  0.08218  0.20910  0.55080  1.0000
  C   C156      1.0  0.19968  0.19596  0.54645  1.0000
  C   C157      1.0  0.24308  0.03235  0.64990  1.0000
  C   C158      1.0  0.25938  0.08442  0.75405  1.0000
  S   S25       1.0  0.28079  0.13839  0.52599  1.0000
  C   C159      1.0  0.19654  0.00637  0.68620  1.0000
  S   S26       1.0  0.11448  0.27604  0.69784  1.0000
  Fe  Fe10      1.0  0.27573  0.17912  0.64911  1.0000
  H   H121      1.0  0.17639  0.24972  0.58245  1.0000
  C   C160      1.0  0.15959  0.13447  0.54171  1.0000
  H   H122      1.0  0.20602  0.17095  0.65928  1.0000
  C   C161      1.0  0.18659  0.00848  0.53533  1.0000
  C   C162      1.0  0.19266  0.26235  0.56027  1.0000
  C   C163      1.0  0.12756  0.20542  0.54240  1.0000
  H   H123      1.0  0.25760  0.10381  0.74645  1.0000
  C   C164      1.0  0.09352  0.18231  0.59625  1.0000
  H   H124      1.0  0.12859  0.23646  0.75550  1.0000
  C   C165      1.0  0.16843  0.23253  0.75273  1.0000
  H   H125      1.0  0.21612  0.06275  0.78242  1.0000
  C   C166      1.0  0.20680  0.17515  0.56086  1.0000
  Fe  Fe11      1.0  0.29205  0.14611  0.58773  1.0000
  C   C167      1.0  0.23592  0.06122  0.77454  1.0000
  Fe  Fe12      1.0  0.09501  0.28254  0.64637  1.0000
  C   C168      1.0  0.11999  0.18903  0.57596  1.0000
  C   C169      1.0  0.18692  0.14445  0.55825  1.0000
  C   C170      1.0  0.22009  0.03330  0.67128  1.0000
  C   C171      1.0  0.23786  0.03596  0.78423  1.0000
  C   C172      1.0  0.26317  0.03382  0.77315  1.0000
  H   H126      1.0  0.17866  0.00686  0.70275  1.0000
  C   C173      1.0  0.19960  0.24774  0.75357  1.0000
  H   H127      1.0  0.21123  0.23519  0.74830  1.0000
  C   C174      1.0  0.10891  0.21629  0.53079  1.0000
  C   C175      1.0  0.19051  0.25024  0.52443  1.0000
  C   C176      1.0  0.27917  0.25952  0.52554  1.0000
  P   P6        1.0  0.16108  0.21281  0.51502  1.0000
  C   C177      1.0  0.21591  0.29109  0.56776  1.0000
  H   H128      1.0  0.27933  0.27957  0.53609  1.0000
  H   H129      1.0  0.06814  0.21797  0.54207  1.0000
  H   H130      1.0  0.28330  0.22062  0.73232  1.0000
  C   C178      1.0  0.28286  0.21500  0.53656  1.0000
  C   C179      1.0  0.28344  0.24109  0.54987  1.0000
  H   H131      1.0  0.28702  0.24688  0.57911  1.0000
  H   H132      1.0  0.26448  0.01443  0.78194  1.0000
  H   H133      1.0  0.26035  0.00431  0.62704  1.0000
  C   C180      1.0  0.28633  0.05654  0.75113  1.0000
  H   H134      1.0  0.18394  0.00685  0.59592  1.0000
  C   C181      1.0  0.21522  0.27881  0.75982  1.0000
  C   C182      1.0  0.13277  0.30020  0.49782  1.0000
  H   H135      1.0  0.21713  0.30053  0.59521  1.0000
  H   H136      1.0  0.11520  0.23089  0.50689  1.0000
  C   C183      1.0  0.00786  0.26757  0.51062  1.0000
  H   H137      1.0  0.01704  0.26076  0.56680  1.0000
  C   C184      1.0  0.23681  0.30809  0.53952  1.0000
  H   H138      1.0  0.11806  0.29369  0.52255  1.0000
  H   H139      1.0  0.28595  0.20053  0.55545  1.0000
  C   C185      1.0  0.19607  0.02769  0.50411  1.0000
  C   C186      1.0  0.98641  0.23919  0.63963  1.0000
  C   C187      1.0  0.29175  0.25620  0.81565  1.0000
  H   H140      1.0  0.13036  0.14718  0.51652  1.0000
  C   C188      1.0  0.28436  0.08204  0.74193  1.0000
  C   C189      1.0  0.26999  0.27454  0.77130  1.0000
  C   C190      1.0  0.27090  0.25450  0.74471  1.0000
  H   H141      1.0  0.26294  0.25352  0.71709  1.0000
  C   C191      1.0  0.29296  0.23667  0.78873  1.0000
  H   H142      1.0  0.23660  0.00298  0.53289  1.0000
  P   P7        1.0  0.25560  0.29912  0.75933  1.0000
  C   C192      1.0  0.05667  0.29385  0.53756  1.0000
  C   C193      1.0  0.28021  0.27501  0.80708  1.0000
  H   H143      1.0  0.07054  0.29818  0.56131  1.0000
  H   H144      1.0  0.21967  0.01798  0.80017  1.0000
  C   C194      1.0  0.19911  0.29433  0.76487  1.0000
  C   C195      1.0  0.98452  0.18540  0.65660  1.0000
  H   H145      1.0  0.98885  0.28881  0.57287  1.0000
  C   C196      1.0  0.29703  0.31797  0.69860  1.0000
  H   H146      1.0  0.98708  0.26015  0.63395  1.0000
  C   C197      1.0  0.28638  0.99258  0.72680  1.0000
  C   C198      1.0  0.98675  0.17104  0.51511  1.0000
  S   S27       1.0  0.18028  0.31026  0.65255  1.0000
  C   C199      1.0  0.98719  0.19794  0.50731  1.0000
  C   C200      1.0  0.27793  0.20727  0.49900  1.0000
  H   H147      1.0  0.30210  0.10017  0.72561  1.0000
  C   C201      1.0  0.39672  0.12381  0.80727  1.0000
  C   C202      1.0  0.31217  0.01615  0.74192  1.0000
  C   C203      1.0  0.20774  0.05863  0.50877  1.0000
  H   H148      1.0  0.98387  0.16460  0.66359  1.0000
  H   H149      1.0  0.27957  0.28997  0.82831  1.0000
  H   H150      1.0  0.30215  0.22228  0.79517  1.0000
  H   H151      1.0  0.02094  0.25503  0.97407  1.0000
  H   H152      1.0  0.27079  0.99709  0.71267  1.0000
  H   H153      1.0  0.15585  0.29144  0.76683  1.0000
  C   C204      1.0  0.26972  0.31470  0.71315  1.0000
  C   C205      1.0  0.27940  0.06548  0.50070  1.0000
  H   H154      1.0  0.29996  0.25684  0.84308  1.0000
  H   H155      1.0  0.23090  0.30518  0.83233  1.0000
  C   C206      1.0  0.16370  0.31676  0.50153  1.0000
  S   S28       1.0  0.47360  0.26583  0.93247  1.0000
  H   H156      1.0  0.00303  0.16605  0.50144  1.0000
  H   H157      1.0  0.38429  0.07825  0.73227  1.0000
  H   H158      1.0  0.19810  0.09659  0.98010  1.0000
  C   C207      1.0  0.27469  0.25207  0.48777  1.0000
  H   H159      1.0  0.16890  0.30424  0.96350  1.0000
  S   S29       1.0  0.31905  0.18899  0.61920  1.0000
  Fe  Fe13      1.0  0.15573  0.31308  0.60316  1.0000
  S   S30       1.0  0.45557  0.19559  0.94451  1.0000
  H   H160      1.0  0.31014  0.31139  0.71478  1.0000
  H   H161      1.0  0.33003  0.04138  0.50628  1.0000
  H   H162      1.0  0.44745  0.20825  0.78350  1.0000
  H   H163      1.0  0.32107  0.08800  0.80667  1.0000
  C   C208      1.0  0.06913  0.30928  0.50400  1.0000
  C   C209      1.0  0.31250  0.04449  0.49521  1.0000
  H   H164      1.0  0.36279  0.12679  0.84130  1.0000
  C   C210      1.0  0.42400  0.20068  0.78036  1.0000
  H   H165      1.0  0.42567  0.11694  0.76800  1.0000
  C   C211      1.0  0.37923  0.08804  0.75663  1.0000
  C   C212      1.0  0.23502  0.29603  0.50388  1.0000
  H   H166      1.0  0.27708  0.18668  0.48939  1.0000
  C   C213      1.0  0.37531  0.18824  0.80682  1.0000
  H   H167      1.0  0.21529  0.07353  0.48477  1.0000
  H   H168      1.0  0.00376  0.21343  0.48730  1.0000
  C   C214      1.0  0.21221  0.26703  0.49644  1.0000
  C   C215      1.0  0.30142  0.06081  0.51544  1.0000
  C   C216      1.0  0.36319  0.18100  0.77095  1.0000
  H   H169      1.0  0.35686  0.09690  0.58813  1.0000
  H   H170      1.0  0.31019  0.07037  0.54224  1.0000
  S   S31       1.0  0.41974  0.20703  0.85835  1.0000
  C   C217      1.0  0.40585  0.19831  0.81196  1.0000
  H   H171      1.0  0.36089  0.18615  0.83084  1.0000
  H   H172      1.0  0.30675  0.02386  0.66427  1.0000
  Fe  Fe14      1.0  0.32303  0.16095  0.66459  1.0000
  H   H173      1.0  0.34247  0.15377  0.50329  1.0000
  H   H174      1.0  0.41492  0.14153  0.82215  1.0000
  C   C218      1.0  0.34986  0.09832  0.68274  1.0000
  C   C219      1.0  0.35938  0.10870  0.64617  1.0000
  Fe  Fe15      1.0  0.46927  0.23596  0.98102  1.0000
  C   C220      1.0  0.40272  0.10998  0.77670  1.0000
  P   P8        1.0  0.31958  0.05450  0.73779  1.0000
  H   H175      1.0  0.32287  0.04248  0.60030  1.0000
  C   C221      1.0  0.32145  0.04756  0.65993  1.0000
  H   H176      1.0  0.33977  0.17349  0.76778  1.0000
  S   S32       1.0  0.36766  0.17508  0.69288  1.0000
  C   C222      1.0  0.33119  0.06757  0.69009  1.0000
  H   H177      1.0  0.35713  0.11450  0.70519  1.0000
  C   C223      1.0  0.34977  0.08862  0.61644  1.0000
  C   C224      1.0  0.34947  0.07978  0.76700  1.0000
  C   C225      1.0  0.34364  0.09347  0.79819  1.0000
  Fe  Fe16      1.0  0.46112  0.22524  0.89552  1.0000
  H   H178      1.0  0.42631  0.19544  0.72053  1.0000
  C   C226      1.0  0.36722  0.11543  0.81810  1.0000
  C   C227      1.0  0.33152  0.00937  0.76064  1.0000
  H   H179      1.0  0.35132  0.02690  0.77299  1.0000
  C   C228      1.0  0.33067  0.05807  0.62331  1.0000
  H   H180      1.0  0.37372  0.13253  0.64097  1.0000
  C   C229      1.0  0.38142  0.18362  0.73933  1.0000
  C   C230      1.0  0.41186  0.19332  0.74453  1.0000
  H   H181      1.0  0.27401  0.98763  0.54455  1.0000
  H   H182      1.0  0.21057  0.31835  0.76881  1.0000
  Fe  Fe17      1.0  0.22261  0.46265  0.01550  1.0000
  S   S33       1.0  0.19134  0.42765  0.06041  1.0000
  S   S34       1.0  0.25012  0.51336  0.01952  1.0000
  H   H183      1.0  0.07203  0.35985  0.28377  1.0000
  C   C231      1.0  0.30073  0.42368  0.01521  1.0000
  S   S35       1.0  0.19768  0.36504  0.21146  1.0000
  H   H184      1.0  0.20451  0.56480  0.02153  1.0000
  H   H185      1.0  0.19767  0.32640  0.07738  1.0000
  H   H186      1.0  0.27610  0.35235  0.16866  1.0000
  C   C232      1.0  0.21439  0.38075  0.01269  1.0000
  H   H187      1.0  0.33399  0.46810  0.99644  1.0000
  C   C233      1.0  0.36591  0.60677  0.06628  1.0000
  C   C234      1.0  0.30699  0.59369  0.05763  1.0000
  H   H188      1.0  0.17178  0.45003  0.13839  1.0000
  C   C235      1.0  0.19551  0.40942  0.10018  1.0000
  C   C236      1.0  0.17309  0.37994  0.10946  1.0000
  C   C237      1.0  0.17377  0.36564  0.14254  1.0000
  C   C238      1.0  0.19660  0.38087  0.16756  1.0000
  C   C239      1.0  0.21924  0.41018  0.15796  1.0000
  C   C240      1.0  0.21877  0.42430  0.12460  1.0000
  H   H189      1.0  0.15497  0.36813  0.09092  1.0000
  C   C241      1.0  0.20648  0.33115  0.99733  1.0000
  H   H190      1.0  0.23705  0.42233  0.17687  1.0000
  H   H191      1.0  0.23590  0.44711  0.11843  1.0000
  H   H192      1.0  0.22120  0.48775  0.15971  1.0000
  C   C242      1.0  0.30464  0.32508  0.00679  1.0000
  H   H193      1.0  0.34708  0.56014  0.08085  1.0000
  C   C243      1.0  0.31299  0.57126  0.06903  1.0000
  C   C244      1.0  0.24537  0.35013  0.08556  1.0000
  C   C245      1.0  0.39063  0.58572  0.99211  1.0000
  C   C246      1.0  0.36007  0.62923  0.05472  1.0000
  C   C247      1.0  0.20714  0.32056  0.13304  1.0000
  H   H194      1.0  0.22625  0.64112  0.13463  1.0000
  C   C248      1.0  0.33050  0.62298  0.05078  1.0000
  H   H195      1.0  0.19496  0.45390  0.27165  1.0000
  P   P9        1.0  0.25610  0.36646  0.03927  1.0000
  H   H196      1.0  0.18520  0.32373  0.40850  1.0000
  C   C249      1.0  0.27599  0.35134  0.01169  1.0000
  H   H197      1.0  0.13353  0.41374  0.18313  1.0000
  H   H198      1.0  0.30322  0.41331  0.98984  1.0000
  H   H199      1.0  0.11853  0.46837  0.35673  1.0000
  H   H200      1.0  0.18978  0.40131  0.26561  1.0000
  C   C250      1.0  0.07697  0.43788  0.28064  1.0000
  H   H201      1.0  0.03531  0.34527  0.04819  1.0000
  C   C251      1.0  0.21516  0.33167  0.09651  1.0000
  C   C252      1.0  0.09131  0.42261  0.26560  1.0000
  H   H202      1.0  0.14424  0.44184  0.33023  1.0000
  C   C253      1.0  0.28899  0.63879  0.10569  1.0000
  C   C254      1.0  0.27988  0.40661  0.04382  1.0000
  S   S36       1.0  0.33494  0.53472  0.99349  1.0000
  C   C255      1.0  0.06023  0.32317  0.24598  1.0000
  C   C256      1.0  0.31526  0.46913  0.05086  1.0000
  C   C257      1.0  0.29453  0.45238  0.07935  1.0000
  C   C258      1.0  0.27686  0.42130  0.07583  1.0000
  C   C259      1.0  0.20369  0.60657  0.01614  1.0000
  H   H203      1.0  0.29188  0.46355  0.10398  1.0000
  H   H204      1.0  0.28405  0.58820  0.05401  1.0000
  H   H205      1.0  0.29492  0.54862  0.07379  1.0000
  C   C260      1.0  0.20892  0.58319  0.00320  1.0000
  H   H206      1.0  0.13347  0.36065  0.38592  1.0000
  C   C261      1.0  0.10014  0.40733  0.06945  1.0000
  H   H207      1.0  0.11275  0.37927  0.33891  1.0000
  H   H208      1.0  0.18199  0.36261  0.37317  1.0000
  H   H209      1.0  0.23270  0.48983  0.22646  1.0000
  H   H210      1.0  0.14026  0.36945  0.20201  1.0000
  H   H211      1.0  0.29066  0.37241  0.10438  1.0000
  C   C262      1.0  0.07284  0.38942  0.05299  1.0000
  H   H212      1.0  0.19524  0.60587  0.04447  1.0000
  C   C263      1.0  0.09335  0.36448  0.10496  1.0000
  H   H213      1.0  0.15645  0.34297  0.14890  1.0000
  C   C264      1.0  0.18243  0.32467  0.46895  1.0000
  H   H214      1.0  0.32862  0.49331  0.05324  1.0000
  C   C265      1.0  0.29237  0.64966  0.06909  1.0000
  C   C266      1.0  0.11030  0.39486  0.09549  1.0000
  H   H215      1.0  0.07556  0.46608  0.32518  1.0000
  C   C267      1.0  0.34241  0.57779  0.07335  1.0000
  H   H216      1.0  0.18316  0.39238  0.99069  1.0000
  C   C268      1.0  0.11080  0.45543  0.33141  1.0000
  H   H217      1.0  0.26061  0.40883  0.09798  1.0000
  C   C269      1.0  0.08663  0.45418  0.31360  1.0000
  C   C270      1.0  0.25917  0.34630  0.14832  1.0000
  C   C271      1.0  0.24498  0.64399  0.11672  1.0000
  H   H218      1.0  0.38880  0.61164  0.06853  1.0000
  H   H219      1.0  0.13184  0.40857  0.10740  1.0000
  H   H220      1.0  0.08390  0.41046  0.23973  1.0000
  H   H221      1.0  0.05848  0.43726  0.26659  1.0000
  C   C272      1.0  0.21104  0.47311  0.21713  1.0000
  C   C273      1.0  0.20454  0.47207  0.17960  1.0000
  C   C274      1.0  0.17656  0.45068  0.16759  1.0000
  C   C275      1.0  0.15517  0.42993  0.19294  1.0000
  C   C276      1.0  0.16193  0.43010  0.23046  1.0000
  C   C277      1.0  0.18968  0.45250  0.24258  1.0000
  P   P10       1.0  0.13412  0.40425  0.26383  1.0000
  C   C278      1.0  0.10808  0.36919  0.24308  1.0000
  C   C279      1.0  0.15040  0.39305  0.29937  1.0000
  C   C280      1.0  0.17766  0.39348  0.29215  1.0000
  C   C281      1.0  0.18917  0.38284  0.31883  1.0000
  C   C282      1.0  0.17338  0.37139  0.35276  1.0000
  C   C283      1.0  0.14600  0.37043  0.35997  1.0000
  C   C284      1.0  0.13441  0.38102  0.33331  1.0000
  C   C285      1.0  0.07934  0.35179  0.25961  1.0000
  H   H222      1.0  0.20999  0.38278  0.31273  1.0000
  H   H223      1.0  0.26229  0.62658  0.15710  1.0000
  C   C286      1.0  0.26730  0.35751  0.11187  1.0000
  C   C287      1.0  0.11754  0.35730  0.21332  1.0000
  C   C288      1.0  0.11521  0.42328  0.28377  1.0000
  C   C289      1.0  0.12521  0.44021  0.31643  1.0000
  H   H224      1.0  0.10189  0.35519  0.12481  1.0000
  H   H225      1.0  0.39755  0.57209  0.00689  1.0000
  C   C290      1.0  0.31836  0.45481  0.01883  1.0000
  H   H226      1.0  0.99539  0.35106  0.99612  1.0000
  C   C291      1.0  0.22343  0.35906  0.01451  1.0000
  C   C292      1.0  0.06640  0.34608  0.08760  1.0000
  C   C293      1.0  0.20893  0.63059  0.99259  1.0000
  C   C294      1.0  0.22911  0.32784  0.15889  1.0000
  H   H227      1.0  0.11371  0.43079  0.06163  1.0000
  H   H228      1.0  0.37884  0.65124  0.04865  1.0000
  H   H229      1.0  0.43457  0.62534  0.99164  1.0000
  C   C295      1.0  0.28929  0.33654  0.02860  1.0000
  C   C296      1.0  0.26520  0.63568  0.12926  1.0000
  H   H230      1.0  0.04022  0.34301  0.15657  1.0000
  H   H231      1.0  0.30458  0.63239  0.11589  1.0000
  C   C297      1.0  0.09828  0.32879  0.19951  1.0000
  H   H232      1.0  0.28792  0.33369  0.05850  1.0000
  C   C298      1.0  0.05601  0.35886  0.06193  1.0000
  H   H233      1.0  0.20639  0.33720  0.47143  1.0000
  H   H234      1.0  0.22659  0.40213  0.02647  1.0000
  H   H235      1.0  0.22274  0.31980  0.18743  1.0000
  C   C299      1.0  0.31260  0.64957  0.99028  1.0000
  H   H236      1.0  0.06514  0.39918  0.03265  1.0000
  H   H237      1.0  0.10603  0.31930  0.17737  1.0000
  H   H238      1.0  0.17609  0.64905  0.16651  1.0000
  C   C300      1.0  0.18955  0.37516  0.99260  1.0000
  H   H239      1.0  0.10346  0.32472  0.05451  1.0000
  Fe  Fe18      1.0  0.16811  0.32177  0.24626  1.0000
  H   H240      1.0  0.00560  0.32970  0.21179  1.0000
  H   H241      1.0  0.29782  0.60204  0.98493  1.0000
  C   C301      1.0  0.41169  0.61600  0.98364  1.0000
  C   C302      1.0  0.02443  0.31963  0.16223  1.0000
  S   S37       1.0  0.26635  0.51284  0.92854  1.0000
  C   C303      1.0  0.34293  0.52955  0.89265  1.0000
  Fe  Fe19      1.0  0.23749  0.46234  0.93022  1.0000
  S   S38       1.0  0.23617  0.43050  0.88226  1.0000
  S   S39       1.0  0.16276  0.35618  0.73989  1.0000
  C   C304      1.0  0.21497  0.40994  0.84302  1.0000
  C   C305      1.0  0.18763  0.40781  0.83471  1.0000
  C   C306      1.0  0.17210  0.39139  0.80322  1.0000
  C   C307      1.0  0.18329  0.37644  0.77968  1.0000
  C   C308      1.0  0.21055  0.37849  0.78814  1.0000
  C   C309      1.0  0.22625  0.39524  0.81928  1.0000
  H   H242      1.0  0.17841  0.41880  0.85249  1.0000
  H   H243      1.0  0.15112  0.39015  0.79712  1.0000
  H   H244      1.0  0.24756  0.39717  0.82470  1.0000
  H   H245      1.0  0.35673  0.53223  0.91592  1.0000
  C   C310      1.0  0.20213  0.51898  0.86427  1.0000
  C   C311      1.0  0.22575  0.54580  0.84993  1.0000
  C   C312      1.0  0.24952  0.54566  0.82950  1.0000
  H   H246      1.0  0.18421  0.51933  0.88107  1.0000
  C   C313      1.0  0.17325  0.34768  0.97473  1.0000
  H   H247      1.0  0.26811  0.56676  0.81973  1.0000
  C   C314      1.0  0.28637  0.37690  0.84373  1.0000
  C   C315      1.0  0.30333  0.38041  0.81070  1.0000
  C   C316      1.0  0.29415  0.35685  0.78512  1.0000
  H   H248      1.0  0.29308  0.39542  0.86309  1.0000
  H   H249      1.0  0.32348  0.40152  0.80475  1.0000
  H   H250      1.0  0.30757  0.36004  0.75968  1.0000
  C   C317      1.0  0.24943  0.51850  0.82262  1.0000
  H   H251      1.0  0.29502  0.43873  0.73595  1.0000
  H   H252      1.0  0.31118  0.48489  0.77316  1.0000
  C   C318      1.0  0.28871  0.47325  0.76325  1.0000
  H   H253      1.0  0.22003  0.36795  0.77006  1.0000
  C   C319      1.0  0.22626  0.49190  0.83847  1.0000
  C   C320      1.0  0.30612  0.52263  0.83370  1.0000
  P   P11       1.0  0.28066  0.51817  0.79810  1.0000
  C   C321      1.0  0.27975  0.44728  0.74189  1.0000
  C   C322      1.0  0.26874  0.48404  0.77170  1.0000
  C   C323      1.0  0.23120  0.44316  0.73600  1.0000
  C   C324      1.0  0.25098  0.43222  0.72834  1.0000
  C   C325      1.0  0.24009  0.46910  0.75730  1.0000
  H   H254      1.0  0.22446  0.47729  0.76259  1.0000
  H   H255      1.0  0.22677  0.47110  0.83551  1.0000
  C   C326      1.0  0.20253  0.49208  0.85887  1.0000
  C   C327      1.0  0.29761  0.54784  0.76374  1.0000
  H   H256      1.0  0.18488  0.47151  0.87133  1.0000
  H   H257      1.0  0.25566  0.54397  0.74833  1.0000
  C   C328      1.0  0.30445  0.49738  0.85083  1.0000
  C   C329      1.0  0.27969  0.55553  0.74335  1.0000
  C   C330      1.0  0.29424  0.62053  0.93378  1.0000
  H   H258      1.0  0.28830  0.47497  0.84239  1.0000
  H   H259      1.0  0.34267  0.55590  0.76995  1.0000
  C   C331      1.0  0.32582  0.55136  0.84706  1.0000
  C   C332      1.0  0.32854  0.56223  0.75556  1.0000
  H   H260      1.0  0.32641  0.57109  0.83564  1.0000
  H   H261      1.0  0.20873  0.43112  0.72592  1.0000
  H   H262      1.0  0.22331  0.64894  0.93725  1.0000
  C   C333      1.0  0.32283  0.50085  0.88016  1.0000
  H   H263      1.0  0.28511  0.59918  0.91946  1.0000
  H   H264      1.0  0.24372  0.41181  0.71232  1.0000
  C   C334      1.0  0.34443  0.55478  0.87609  1.0000
  H   H265      1.0  0.32078  0.48126  0.89401  1.0000
  H   H266      1.0  0.32834  0.33133  0.65133  1.0000
  C   C335      1.0  0.27803  0.35411  0.97259  1.0000
  H   H267      1.0  0.27878  0.58424  0.70084  1.0000
  H   H268      1.0  0.47397  0.63610  0.89923  1.0000
  C   C336      1.0  0.29269  0.57821  0.71626  1.0000
  H   H269      1.0  0.09272  0.32570  0.50172  1.0000
  C   C337      1.0  0.32360  0.59301  0.70895  1.0000
  C   C338      1.0  0.34148  0.58492  0.72847  1.0000
  H   H270      1.0  0.32937  0.58166  0.95462  1.0000
  C   C339      1.0  0.26029  0.34976  0.85134  1.0000
  H   H271      1.0  0.35948  0.57696  0.88652  1.0000
  C   C340      1.0  0.40323  0.63389  0.96413  1.0000
  H   H272      1.0  0.29936  0.34714  0.61320  1.0000
  C   C341      1.0  0.37334  0.62111  0.95376  1.0000
  C   C342      1.0  0.29795  0.64603  0.91531  1.0000
  C   C343      1.0  0.21941  0.63085  0.95585  1.0000
  S   S40       1.0  0.25881  0.45883  0.98219  1.0000
  C   C344      1.0  0.35218  0.59104  0.96285  1.0000
  H   H273      1.0  0.29193  0.64457  0.88656  1.0000
  H   H274      1.0  0.24682  0.34730  0.87657  1.0000
  H   H275      1.0  0.33366  0.61061  0.68799  1.0000
  S   S41       1.0  0.20015  0.46450  0.96324  1.0000
  H   H276      1.0  0.15433  0.34369  0.95868  1.0000
  C   C345      1.0  0.29125  0.33834  0.64113  1.0000
  H   H277      1.0  0.36541  0.59619  0.72252  1.0000
  C   C346      1.0  0.30758  0.32951  0.66263  1.0000
  C   C347      1.0  0.21827  0.58290  0.96599  1.0000
  S   S42       1.0  0.13078  0.33094  0.63905  1.0000
  H   H278      1.0  0.22605  0.56678  0.85599  1.0000
  C   C348      1.0  0.26442  0.33580  0.65568  1.0000
  H   H279      1.0  0.36645  0.63463  0.93862  1.0000
  C   C349      1.0  0.36070  0.57305  0.98195  1.0000
  C   C350      1.0  0.22336  0.60684  0.94249  1.0000
  H   H280      1.0  0.23025  0.60677  0.91358  1.0000
  H   H281      1.0  0.26789  0.36537  0.95887  1.0000
  C   C351      1.0  0.26782  0.32959  0.79240  1.0000
  S   S43       1.0  0.22135  0.55218  0.94624  1.0000
  Fe  Fe20      1.0  0.23056  0.51499  0.96536  1.0000
  H   H282      1.0  0.25177  0.34276  0.63912  1.0000
  C   C352      1.0  0.25368  0.32404  0.69151  1.0000
  S   S44       1.0  0.17974  0.32965  0.54580  1.0000
  H   H283      1.0  0.25403  0.33079  0.54517  1.0000
  H   H284      1.0  0.29506  0.34507  0.92080  1.0000
  C   C353      1.0  0.29339  0.34263  0.95089  1.0000
  C   C354      1.0  0.30134  0.62221  0.97118  1.0000
  Fe  Fe21      1.0  0.28484  0.50958  0.98240  1.0000
  Fe  Fe22      1.0  0.15180  0.32383  0.68927  1.0000
  C   C355      1.0  0.30675  0.32817  0.96799  1.0000
  H   H285      1.0  0.31879  0.31939  0.95121  1.0000
  H   H286      1.0  0.23275  0.32211  0.70201  1.0000
  C   C356      1.0  0.25116  0.32609  0.82596  1.0000
  C   C357      1.0  0.18156  0.32556  0.97735  1.0000
  Fe  Fe23      1.0  0.15841  0.82746  0.25684  1.0000
  S   S45       1.0  0.15041  0.86063  0.22676  1.0000
  S   S46       1.0  0.16894  0.79445  0.22315  1.0000
  Fe  Fe24      1.0  0.14546  0.84821  0.33464  1.0000
  S   S47       1.0  0.13735  0.88276  0.30754  1.0000
  S   S48       1.0  0.13676  0.85291  0.39700  1.0000
  Fe  Fe25      1.0  0.11055  0.84657  0.26681  1.0000
  S   S49       1.0  0.06583  0.84158  0.25068  1.0000
  Fe  Fe26      1.0  0.17756  0.89360  0.27063  1.0000
  S   S50       1.0  0.11659  0.81134  0.29511  1.0000
  H   H287      1.0  0.17358  0.95946  0.26499  1.0000
  C   C358      1.0  0.03077  0.80858  0.25857  1.0000
  C   C359      1.0  0.00445  0.80821  0.24853  1.0000
  C   C360      1.0  0.02861  0.78256  0.27370  1.0000
  H   H288      1.0  0.00587  0.82823  0.23684  1.0000
  H   H289      1.0  0.04857  0.78254  0.28181  1.0000
  C   C361      1.0  0.14466  0.84377  0.44106  1.0000
  C   C362      1.0  0.15838  0.82624  0.44468  1.0000
  H   H290      1.0  0.16500  0.81812  0.41999  1.0000
  C   C363      1.0  0.18365  0.77026  0.16130  1.0000
  H   H291      1.0  0.17037  0.74906  0.17571  1.0000
  H   H292      1.0  0.15412  0.91458  0.40891  1.0000
  C   C364      1.0  0.07247  0.86057  0.38442  1.0000
  C   C365      1.0  0.02806  0.81670  0.36409  1.0000
  H   H293      1.0  0.07527  0.81662  0.42390  1.0000
  C   C366      1.0  0.09419  0.77647  0.19818  1.0000
  C   C367      1.0  0.06375  0.76683  0.20356  1.0000
  C   C368      1.0  0.05038  0.77902  0.18196  1.0000
  C   C369      1.0  0.06732  0.80037  0.15437  1.0000
  C   C370      1.0  0.09766  0.80912  0.14762  1.0000
  C   C371      1.0  0.11117  0.79782  0.17064  1.0000
  P   P12       1.0  0.11982  0.83626  0.11170  1.0000
  C   C372      1.0  0.14289  0.82497  0.08404  1.0000
  C   C373      1.0  0.09586  0.83875  0.07847  1.0000
  C   C374      1.0  0.07365  0.81241  0.06250  1.0000
  C   C375      1.0  0.09998  0.86667  0.06691  1.0000
  C   C376      1.0  0.13847  0.79563  0.08602  1.0000
  C   C377      1.0  0.14151  0.87171  0.13476  1.0000
  C   C378      1.0  0.17269  0.88479  0.13655  1.0000
  H   H294      1.0  0.10478  0.76769  0.21566  1.0000
  H   H295      1.0  0.05065  0.75047  0.22512  1.0000
  H   H296      1.0  0.02703  0.77242  0.18732  1.0000
  H   H297      1.0  0.05670  0.81016  0.13882  1.0000
  H   H298      1.0  0.13487  0.80547  0.16726  1.0000
  H   H299      1.0  0.07062  0.79071  0.07046  1.0000
  C   C379      1.0  0.02638  0.84064  0.42231  1.0000
  H   H300      1.0  0.11755  0.88737  0.07784  1.0000
  H   H301      1.0  0.12144  0.77902  0.10457  1.0000
  H   H302      1.0  0.10268  0.87508  0.15389  1.0000
  C   C380      1.0  0.00065  0.75623  0.27748  1.0000
  H   H303      1.0  0.12332  0.93493  0.38492  1.0000
  H   H304      1.0  0.07053  0.83670  0.33360  1.0000
  C   C381      1.0  0.07776  0.77611  0.42661  1.0000
  C   C382      1.0  0.05669  0.86176  0.41660  1.0000
  H   H305      1.0  0.01738  0.79920  0.34364  1.0000
  H   H306      1.0  0.09054  0.78046  0.40032  1.0000
  C   C383      1.0  0.06913  0.79663  0.43996  1.0000
  C   C384      1.0  0.05515  0.81389  0.03628  1.0000
  H   H307      1.0  0.09600  0.87661  0.38008  1.0000
  H   H308      1.0  0.99936  0.73604  0.28841  1.0000
  C   C385      1.0  0.15620  0.78729  0.06369  1.0000
  C   C386      1.0  0.05820  0.83792  0.35832  1.0000
  C   C387      1.0  0.01167  0.81824  0.39565  1.0000
  C   C388      1.0  0.13209  0.94108  0.41254  1.0000
  H   H309      1.0  0.01482  0.84181  0.44763  1.0000
  C   C389      1.0  0.14951  0.92964  0.42603  1.0000
  C   C390      1.0  0.12616  0.96050  0.43459  1.0000
  C   C391      1.0  0.07063  0.75057  0.44762  1.0000
  H   H310      1.0  0.07775  0.73490  0.43749  1.0000
  C   C392      1.0  0.12684  0.88559  0.15325  1.0000
  H   H311      1.0  0.18443  0.87371  0.12469  1.0000
  H   H312      1.0  0.00746  0.76308  0.42196  1.0000
  C   C393      1.0  0.16437  0.84529  0.05823  1.0000
  C   C394      1.0  0.14319  0.91262  0.17219  1.0000
  H   H313      1.0  0.13169  0.92283  0.18716  1.0000
  C   C395      1.0  0.17806  0.80790  0.03881  1.0000
  H   H314      1.0  0.15337  0.76493  0.06606  1.0000
  C   C396      1.0  0.08143  0.86807  0.04066  1.0000
  C   C397      1.0  0.05896  0.84171  0.02546  1.0000
  H   H315      1.0  0.16757  0.86774  0.05549  1.0000
  C   C398      1.0  0.17424  0.92578  0.17325  1.0000
  C   C399      1.0  0.18203  0.83686  0.03594  1.0000
  C   C400      1.0  0.16106  0.93753  0.46152  1.0000
  H   H316      1.0  0.12507  0.86724  0.47107  1.0000
  C   C401      1.0  0.13602  0.85395  0.47355  1.0000
  C   C402      1.0  0.05363  0.79195  0.47440  1.0000
  H   H317      1.0  0.06812  0.87886  0.43727  1.0000
  C   C403      1.0  0.18603  0.79661  0.17756  1.0000
  S   S51       1.0  0.18763  0.86107  0.29950  1.0000
  H   H318      1.0  0.08455  0.88965  0.03203  1.0000
  H   H319      1.0  0.99209  0.71935  0.48079  1.0000
  H   H320      1.0  0.03788  0.79345  0.02431  1.0000
  H   H321      1.0  0.11261  0.96936  0.42410  1.0000
  C   C404      1.0  0.18895  0.91184  0.15554  1.0000
  H   H322      1.0  0.18683  0.94619  0.18899  1.0000
  H   H323      1.0  0.04460  0.84284  0.00515  1.0000
  H   H324      1.0  0.19890  0.85285  0.01662  1.0000
  H   H325      1.0  0.19206  0.80138  0.02209  1.0000
  C   C405      1.0  0.16315  0.81880  0.48044  1.0000
  H   H326      1.0  0.21286  0.92145  0.15789  1.0000
  H   H327      1.0  0.36410  0.80303  0.99663  1.0000
  H   H328      1.0  0.00355  0.71389  0.40784  1.0000
  H   H329      1.0  0.98750  0.82285  0.32845  1.0000
  H   H330      1.0  0.19712  0.70336  0.06808  1.0000
  C   C406      1.0  0.98946  0.74712  0.40542  1.0000
  C   C407      1.0  0.19562  0.97902  0.26441  1.0000
  C   C408      1.0  0.98718  0.71920  0.39767  1.0000
  C   C409      1.0  0.18403  0.67345  0.11520  1.0000
  C   C410      1.0  0.13797  0.96875  0.46994  1.0000
  H   H331      1.0  0.17440  0.92817  0.47102  1.0000
  H   H332      1.0  0.33316  0.79488  0.16261  1.0000
  P   P13       1.0  0.32243  0.65230  0.03840  1.0000
  H   H333      1.0  0.19661  0.75055  0.11529  1.0000
  C   C411      1.0  0.19126  0.66909  0.15077  1.0000
  C   C412      1.0  0.37629  0.79268  0.98401  1.0000
  C   C413      1.0  0.24879  0.65578  0.08087  1.0000
  C   C414      1.0  0.25855  0.85594  0.98976  1.0000
  C   C415      1.0  0.20302  0.69973  0.09538  1.0000
  C   C416      1.0  0.19880  0.77104  0.12700  1.0000
  C   C417      1.0  0.20318  0.82375  0.15814  1.0000
  H   H334      1.0  0.20530  0.84427  0.17001  1.0000
  S   S52       1.0  0.20061  0.73683  0.99269  1.0000
  C   C418      1.0  0.35890  0.70449  0.07781  1.0000
  C   C419      1.0  0.21741  0.79835  0.10869  1.0000
  C   C420      1.0  0.40613  0.80253  0.99337  1.0000
  C   C421      1.0  0.37854  0.69889  0.01727  1.0000
  C   C422      1.0  0.05502  0.74568  0.48208  1.0000
  C   C423      1.0  0.21390  0.91813  0.40086  1.0000
  H   H335      1.0  0.25089  0.83871  0.21399  1.0000
  C   C424      1.0  0.40477  0.72578  0.02254  1.0000
  H   H336      1.0  0.24340  0.74229  0.09582  1.0000
  C   C425      1.0  0.38527  0.73153  0.08289  1.0000
  H   H337      1.0  0.27418  0.66693  0.02892  1.0000
  H   H338      1.0  0.42858  0.76329  0.05871  1.0000
  S   S53       1.0  0.45974  0.80183  0.99076  1.0000
  H   H339      1.0  0.30733  0.74312  0.29010  1.0000
  H   H340      1.0  0.37170  0.78122  0.06058  1.0000
  C   C426      1.0  0.35537  0.68804  0.04484  1.0000
  H   H341      1.0  0.38796  0.74429  0.10821  1.0000
  H   H342      1.0  0.20183  0.89379  0.40072  1.0000
  C   C427      1.0  0.25560  0.82108  0.20482  1.0000
  H   H343      1.0  0.37668  0.68635  0.99186  1.0000
  H   H344      1.0  0.37636  0.81070  0.11787  1.0000
  H   H345      1.0  0.42243  0.73393  0.00098  1.0000
  C   C428      1.0  0.35527  0.79095  0.11230  1.0000
  H   H346      1.0  0.23317  0.66236  0.07121  1.0000
  H   H347      1.0  0.22773  0.92105  0.45712  1.0000
  H   H348      1.0  0.30340  0.87817  0.00874  1.0000
  C   C429      1.0  0.22865  0.93355  0.43255  1.0000
  C   C430      1.0  0.33073  0.78202  0.13742  1.0000
  H   H349      1.0  0.29169  0.76461  0.24087  1.0000
  H   H350      1.0  0.32364  0.73621  0.04732  1.0000
  H   H351      1.0  0.34147  0.69656  0.09961  1.0000
  H   H352      1.0  0.20279  0.92216  0.34488  1.0000
  C   C431      1.0  0.30086  0.73172  0.26358  1.0000
  H   H353      1.0  0.41660  0.82035  0.01343  1.0000
  H   H354      1.0  0.24841  0.85056  0.01774  1.0000
  C   C432      1.0  0.30327  0.75663  0.13009  1.0000
  H   H355      1.0  0.28308  0.84589  0.15710  1.0000
  S   S54       1.0  0.24044  0.80132  0.06782  1.0000
  C   C433      1.0  0.21440  0.93409  0.36943  1.0000
  C   C434      1.0  0.22948  0.72142  0.11076  1.0000
  H   H356      1.0  0.29175  0.80507  0.13425  1.0000
  H   H357      1.0  0.27968  0.69189  0.16795  1.0000
  Fe  Fe27      1.0  0.24194  0.77001  0.02104  1.0000
  C   C435      1.0  0.30211  0.70531  0.25720  1.0000
  H   H358      1.0  0.23552  0.74892  0.22547  1.0000
  C   C436      1.0  0.32558  0.74888  0.07264  1.0000
  H   H359      1.0  0.30947  0.69621  0.27880  1.0000
  S   S55       1.0  0.21845  0.93963  0.26044  1.0000
  C   C437      1.0  0.21805  0.69054  0.16592  1.0000
  S   S56       1.0  0.26147  0.73880  0.02028  1.0000
  C   C438      1.0  0.24437  0.96496  0.43262  1.0000
  C   C439      1.0  0.28504  0.70281  0.19482  1.0000
  C   C440      1.0  0.40817  0.74223  0.05517  1.0000
  H   H360      1.0  0.23305  0.84592  0.11047  1.0000
  C   C441      1.0  0.24184  0.79356  0.22364  1.0000
  C   C442      1.0  0.22090  0.97540  0.26295  1.0000
  C   C443      1.0  0.21901  0.82462  0.12431  1.0000
  C   C444      1.0  0.24689  0.77033  0.21108  1.0000
  C   C445      1.0  0.30107  0.73974  0.09788  1.0000
  P   P14       1.0  0.27243  0.74446  0.16406  1.0000
  C   C446      1.0  0.27382  0.82514  0.17286  1.0000
  C   C447      1.0  0.35265  0.77443  0.07991  1.0000
  C   C448      1.0  0.29165  0.74369  0.23565  1.0000
  C   C449      1.0  0.29434  0.69093  0.22275  1.0000
  C   C450      1.0  0.22988  0.96544  0.36949  1.0000
  H   H361      1.0  0.22316  0.68693  0.19361  1.0000
  C   C451      1.0  0.28313  0.72896  0.20129  1.0000
  H   H362      1.0  0.22640  0.79000  0.24717  1.0000
  C   C452      1.0  0.26611  0.77465  0.17984  1.0000
  C   C453      1.0  0.27878  0.80191  0.16009  1.0000
  H   H363      1.0  0.28057  0.71953  0.09200  1.0000
  C   C454      1.0  0.23780  0.71641  0.14535  1.0000
  H   H364      1.0  0.22958  0.97735  0.34496  1.0000
  H   H365      1.0  0.29583  0.67077  0.21755  1.0000
  S   S57       1.0  0.19974  0.65832  0.00917  1.0000
  H   H366      1.0  0.25518  0.97621  0.45770  1.0000
  H   H367      1.0  0.32455  0.69648  0.98562  1.0000
  C   C455      1.0  0.24561  0.98122  0.40077  1.0000
  C   C456      1.0  0.27224  0.65844  0.05694  1.0000
  Fe  Fe28      1.0  0.22169  0.70693  0.98816  1.0000
  C   C457      1.0  0.28965  0.87151  0.98466  1.0000
  H   H368      1.0  0.16360  0.65670  0.10300  1.0000
  H   H369      1.0  0.17354  0.80500  0.48297  1.0000
  C   C458      1.0  0.30881  0.67328  0.93424  1.0000
  C   C459      1.0  0.98805  0.73330  0.53719  1.0000
  S   S58       1.0  0.32543  0.75695  0.94358  1.0000
  Fe  Fe29      1.0  0.22563  0.75818  0.93813  1.0000
  C   C460      1.0  0.08880  0.83003  0.77205  1.0000
  S   S59       1.0  0.20241  0.77672  0.90084  1.0000
  H   H370      1.0  0.20488  0.89531  0.55214  1.0000
  H   H371      1.0  0.45793  0.67168  0.87862  1.0000
  C   C461      1.0  0.25072  0.97078  0.54296  1.0000
  S   S60       1.0  0.26705  0.79208  0.96668  1.0000
  S   S61       1.0  0.24289  0.72509  0.93149  1.0000
  H   H372      1.0  0.09000  0.77751  0.55055  1.0000
  H   H373      1.0  0.17214  0.95006  0.60623  1.0000
  H   H374      1.0  0.02867  0.69775  0.64364  1.0000
  Fe  Fe30      1.0  0.16619  0.83578  0.69844  1.0000
  S   S62       1.0  0.15482  0.87262  0.71123  1.0000
  S   S63       1.0  0.18357  0.81157  0.73598  1.0000
  Fe  Fe31      1.0  0.15659  0.83819  0.61345  1.0000
  S   S64       1.0  0.14472  0.87459  0.62079  1.0000
  S   S65       1.0  0.16049  0.81841  0.55728  1.0000
  Fe  Fe32      1.0  0.18271  0.89611  0.65956  1.0000
  S   S66       1.0  0.22070  0.94432  0.65192  1.0000
  Fe  Fe33      1.0  0.11730  0.84816  0.67135  1.0000
  S   S67       1.0  0.07144  0.84474  0.67999  1.0000
  S   S68       1.0  0.19651  0.86103  0.64900  1.0000
  S   S69       1.0  0.12677  0.81003  0.66162  1.0000
  C   C462      1.0  0.21923  0.97798  0.65903  1.0000
  C   C463      1.0  0.14097  0.84669  0.50927  1.0000
  C   C464      1.0  0.31617  0.67509  0.97152  1.0000
  C   C465      1.0  0.00749  0.75662  0.67122  1.0000
  H   H375      1.0  0.17823  0.95840  0.69253  1.0000
  C   C466      1.0  0.03695  0.81102  0.67487  1.0000
  C   C467      1.0  0.01021  0.81230  0.67504  1.0000
  C   C468      1.0  0.03545  0.78300  0.67235  1.0000
  H   H376      1.0  0.01109  0.83384  0.67707  1.0000
  H   H377      1.0  0.05575  0.78158  0.67226  1.0000
  C   C469      1.0  0.36251  0.76976  0.95793  1.0000
  C   C470      1.0  0.13255  0.74145  0.68983  1.0000
  H   H378      1.0  0.13731  0.70681  0.66060  1.0000
  C   C471      1.0  0.30291  0.87702  0.94862  1.0000
  C   C472      1.0  0.40866  0.76666  0.95086  1.0000
  C   C473      1.0  0.37900  0.75702  0.94130  1.0000
  H   H379      1.0  0.22942  0.87651  0.75991  1.0000
  H   H380      1.0  0.11430  0.76071  0.59404  1.0000
  H   H381      1.0  0.42084  0.75643  0.93782  1.0000
  H   H382      1.0  0.36878  0.73946  0.92085  1.0000
  C   C474      1.0  0.18833  0.80208  0.78224  1.0000
  C   C475      1.0  0.18108  0.81340  0.81456  1.0000
  C   C476      1.0  0.18538  0.80523  0.85030  1.0000
  C   C477      1.0  0.19747  0.78603  0.85458  1.0000
  C   C478      1.0  0.20486  0.77483  0.82228  1.0000
  C   C479      1.0  0.20029  0.78277  0.78654  1.0000
  H   H383      1.0  0.17236  0.82864  0.81208  1.0000
  H   H384      1.0  0.17947  0.81407  0.87488  1.0000
  H   H385      1.0  0.21392  0.75986  0.82480  1.0000
  H   H386      1.0  0.20610  0.77385  0.76195  1.0000
  C   C480      1.0  0.28267  0.78376  0.85726  1.0000
  C   C481      1.0  0.30890  0.78440  0.86713  1.0000
  C   C482      1.0  0.33328  0.81139  0.87788  1.0000
  C   C483      1.0  0.33161  0.83788  0.87820  1.0000
  C   C484      1.0  0.30566  0.83758  0.86697  1.0000
  C   C485      1.0  0.28097  0.81018  0.85760  1.0000
  P   P15       1.0  0.30179  0.87067  0.87131  1.0000
  C   C486      1.0  0.28505  0.86750  0.91742  1.0000
  C   C487      1.0  0.33717  0.90460  0.86504  1.0000
  C   C488      1.0  0.34255  0.93078  0.88437  1.0000
  C   C489      1.0  0.15542  0.95721  0.48387  1.0000
  C   C490      1.0  0.29983  0.95638  0.74819  1.0000
  H   H387      1.0  0.06349  0.67640  0.74085  1.0000
  C   C491      1.0  0.35879  0.90563  0.83880  1.0000
  C   C492      1.0  0.25387  0.85176  0.92280  1.0000
  C   C493      1.0  0.08244  0.69473  0.72632  1.0000
  S   S70       1.0  0.42913  0.67157  0.94998  1.0000
  C   C494      1.0  0.02791  0.72459  0.59864  1.0000
  H   H388      1.0  0.16709  0.91027  0.54099  1.0000
  C   C495      1.0  0.27878  0.87233  0.83596  1.0000
  C   C496      1.0  0.27693  0.85864  0.80116  1.0000
  C   C497      1.0  0.25924  0.86027  0.77388  1.0000
  C   C498      1.0  0.24371  0.87600  0.78085  1.0000
  C   C499      1.0  0.24605  0.89034  0.81503  1.0000
  C   C500      1.0  0.26365  0.88867  0.84245  1.0000
  H   H389      1.0  0.26333  0.76264  0.85049  1.0000
  H   H390      1.0  0.31001  0.76378  0.86783  1.0000
  H   H391      1.0  0.35304  0.81141  0.88725  1.0000
  H   H392      1.0  0.35024  0.85828  0.88813  1.0000
  H   H393      1.0  0.26012  0.80914  0.85152  1.0000
  H   H394      1.0  0.32575  0.93076  0.90377  1.0000
  C   C501      1.0  0.12419  0.71168  0.68120  1.0000
  P   P16       1.0  0.17082  0.96840  0.52960  1.0000
  H   H395      1.0  0.04342  0.81136  0.75567  1.0000
  H   H396      1.0  0.35466  0.88594  0.82269  1.0000
  H   H397      1.0  0.23966  0.84263  0.89929  1.0000
  C   C502      1.0  0.98226  0.78589  0.67308  1.0000
  H   H398      1.0  0.13381  0.85429  0.53396  1.0000
  C   C503      1.0  0.09094  0.72462  0.73536  1.0000
  H   H399      1.0  0.28882  0.84639  0.79513  1.0000
  C   C504      1.0  0.04494  0.74734  0.57233  1.0000
  H   H400      1.0  0.08096  0.91258  0.64592  1.0000
  H   H401      1.0  0.23387  0.90239  0.82041  1.0000
  H   H402      1.0  0.26520  0.89986  0.86883  1.0000
  H   H403      1.0  0.25834  0.93388  0.55443  1.0000
  C   C505      1.0  0.07620  0.76001  0.57065  1.0000
  C   C506      1.0  0.00748  0.80195  0.55370  1.0000
  Fe  Fe34      1.0  0.28270  0.75769  0.96404  1.0000
  C   C507      1.0  0.98075  0.75783  0.67167  1.0000
  C   C508      1.0  0.05538  0.77696  0.76309  1.0000
  H   H404      1.0  0.29516  0.93336  0.75036  1.0000
  C   C509      1.0  0.15457  0.82902  0.51292  1.0000
  H   H405      1.0  0.02617  0.68936  0.82779  1.0000
  C   C510      1.0  0.09013  0.75046  0.59526  1.0000
  H   H406      1.0  0.07980  0.86008  0.60028  1.0000
  C   C511      1.0  0.05729  0.81710  0.57346  1.0000
  C   C512      1.0  0.00972  0.82855  0.56793  1.0000
  C   C513      1.0  0.03569  0.84939  0.58494  1.0000
  C   C514      1.0  0.05969  0.84398  0.58691  1.0000
  H   H407      1.0  0.15222  0.75973  0.67620  1.0000
  C   C515      1.0  0.07302  0.72810  0.62160  1.0000
  H   H408      1.0  0.31138  0.69306  0.92019  1.0000
  H   H409      1.0  0.13357  0.98423  0.48641  1.0000
  H   H410      1.0  0.03702  0.86942  0.59727  1.0000
  H   H411      1.0  0.07592  0.81318  0.57635  1.0000
  C   C516      1.0  0.11605  0.73440  0.88301  1.0000
  C   C517      1.0  0.07820  0.73875  0.85025  1.0000
  H   H412      1.0  0.12303  0.77099  0.72323  1.0000
  C   C518      1.0  0.09791  0.92329  0.62369  1.0000
  H   H413      1.0  0.41252  0.97855  0.84873  1.0000
  C   C519      1.0  0.14190  0.94982  0.56585  1.0000
  C   C520      1.0  0.08738  0.73048  0.81671  1.0000
  C   C521      1.0  0.01564  0.68841  0.80205  1.0000
  H   H414      1.0  0.13323  0.92605  0.65618  1.0000
  C   C522      1.0  0.03236  0.70611  0.77115  1.0000
  C   C523      1.0  0.04195  0.71507  0.62317  1.0000
  H   H415      1.0  0.32700  0.88771  0.94520  1.0000
  H   H416      1.0  0.12773  0.73662  0.90829  1.0000
  H   H417      1.0  0.25683  0.84867  0.74758  1.0000
  H   H418      1.0  0.00649  0.73506  0.67028  1.0000
  C   C524      1.0  0.03090  0.79558  0.55733  1.0000
  P   P17       1.0  0.02727  0.76038  0.54081  1.0000
  Fe  Fe35      1.0  0.47426  0.71351  0.96197  1.0000
  C   C525      1.0  0.11590  0.74786  0.71666  1.0000
  C   C526      1.0  0.11222  0.94259  0.56046  1.0000
  C   C527      1.0  0.19902  0.95769  0.53559  1.0000
  C   C528      1.0  0.38593  0.93219  0.83311  1.0000
  H   H419      1.0  0.08384  0.72094  0.64083  1.0000
  C   C529      1.0  0.24193  0.94051  0.54849  1.0000
  C   C530      1.0  0.21180  0.91878  0.54732  1.0000
  C   C531      1.0  0.19042  0.92733  0.54104  1.0000
  C   C532      1.0  0.09038  0.92944  0.58929  1.0000
  C   C533      1.0  0.14935  0.94421  0.60087  1.0000
  C   C534      1.0  0.09898  0.68831  0.69923  1.0000
  H   H420      1.0  0.06759  0.92404  0.58499  1.0000
  H   H421      1.0  0.03342  0.75945  0.75617  1.0000
  C   C535      1.0  0.12740  0.93084  0.62949  1.0000
  C   C536      1.0  0.09240  0.74054  0.88328  1.0000
  C   C537      1.0  0.07813  0.77065  0.77170  1.0000
  H   H422      1.0  0.21663  0.83259  0.96246  1.0000
  H   H423      1.0  0.99106  0.83268  0.56648  1.0000
  H   H424      1.0  0.40269  0.93277  0.81312  1.0000
  H   H425      1.0  0.13312  0.84210  0.78816  1.0000
  C   C538      1.0  0.22937  0.97940  0.53645  1.0000
  H   H426      1.0  0.14418  0.72217  0.84958  1.0000
  C   C539      1.0  0.11120  0.72432  0.81675  1.0000
  H   H427      1.0  0.34035  0.97446  0.77814  1.0000
  C   C540      1.0  0.24068  0.84601  0.95880  1.0000
  H   H428      1.0  0.09309  0.85298  0.77104  1.0000
  H   H429      1.0  0.08554  0.74735  0.90897  1.0000
  H   H430      1.0  0.12380  0.79004  0.78813  1.0000
  H   H431      1.0  0.11975  0.71908  0.79127  1.0000
  C   C541      1.0  0.11134  0.82392  0.78137  1.0000
  H   H432      1.0  0.03056  0.71730  0.71384  1.0000
  P   P18       1.0  0.07174  0.73261  0.77348  1.0000
  C   C542      1.0  0.12532  0.72617  0.84982  1.0000
  C   C543      1.0  0.10604  0.79440  0.78118  1.0000
  C   C544      1.0  0.01799  0.70374  0.73792  1.0000
  C   C545      1.0  0.06080  0.80654  0.76324  1.0000
  H   H433      1.0  0.26058  0.94502  0.71745  1.0000
  H   H434      1.0  0.00386  0.71429  0.60081  1.0000
  H   H435      1.0  0.06060  0.74461  0.85062  1.0000
  C   C546      1.0  0.36970  0.95733  0.87859  1.0000
  C   C547      1.0  0.19613  0.97883  0.68024  1.0000
  H   H436      1.0  0.10573  0.94702  0.53422  1.0000
  C   C548      1.0  0.32532  0.97958  0.76374  1.0000
  C   C549      1.0  0.28037  0.96291  0.72974  1.0000
  C   C550      1.0  0.97719  0.71670  0.50442  1.0000
  H   H437      1.0  0.98723  0.78623  0.54050  1.0000
  C   C551      1.0  0.39145  0.95800  0.85310  1.0000
  C   C552      1.0  0.04656  0.76646  0.49580  1.0000
  C   C553      1.0  0.98714  0.68500  0.73609  1.0000
  C   C554      1.0  0.42245  0.78941  0.97715  1.0000
  H   H438      1.0  0.37389  0.97742  0.89383  1.0000
  H   H439      1.0  0.04992  0.72595  0.49828  1.0000
  H   H440      1.0  0.09256  0.66522  0.69267  1.0000
  C   C555      1.0  0.98482  0.66929  0.79995  1.0000
  H   H441      1.0  0.04760  0.80846  0.48428  1.0000
  H   H442      1.0  0.68946  0.27663  0.00975  1.0000
  C   C556      1.0  0.72026  0.02427  0.36401  1.0000
  S   S71       1.0  0.76977  0.19244  0.03694  1.0000
  C   C557      1.0  0.73821  0.04676  0.33814  1.0000
  S   S72       1.0  0.72098  0.23411  0.01033  1.0000
  Fe  Fe36      1.0  0.88876  0.17175  0.26232  1.0000
  S   S73       1.0  0.85278  0.18076  0.28683  1.0000
  S   S74       1.0  0.93502  0.21086  0.27364  1.0000
  Fe  Fe37      1.0  0.84219  0.10765  0.24097  1.0000
  S   S75       1.0  0.80390  0.11308  0.26434  1.0000
  S   S76       1.0  0.83502  0.06369  0.21522  1.0000
  Fe  Fe38      1.0  0.82738  0.15828  0.23507  1.0000
  S   S77       1.0  0.80442  0.18026  0.20397  1.0000
  Fe  Fe39      1.0  0.83308  0.13509  0.31332  1.0000
  S   S78       1.0  0.81829  0.11740  0.37334  1.0000
  S   S79       1.0  0.86464  0.15191  0.20929  1.0000
  S   S80       1.0  0.87005  0.12705  0.29091  1.0000
  C   C558      1.0  0.50874  0.15299  0.05046  1.0000
  H   H443      1.0  0.61098  0.05488  0.22468  1.0000
  C   C559      1.0  0.93143  0.26038  0.43024  1.0000
  H   H444      1.0  0.95141  0.26474  0.03290  1.0000
  H   H445      1.0  0.95559  0.18123  0.21826  1.0000
  C   C560      1.0  0.82870  0.13608  0.41703  1.0000
  C   C561      1.0  0.94858  0.23720  0.47436  1.0000
  C   C562      1.0  0.83241  0.16483  0.42282  1.0000
  H   H446      1.0  0.92061  0.12102  0.45696  1.0000
  H   H447      1.0  0.83091  0.17716  0.39963  1.0000
  C   C563      1.0  0.80852  0.02847  0.23522  1.0000
  C   C564      1.0  0.92633  0.13439  0.43172  1.0000
  C   C565      1.0  0.94085  0.16974  0.36743  1.0000
  H   H448      1.0  0.79333  0.04681  0.28000  1.0000
  C   C566      1.0  0.64306  0.04489  0.19670  1.0000
  H   H449      1.0  0.75343  0.29017  0.12775  1.0000
  H   H450      1.0  0.82743  0.09807  0.44376  1.0000
  C   C567      1.0  0.77908  0.18937  0.08373  1.0000
  C   C568      1.0  0.77544  0.20543  0.11366  1.0000
  C   C569      1.0  0.78315  0.20216  0.15000  1.0000
  C   C570      1.0  0.79475  0.18293  0.15723  1.0000
  C   C571      1.0  0.79845  0.16691  0.12727  1.0000
  C   C572      1.0  0.79072  0.17016  0.09093  1.0000
  H   H451      1.0  0.76648  0.22021  0.10889  1.0000
  H   H452      1.0  0.78008  0.21466  0.17277  1.0000
  H   H453      1.0  0.80738  0.15209  0.13204  1.0000
  H   H454      1.0  0.79372  0.15760  0.06818  1.0000
  H   H455      1.0  0.49523  0.11091  0.02250  1.0000
  C   C573      1.0  0.91051  0.29566  0.01381  1.0000
  C   C574      1.0  0.79113  0.02654  0.26731  1.0000
  C   C575      1.0  0.80470  0.00179  0.21843  1.0000
  H   H456      1.0  0.81791  0.00304  0.19347  1.0000
  H   H457      1.0  0.63805  0.21092  0.09289  1.0000
  C   C576      1.0  0.97066  0.21589  0.25980  1.0000
  C   C577      1.0  0.80477  0.28871  0.05369  1.0000
  H   H458      1.0  0.75791  0.99717  0.30823  1.0000
  H   H459      1.0  0.49293  0.28257  0.07937  1.0000
  C   C578      1.0  0.80014  0.03628  0.38780  1.0000
  C   C579      1.0  0.74926  0.30861  0.12281  1.0000
  H   H460      1.0  0.77039  0.10896  0.18120  1.0000
  C   C580      1.0  0.83030  0.12032  0.44778  1.0000
  C   C581      1.0  0.76965  0.04228  0.17197  1.0000
  H   H461      1.0  0.58056  0.30884  0.03251  1.0000
  C   C582      1.0  0.50431  0.17794  0.05489  1.0000
  C   C583      1.0  0.76531  0.06017  0.45538  1.0000
  C   C584      1.0  0.76271  0.08516  0.18425  1.0000
  P   P19       1.0  0.77290  0.00963  0.45662  1.0000
  C   C585      1.0  0.94935  0.26287  0.45972  1.0000
  C   C586      1.0  0.76030  0.08248  0.47155  1.0000
  H   H462      1.0  0.83890  0.19910  0.46335  1.0000
  H   H463      1.0  0.50241  0.22988  0.21581  1.0000
  C   C587      1.0  0.85766  0.05132  0.40775  1.0000
  H   H464      1.0  0.76167  0.10035  0.45431  1.0000
  C   C588      1.0  0.62681  0.04694  0.22785  1.0000
  C   C589      1.0  0.69505  0.99841  0.35243  1.0000
  C   C590      1.0  0.67536  0.28233  0.99421  1.0000
  H   H465      1.0  0.65449  0.02266  0.29486  1.0000
  C   C591      1.0  0.68760  0.99506  0.31504  1.0000
  C   C592      1.0  0.50399  0.19732  0.13241  1.0000
  H   H466      1.0  0.96909  0.27622  0.22615  1.0000
  C   C593      1.0  0.74403  0.02420  0.19414  1.0000
  H   H467      1.0  0.89754  0.23001  0.39362  1.0000
  H   H468      1.0  0.78302  0.03298  0.15979  1.0000
  Fe  Fe40      1.0  0.75326  0.21681  0.99830  1.0000
  H   H469      1.0  0.85608  0.24296  0.15767  1.0000
  H   H470      1.0  0.82980  0.20492  0.01460  1.0000
  H   H471      1.0  0.81256  0.25140  0.05800  1.0000
  C   C594      1.0  0.82196  0.27447  0.04908  1.0000
  H   H472      1.0  0.77815  0.03084  0.37940  1.0000
  H   H473      1.0  0.63985  0.05126  0.16937  1.0000
  H   H474      1.0  0.87199  0.07168  0.35309  1.0000
  H   H475      1.0  0.78230  0.27655  0.06603  1.0000
  H   H476      1.0  0.72582  0.02682  0.39303  1.0000
  C   C595      1.0  0.86279  0.23866  0.13015  1.0000
  C   C596      1.0  0.87055  0.21614  0.12565  1.0000
  C   C597      1.0  0.87846  0.20989  0.09018  1.0000
  C   C598      1.0  0.87835  0.22598  0.05912  1.0000
  C   C599      1.0  0.86974  0.24807  0.06326  1.0000
  C   C600      1.0  0.86265  0.25479  0.09919  1.0000
  P   P20       1.0  0.87135  0.26979  0.02318  1.0000
  H   H477      1.0  0.79960  0.08687  0.15119  1.0000
  C   C601      1.0  0.95629  0.15283  0.42038  1.0000
  C   C602      1.0  0.49094  0.12947  0.02694  1.0000
  C   C603      1.0  0.64038  0.98913  0.02121  1.0000
  C   C604      1.0  0.80433  0.02830  0.42339  1.0000
  H   H478      1.0  0.75793  0.06682  0.34702  1.0000
  H   H479      1.0  0.89433  0.18467  0.42118  1.0000
  H   H480      1.0  0.67600  0.03329  0.17635  1.0000
  C   C605      1.0  0.85322  0.05939  0.37263  1.0000
  H   H481      1.0  0.73789  0.00098  0.19839  1.0000
  C   C606      1.0  0.92873  0.20892  0.46005  1.0000
  H   H482      1.0  0.77035  0.06131  0.42570  1.0000
  H   H483      1.0  0.86974  0.20315  0.14967  1.0000
  H   H484      1.0  0.88419  0.19221  0.08680  1.0000
  H   H485      1.0  0.88456  0.22091  0.03182  1.0000
  C   C607      1.0  0.82448  0.05183  0.36270  1.0000
  H   H486      1.0  0.56259  0.20999  0.15074  1.0000
  C   C608      1.0  0.97400  0.26823  0.03125  1.0000
  C   C609      1.0  0.91054  0.20654  0.43101  1.0000
  C   C610      1.0  0.81606  0.31811  0.04095  1.0000
  C   C611      1.0  0.66361  0.03482  0.20078  1.0000
  C   C612      1.0  0.77909  0.07274  0.16720  1.0000
  C   C613      1.0  0.91094  0.15093  0.37858  1.0000
  C   C614      1.0  0.49524  0.21336  0.19375  1.0000
  C   C615      1.0  0.91206  0.23219  0.41582  1.0000
  H   H487      1.0  0.89326  0.15053  0.36289  1.0000
  H   H488      1.0  0.88047  0.11884  0.41916  1.0000
  H   H489      1.0  0.72519  0.07746  0.22020  1.0000
  C   C616      1.0  0.90369  0.13321  0.41060  1.0000
  C   C617      1.0  0.83670  0.17712  0.45909  1.0000
  H   H490      1.0  0.61179  0.28716  0.00398  1.0000
  C   C618      1.0  0.77095  0.99833  0.28312  1.0000
  P   P21       1.0  0.52529  0.20661  0.08835  1.0000
  C   C619      1.0  0.65002  0.28138  0.01156  1.0000
  C   C620      1.0  0.56153  0.20906  0.09043  1.0000
  C   C621      1.0  0.57416  0.21028  0.12469  1.0000
  C   C622      1.0  0.60182  0.21124  0.12554  1.0000
  C   C623      1.0  0.61689  0.21073  0.09228  1.0000
  C   C624      1.0  0.60440  0.20938  0.05811  1.0000
  C   C625      1.0  0.57693  0.20866  0.05712  1.0000
  C   C626      1.0  0.51351  0.21831  0.16151  1.0000
  H   H491      1.0  0.96321  0.28470  0.47183  1.0000
  H   H492      1.0  0.96661  0.23640  0.18422  1.0000
  H   H493      1.0  0.96355  0.15265  0.31302  1.0000
  C   C627      1.0  0.53016  0.24270  0.07469  1.0000
  C   C628      1.0  0.50726  0.24965  0.08295  1.0000
  H   H494      1.0  0.97489  0.13421  0.25481  1.0000
  H   H495      1.0  0.74484  0.06123  0.28125  1.0000
  H   H496      1.0  0.85672  0.27220  0.10352  1.0000
  C   C629      1.0  0.55694  0.26450  0.05711  1.0000
  C   C630      1.0  0.73074  0.04351  0.30071  1.0000
  C   C631      1.0  0.83338  0.03592  0.43308  1.0000
  H   H497      1.0  0.87999  0.05725  0.41544  1.0000
  H   H498      1.0  0.61136  0.21187  0.15203  1.0000
  C   C632      1.0  0.53758  0.29915  0.05581  1.0000
  H   H499      1.0  0.61580  0.20839  0.03230  1.0000
  H   H500      1.0  0.56743  0.20727  0.03028  1.0000
  H   H501      1.0  0.53455  0.23904  0.15865  1.0000
  H   H502      1.0  0.68651  0.99997  0.01637  1.0000
  C   C633      1.0  0.73575  0.30933  0.09030  1.0000
  H   H503      1.0  0.64444  0.27495  0.04063  1.0000
  H   H504      1.0  0.94597  0.18352  0.34262  1.0000
  H   H505      1.0  0.57479  0.25975  0.05008  1.0000
  C   C634      1.0  0.85072  0.28958  0.03205  1.0000
  H   H506      1.0  0.82116  0.05857  0.33569  1.0000
  C   C635      1.0  0.63102  0.03882  0.26310  1.0000
  C   C636      1.0  0.65159  0.02878  0.26730  1.0000
  C   C637      1.0  0.66828  0.02701  0.23619  1.0000
  C   C638      1.0  0.70534  0.01764  0.28886  1.0000
  P   P22       1.0  0.69465  0.01369  0.24093  1.0000
  C   C639      1.0  0.51108  0.27779  0.07374  1.0000
  C   C640      1.0  0.72743  0.03648  0.21142  1.0000
  C   C641      1.0  0.73705  0.06716  0.20637  1.0000
  C   C642      1.0  0.56051  0.29254  0.04752  1.0000
  C   C643      1.0  0.48099  0.17831  0.03664  1.0000
  H   H507      1.0  0.72979  0.29167  0.06977  1.0000
  C   C644      1.0  0.96386  0.17046  0.38785  1.0000
  H   H508      1.0  0.96979  0.22722  0.38660  1.0000
  H   H509      1.0  0.64509  0.01153  0.01372  1.0000
  H   H510      1.0  0.52597  0.15160  0.06501  1.0000
  H   H511      1.0  0.48615  0.23320  0.09598  1.0000
  H   H512      1.0  0.92625  0.18855  0.47214  1.0000
  H   H513      1.0  0.93185  0.28018  0.41928  1.0000
  H   H514      1.0  0.83755  0.03026  0.46013  1.0000
  H   H515      1.0  0.61840  0.04040  0.28725  1.0000
  C   C645      1.0  0.76526  0.03783  0.47762  1.0000
  C   C646      1.0  0.97477  0.19894  0.23149  1.0000
  H   H516      1.0  0.97332  0.15312  0.43712  1.0000
  S   S81       1.0  0.75456  0.31731  0.99343  1.0000
  C   C647      1.0  0.63172  0.28830  0.99113  1.0000
  H   H517      1.0  0.62883  0.31838  0.06781  1.0000
  H   H518      1.0  0.47686  0.19705  0.03989  1.0000
  C   C648      1.0  0.85394  0.24663  0.98340  1.0000
  C   C649      1.0  0.83444  0.21568  0.98756  1.0000
  H   H519      1.0  0.63381  0.23144  0.95068  1.0000
  S   S82       1.0  0.72587  0.24967  0.91971  1.0000
  H   H520      1.0  0.91472  0.27407  0.96305  1.0000
  Fe  Fe41      1.0  0.75802  0.23124  0.91334  1.0000
  S   S83       1.0  0.78598  0.23467  0.85900  1.0000
  C   C650      1.0  0.63476  0.27824  0.86742  1.0000
  Fe  Fe42      1.0  0.50505  0.21131  0.93683  1.0000
  P   P23       1.0  0.67035  0.30412  0.88625  1.0000
  C   C651      1.0  0.94471  0.15736  0.55873  1.0000
  Fe  Fe43      1.0  0.52178  0.27608  0.92551  1.0000
  S   S84       1.0  0.50956  0.23752  0.88512  1.0000
  Fe  Fe44      1.0  0.82038  0.14620  0.67536  1.0000
  S   S85       1.0  0.83695  0.11303  0.68222  1.0000
  S   S86       1.0  0.79248  0.15137  0.72502  1.0000
  Fe  Fe45      1.0  0.83902  0.15343  0.59037  1.0000
  S   S87       1.0  0.85688  0.12151  0.59276  1.0000
  S   S88       1.0  0.84101  0.17670  0.53549  1.0000
  Fe  Fe46      1.0  0.81562  0.09248  0.62829  1.0000
  S   S89       1.0  0.78621  0.04383  0.61103  1.0000
  Fe  Fe47      1.0  0.87709  0.14489  0.64609  1.0000
  S   S90       1.0  0.92324  0.15168  0.65783  1.0000
  S   S91       1.0  0.79637  0.12330  0.62305  1.0000
  S   S92       1.0  0.86199  0.17927  0.64203  1.0000
  C   C652      1.0  0.95762  0.18553  0.65149  1.0000
  Fe  Fe48      1.0  0.75009  0.27285  0.97127  1.0000
  C   C653      1.0  0.81898  0.19849  0.95715  1.0000
  C   C654      1.0  0.94927  0.28293  0.60230  1.0000
  H   H521      1.0  0.93822  0.21300  0.63863  1.0000
  P   P24       1.0  0.87359  0.13353  0.79584  1.0000
  C   C655      1.0  0.88113  0.07853  0.71669  1.0000
  H   H522      1.0  0.67572  0.26546  0.82658  1.0000
  H   H523      1.0  0.83489  0.11973  0.50741  1.0000
  C   C656      1.0  0.58707  0.15641  0.95591  1.0000
  C   C657      1.0  0.79289  0.01229  0.66863  1.0000
  C   C658      1.0  0.77974  0.01107  0.63497  1.0000
  S   S93       1.0  0.51838  0.24956  0.97655  1.0000
  H   H524      1.0  0.80759  0.03385  0.68063  1.0000
  H   H525      1.0  0.55385  0.22053  0.84072  1.0000
  H   H526      1.0  0.81984  0.02535  0.76481  1.0000
  C   C659      1.0  0.68039  0.02249  0.71511  1.0000
  C   C660      1.0  0.75539  0.08287  0.51010  1.0000
  S   S94       1.0  0.52274  0.17845  0.94108  1.0000
  C   C661      1.0  0.81300  0.11570  0.79389  1.0000
  H   H527      1.0  0.92940  0.18914  0.56642  1.0000
  C   C662      1.0  0.92073  0.21841  0.72150  1.0000
  C   C663      1.0  0.55861  0.18232  0.94766  1.0000
  C   C664      1.0  0.78742  0.21061  0.82266  1.0000
  C   C665      1.0  0.76415  0.18134  0.81717  1.0000
  C   C666      1.0  0.76603  0.16388  0.78708  1.0000
  C   C667      1.0  0.79140  0.17495  0.76234  1.0000
  C   C668      1.0  0.81477  0.20411  0.76811  1.0000
  C   C669      1.0  0.81269  0.22174  0.79781  1.0000
  H   H528      1.0  0.74441  0.17236  0.83562  1.0000
  H   H529      1.0  0.74758  0.14157  0.78293  1.0000
  H   H530      1.0  0.83426  0.21332  0.74934  1.0000
  H   H531      1.0  0.83081  0.24435  0.80140  1.0000
  C   C670      1.0  0.75454  0.06036  0.53237  1.0000
  H   H532      1.0  0.96824  0.30979  0.95160  1.0000
  H   H533      1.0  0.75284  0.10093  0.52278  1.0000
  H   H534      1.0  0.71815  0.25929  0.80345  1.0000
  C   C671      1.0  0.63876  0.29629  0.95354  1.0000
  H   H535      1.0  0.76330  0.12150  0.85471  1.0000
  C   C672      1.0  0.95871  0.21254  0.64257  1.0000
  C   C673      1.0  0.91736  0.11605  0.87589  1.0000
  H   H536      1.0  0.76823  0.29036  0.82878  1.0000
  S   S95       1.0  0.72841  0.19026  0.94825  1.0000
  H   H537      1.0  0.90472  0.12522  0.72958  1.0000
  C   C674      1.0  0.59617  0.22668  0.85735  1.0000
  H   H538      1.0  0.62409  0.30134  0.93812  1.0000
  C   C675      1.0  0.88614  0.10369  0.73778  1.0000
  C   C676      1.0  0.78414  0.12315  0.84403  1.0000
  C   C677      1.0  0.89003  0.20508  0.72964  1.0000
  C   C678      1.0  0.89870  0.11268  0.84692  1.0000
  H   H539      1.0  0.91412  0.18535  0.83968  1.0000
  C   C679      1.0  0.83658  0.13968  0.85108  1.0000
  C   C680      1.0  0.62503  0.24733  0.86767  1.0000
  H   H540      1.0  0.91832  0.09674  0.88606  1.0000
  C   C681      1.0  0.91812  0.26638  0.60578  1.0000
  H   H541      1.0  0.93176  0.23788  0.70331  1.0000
  H   H542      1.0  0.84444  0.25337  0.89121  1.0000
  H   H543      1.0  0.80282  0.17493  0.96113  1.0000
  C   C682      1.0  0.72915  0.06720  0.71170  1.0000
  C   C683      1.0  0.57656  0.23665  0.84744  1.0000
  C   C684      1.0  0.96670  0.20501  0.52567  1.0000
  C   C685      1.0  0.83729  0.16090  0.49003  1.0000
  H   H544      1.0  0.57021  0.27500  0.84175  1.0000
  H   H545      1.0  0.94938  0.14683  0.91390  1.0000
  C   C686      1.0  0.93361  0.16917  0.87842  1.0000
  H   H546      1.0  0.81413  0.10837  0.76562  1.0000
  C   C687      1.0  0.74034  0.05178  0.68985  1.0000
  C   C688      1.0  0.75906  0.03773  0.51624  1.0000
  H   H547      1.0  0.69059  0.06464  0.74125  1.0000
  C   C689      1.0  0.58581  0.26730  0.84786  1.0000
  H   H548      1.0  0.85171  0.16928  0.75751  1.0000
  C   C690      1.0  0.93712  0.20612  0.73597  1.0000
  C   C691      1.0  0.78590  0.11251  0.80841  1.0000
  H   H549      1.0  0.87722  0.21427  0.71780  1.0000
  H   H550      1.0  0.74365  0.09058  0.71851  1.0000
  C   C692      1.0  0.69146  0.00689  0.69288  1.0000
  H   H551      1.0  0.68893  0.00737  0.61293  1.0000
  H   H552      1.0  0.70146  0.28957  0.94348  1.0000
  H   H553      1.0  0.76353  0.06312  0.67979  1.0000
  H   H554      1.0  0.85333  0.03087  0.70986  1.0000
  C   C693      1.0  0.72159  0.02181  0.68050  1.0000
  C   C694      1.0  0.70111  0.29973  0.86697  1.0000
  C   C695      1.0  0.94536  0.18443  0.55142  1.0000
  C   C696      1.0  0.69724  0.27916  0.83834  1.0000
  H   H555      1.0  0.53936  0.13445  0.95212  1.0000
  H   H556      1.0  0.76655  0.10284  0.79132  1.0000
  H   H557      1.0  0.75808  0.02058  0.53436  1.0000
  C   C697      1.0  0.55979  0.15581  0.95208  1.0000
  C   C698      1.0  0.78693  0.98550  0.68666  1.0000
  C   C699      1.0  0.90249  0.24233  0.58192  1.0000
  C   C700      1.0  0.91796  0.23441  0.55514  1.0000
  C   C701      1.0  0.91494  0.16587  0.84950  1.0000
  H   H558      1.0  0.92836  0.14174  0.57896  1.0000
  H   H559      1.0  0.73050  0.01026  0.66332  1.0000
  H   H560      1.0  0.81018  0.19899  0.89903  1.0000
  H   H561      1.0  0.87826  0.22967  0.58406  1.0000
  C   C702      1.0  0.72143  0.27593  0.82458  1.0000
  H   H562      1.0  0.88539  0.09063  0.83514  1.0000
  C   C703      1.0  0.66390  0.29680  0.93574  1.0000
  H   H563      1.0  0.63933  0.23903  0.87726  1.0000
  S   S96       1.0  0.64737  0.18128  0.95941  1.0000
  C   C704      1.0  0.85743  0.26014  0.94843  1.0000
  C   C705      1.0  0.85733  0.05030  0.72650  1.0000
  H   H564      1.0  0.70121  0.99902  0.54817  1.0000
  H   H565      1.0  0.81164  0.03050  0.52088  1.0000
  C   C706      1.0  0.80945  0.13670  0.86537  1.0000
  C   C707      1.0  0.68224  0.28987  0.95638  1.0000
  C   C708      1.0  0.94931  0.25047  0.55191  1.0000
  H   H566      1.0  0.58495  0.23056  0.94433  1.0000
  H   H567      1.0  0.58854  0.20282  0.85869  1.0000
  C   C709      1.0  0.69921  0.05255  0.72441  1.0000
  H   H568      1.0  0.82850  0.06959  0.80238  1.0000
  C   C710      1.0  0.58547  0.20987  0.94784  1.0000
  C   C711      1.0  0.95648  0.31228  0.97609  1.0000
  C   C712      1.0  0.84231  0.24280  0.91795  1.0000
  C   C713      1.0  0.87559  0.17940  0.75217  1.0000
  S   S97       1.0  0.78435  0.25743  0.96296  1.0000
  C   C714      1.0  0.82296  0.21202  0.92234  1.0000
  C   C715      1.0  0.74975  0.29363  0.83862  1.0000
  C   C716      1.0  0.61320  0.21042  0.95135  1.0000
  C   C717      1.0  0.84330  0.07243  0.77844  1.0000
  C   C718      1.0  0.93484  0.14428  0.89158  1.0000
  C   C719      1.0  0.75404  0.31505  0.86591  1.0000
  H   H569      1.0  0.93578  0.17089  0.76878  1.0000
  H   H570      1.0  0.96520  0.13000  0.54732  1.0000
  C   C720      1.0  0.86705  0.10096  0.76852  1.0000
  C   C721      1.0  0.61406  0.18352  0.95515  1.0000
  H   H571      1.0  0.75108  0.06080  0.56238  1.0000
  H   H572      1.0  0.85591  0.15053  0.86797  1.0000
  H   H573      1.0  0.65731  0.01176  0.72512  1.0000
  H   H574      1.0  0.80810  0.14525  0.89281  1.0000
  C   C722      1.0  0.89746  0.13761  0.83339  1.0000
  H   H575      1.0  0.90534  0.21568  0.53688  1.0000
  C   C723      1.0  0.89194  0.16702  0.76711  1.0000
  H   H576      1.0  0.89557  0.08116  0.69237  1.0000
  C   C724      1.0  0.61466  0.28802  0.85811  1.0000
  Fe  Fe49      1.0  0.69825  0.21066  0.95826  1.0000
  C   C725      1.0  0.83843  0.04724  0.75740  1.0000
  H   H577      1.0  0.94719  0.19107  0.89049  1.0000
  H   H578      1.0  0.90603  0.27224  0.62677  1.0000
  C   C726      1.0  0.92281  0.18050  0.75859  1.0000
  H   H579      1.0  0.87113  0.28419  0.94493  1.0000
  C   C727      1.0  0.83853  0.12910  0.81521  1.0000
  H   H580      1.0  0.96079  0.21596  0.72870  1.0000
  H   H581      1.0  0.58726  0.13550  0.95896  1.0000
  C   C728      1.0  0.80076  0.00620  0.52013  1.0000
  C   C729      1.0  0.96482  0.27529  0.57517  1.0000
  H   H582      1.0  0.82011  0.00363  0.57094  1.0000
  P   P25       1.0  0.96850  0.24040  0.51576  1.0000
  H   H583      1.0  0.96144  0.30171  0.62066  1.0000
  H   H584      1.0  0.79730  0.98648  0.71252  1.0000
  C   C730      1.0  0.96548  0.15074  0.54085  1.0000
  H   H585      1.0  0.96920  0.24697  0.97769  1.0000
  C   C731      1.0  0.78095  0.99007  0.49203  1.0000
  C   C732      1.0  0.80575  0.99105  0.54853  1.0000
  C   C733      1.0  0.92599  0.29222  0.98249  1.0000
  S   S98       1.0  0.56585  0.31854  0.90796  1.0000
  C   C734      1.0  0.68646  0.98571  0.60523  1.0000
  H   H586      1.0  0.62049  0.31137  0.86043  1.0000
  C   C735      1.0  0.72988  0.31826  0.87978  1.0000
  C   C736      1.0  0.83455  0.13256  0.48400  1.0000
  H   H587      1.0  0.77904  0.38531  0.04991  1.0000
  H   H588      1.0  0.76945  0.45527  0.20924  1.0000
  H   H589      1.0  0.69711  0.61259  0.15535  1.0000
  S   S99       1.0  0.78877  0.54419  0.06068  1.0000
  C   C737      1.0  0.73054  0.33318  0.08366  1.0000
  H   H590      1.0  0.79947  0.49081  0.05082  1.0000
  H   H591      1.0  0.66423  0.56360  0.12584  1.0000
  H   H592      1.0  0.75729  0.45294  0.08946  1.0000
  H   H593      1.0  0.63036  0.34932  0.01401  1.0000
  H   H594      1.0  0.75972  0.37378  0.16217  1.0000
  H   H595      1.0  0.66777  0.43134  0.05738  1.0000
  H   H596      1.0  0.85284  0.35572  0.01270  1.0000
  H   H597      1.0  0.80932  0.62274  0.45097  1.0000
  C   C738      1.0  0.79357  0.57355  0.09294  1.0000
  C   C739      1.0  0.81565  0.58277  0.11966  1.0000
  C   C740      1.0  0.81909  0.60421  0.14741  1.0000
  C   C741      1.0  0.80077  0.61738  0.14868  1.0000
  C   C742      1.0  0.77935  0.60892  0.12114  1.0000
  C   C743      1.0  0.77561  0.58714  0.09373  1.0000
  H   H598      1.0  0.83019  0.57308  0.11907  1.0000
  H   H599      1.0  0.83588  0.61045  0.16790  1.0000
  C   C744      1.0  0.84453  0.33323  0.02349  1.0000
  H   H600      1.0  0.75866  0.58072  0.07343  1.0000
  H   H601      1.0  0.73802  0.61803  0.19418  1.0000
  H   H602      1.0  0.73629  0.60391  0.47894  1.0000
  H   H603      1.0  0.91465  0.32132  0.06393  1.0000
  H   H604      1.0  0.76841  0.33139  0.17374  1.0000
  S   S100      1.0  0.80313  0.64392  0.18403  1.0000
  H   H605      1.0  0.80240  0.32886  0.04370  1.0000
  H   H606      1.0  0.76536  0.61922  0.12106  1.0000
  Fe  Fe50      1.0  0.76576  0.52183  0.00559  1.0000
  H   H607      1.0  0.72043  0.41402  0.03576  1.0000
  H   H608      1.0  0.72332  0.35138  0.99859  1.0000
  C   C745      1.0  0.77153  0.44632  0.07355  1.0000
  C   C746      1.0  0.67144  0.43559  0.11705  1.0000
  C   C747      1.0  0.67710  0.44659  0.08052  1.0000
  C   C748      1.0  0.69468  0.47736  0.07373  1.0000
  C   C749      1.0  0.70665  0.49721  0.10338  1.0000
  C   C750      1.0  0.70011  0.48647  0.14028  1.0000
  C   C751      1.0  0.68287  0.45545  0.14691  1.0000
  P   P26       1.0  0.71485  0.51242  0.17852  1.0000
  C   C752      1.0  0.75350  0.52251  0.18405  1.0000
  C   C753      1.0  0.71007  0.54462  0.17007  1.0000
  C   C754      1.0  0.72830  0.57238  0.18680  1.0000
  H   H609      1.0  0.77578  0.43524  0.14866  1.0000
  H   H610      1.0  0.68062  0.37445  0.14956  1.0000
  C   C755      1.0  0.68203  0.56601  0.14303  1.0000
  C   C756      1.0  0.68666  0.54161  0.14837  1.0000
  C   C757      1.0  0.76852  0.53842  0.21565  1.0000
  C   C758      1.0  0.79811  0.54553  0.22040  1.0000
  C   C759      1.0  0.81281  0.53636  0.19401  1.0000
  C   C760      1.0  0.79791  0.52006  0.16286  1.0000
  C   C761      1.0  0.76850  0.51334  0.15771  1.0000
  C   C762      1.0  0.69274  0.49466  0.22058  1.0000
  C   C763      1.0  0.66419  0.49167  0.22627  1.0000
  C   C764      1.0  0.64679  0.47770  0.25853  1.0000
  C   C765      1.0  0.65768  0.46647  0.28527  1.0000
  C   C766      1.0  0.68591  0.46903  0.27965  1.0000
  C   C767      1.0  0.70333  0.48292  0.24737  1.0000
  H   H611      1.0  0.69888  0.48584  0.04536  1.0000
  H   H612      1.0  0.72083  0.52097  0.09750  1.0000
  H   H613      1.0  0.67804  0.44656  0.17502  1.0000
  H   H614      1.0  0.74683  0.57597  0.20313  1.0000
  C   C768      1.0  0.81297  0.45959  0.02896  1.0000
  H   H615      1.0  0.65786  0.41170  0.12210  1.0000
  C   C769      1.0  0.80723  0.42991  0.02906  1.0000
  H   H616      1.0  0.67178  0.52039  0.13564  1.0000
  H   H617      1.0  0.75742  0.54532  0.23677  1.0000
  H   H618      1.0  0.80980  0.55859  0.24428  1.0000
  H   H619      1.0  0.83595  0.54249  0.19728  1.0000
  H   H620      1.0  0.80956  0.51378  0.14171  1.0000
  H   H621      1.0  0.75798  0.50160  0.13265  1.0000
  H   H622      1.0  0.65527  0.50009  0.20585  1.0000
  H   H623      1.0  0.67499  0.39399  0.21067  1.0000
  H   H624      1.0  0.64424  0.45584  0.31039  1.0000
  H   H625      1.0  0.69437  0.46042  0.30049  1.0000
  H   H626      1.0  0.72503  0.48451  0.24351  1.0000
  H   H627      1.0  0.82035  0.42335  0.01069  1.0000
  H   H628      1.0  0.62487  0.47569  0.26285  1.0000
  C   C770      1.0  0.72332  0.59658  0.18182  1.0000
  C   C771      1.0  0.75259  0.35581  0.14206  1.0000
  C   C772      1.0  0.73863  0.35649  0.10966  1.0000
  S   S101      1.0  0.74093  0.47112  0.00206  1.0000
  P   P27       1.0  0.73338  0.38815  0.10007  1.0000
  C   C773      1.0  0.70043  0.37580  0.07324  1.0000
  C   C774      1.0  0.72859  0.40360  0.14401  1.0000
  C   C775      1.0  0.70022  0.39211  0.16200  1.0000
  C   C776      1.0  0.69691  0.40315  0.19681  1.0000
  C   C777      1.0  0.72183  0.42582  0.21386  1.0000
  C   C778      1.0  0.75010  0.43761  0.19607  1.0000
  C   C779      1.0  0.75355  0.42636  0.16148  1.0000
  C   C780      1.0  0.70075  0.39313  0.04322  1.0000
  C   C781      1.0  0.67565  0.38341  0.02187  1.0000
  C   C782      1.0  0.64970  0.35659  0.03079  1.0000
  C   C783      1.0  0.64896  0.33925  0.06093  1.0000
  C   C784      1.0  0.67435  0.34858  0.08178  1.0000
  C   C785      1.0  0.76554  0.41636  0.07373  1.0000
  C   C786      1.0  0.78364  0.40834  0.05136  1.0000
  H   H629      1.0  0.88333  0.33074  0.00411  1.0000
  H   H630      1.0  0.71927  0.43400  0.24106  1.0000
  C   C787      1.0  0.79533  0.46786  0.05149  1.0000
  C   C788      1.0  0.70039  0.59353  0.15974  1.0000
  C   C789      1.0  0.97180  0.33549  0.00123  1.0000
  C   C790      1.0  0.95667  0.33862  0.03289  1.0000
  H   H631      1.0  0.67364  0.33457  0.10450  1.0000
  H   H632      1.0  0.67634  0.39681  0.99839  1.0000
  H   H633      1.0  0.72063  0.33353  0.05791  1.0000
  S   S102      1.0  0.82124  0.64840  0.37731  1.0000
  C   C791      1.0  0.82365  0.64668  0.45382  1.0000
  H   H634      1.0  0.83057  0.47601  0.01062  1.0000
  H   H635      1.0  0.53999  0.32052  0.04751  1.0000
  H   H636      1.0  0.60302  0.39399  0.00930  1.0000
  C   C792      1.0  0.75769  0.33185  0.14868  1.0000
  H   H637      1.0  0.96853  0.35658  0.05244  1.0000
  C   C793      1.0  0.92615  0.31873  0.03923  1.0000
  C   C794      1.0  0.86179  0.31901  0.01885  1.0000
  Fe  Fe51      1.0  0.75937  0.52842  0.92054  1.0000
  H   H638      1.0  0.73347  0.33481  0.90108  1.0000
  S   S103      1.0  0.77875  0.56818  0.87786  1.0000
  Fe  Fe52      1.0  0.76665  0.47529  0.94836  1.0000
  S   S104      1.0  0.78775  0.44629  0.93064  1.0000
  Fe  Fe53      1.0  0.70863  0.47571  0.96628  1.0000
  C   C795      1.0  0.76082  0.35050  0.97018  1.0000
  S   S105      1.0  0.73355  0.47799  0.91210  1.0000
  S   S106      1.0  0.79420  0.52558  0.95382  1.0000
  C   C796      1.0  0.63954  0.39974  0.92603  1.0000
  H   H639      1.0  0.68715  0.38833  0.80525  1.0000
  C   C797      1.0  0.77574  0.39488  0.76841  1.0000
  S   S107      1.0  0.73173  0.52645  0.97300  1.0000
  C   C798      1.0  0.80086  0.49528  0.74702  1.0000
  C   C799      1.0  0.74663  0.47245  0.79550  1.0000
  H   H640      1.0  0.75730  0.59862  0.53738  1.0000
  H   H641      1.0  0.76472  0.43611  0.85423  1.0000
  C   C800      1.0  0.78429  0.58273  0.83094  1.0000
  C   C801      1.0  0.80748  0.61216  0.82278  1.0000
  C   C802      1.0  0.81314  0.62431  0.78614  1.0000
  C   C803      1.0  0.79565  0.60722  0.75677  1.0000
  C   C804      1.0  0.77232  0.57794  0.76500  1.0000
  C   C805      1.0  0.76657  0.56594  0.80160  1.0000
  H   H642      1.0  0.82137  0.62565  0.84497  1.0000
  H   H643      1.0  0.80021  0.35719  0.93856  1.0000
  H   H644      1.0  0.75834  0.56448  0.74287  1.0000
  H   H645      1.0  0.74802  0.54390  0.80711  1.0000
  C   C806      1.0  0.63413  0.40791  0.96172  1.0000
  C   C807      1.0  0.79316  0.39535  0.93319  1.0000
  H   H646      1.0  0.70539  0.42596  0.85600  1.0000
  C   C808      1.0  0.59202  0.35222  0.93027  1.0000
  H   H647      1.0  0.65933  0.41519  0.90993  1.0000
  C   C809      1.0  0.67967  0.35157  0.84069  1.0000
  C   C810      1.0  0.72452  0.45149  0.77266  1.0000
  C   C811      1.0  0.82716  0.49591  0.73322  1.0000
  C   C812      1.0  0.60765  0.38785  0.98179  1.0000
  H   H648      1.0  0.66522  0.45887  0.80548  1.0000
  H   H649      1.0  0.55099  0.64768  0.81779  1.0000
  C   C813      1.0  0.75960  0.62009  0.52985  1.0000
  C   C814      1.0  0.77586  0.40873  0.94457  1.0000
  H   H650      1.0  0.77813  0.38297  0.74438  1.0000
  C   C815      1.0  0.78581  0.36650  0.94605  1.0000
  H   H651      1.0  0.56062  0.60510  0.80870  1.0000
  H   H652      1.0  0.67825  0.43043  0.75856  1.0000
  H   H653      1.0  0.72990  0.43882  0.75224  1.0000
  C   C816      1.0  0.69127  0.36399  0.90550  1.0000
  C   C817      1.0  0.69867  0.40274  0.86174  1.0000
  C   C818      1.0  0.84020  0.51469  0.87811  1.0000
  H   H654      1.0  0.75507  0.38436  0.86083  1.0000
  H   H655      1.0  0.77083  0.51312  0.73952  1.0000
  C   C819      1.0  0.84694  0.54464  0.87686  1.0000
  H   H656      1.0  0.70429  0.49636  0.84545  1.0000
  H   H657      1.0  0.84257  0.54092  0.65720  1.0000
  C   C820      1.0  0.75030  0.39233  0.96753  1.0000
  C   C821      1.0  0.76847  0.42504  0.83016  1.0000
  H   H658      1.0  0.75579  0.50521  0.83920  1.0000
  S   S108      1.0  0.80160  0.62084  0.70949  1.0000
  S   S109      1.0  0.65924  0.44315  0.98191  1.0000
  C   C822      1.0  0.61870  0.37213  0.91047  1.0000
  C   C823      1.0  0.69527  0.44666  0.77616  1.0000
  H   H659      1.0  0.86092  0.56036  0.89750  1.0000
  C   C824      1.0  0.68834  0.38154  0.83319  1.0000
  H   H660      1.0  0.83661  0.48455  0.74815  1.0000
  C   C825      1.0  0.76631  0.38040  0.80307  1.0000
  H   H661      1.0  0.78820  0.43501  0.73736  1.0000
  H   H662      1.0  0.69272  0.35770  0.93362  1.0000
  C   C826      1.0  0.84188  0.51191  0.70058  1.0000
  H   H663      1.0  0.83995  0.57733  0.84866  1.0000
  H   H664      1.0  0.70889  0.41052  0.91980  1.0000
  H   H665      1.0  0.67206  0.33538  0.81826  1.0000
  C   C827      1.0  0.76267  0.39550  0.83393  1.0000
  C   C828      1.0  0.70053  0.39403  0.89774  1.0000
  C   C829      1.0  0.74286  0.36345  0.98030  1.0000
  H   H666      1.0  0.81297  0.40780  0.91533  1.0000
  C   C830      1.0  0.81605  0.53370  0.82365  1.0000
  H   H667      1.0  0.76154  0.35739  0.80595  1.0000
  C   C831      1.0  0.83513  0.55419  0.84937  1.0000
  C   C832      1.0  0.75111  0.65090  0.48703  1.0000
  C   C833      1.0  0.61478  0.64604  0.86947  1.0000
  C   C834      1.0  0.58679  0.36013  0.96629  1.0000
  C   C835      1.0  0.56860  0.64721  0.83271  1.0000
  C   C836      1.0  0.68790  0.46269  0.80252  1.0000
  H   H668      1.0  0.81716  0.47138  0.85364  1.0000
  H   H669      1.0  0.62302  0.36641  0.88256  1.0000
  C   C837      1.0  0.79012  0.51180  0.72846  1.0000
  C   C838      1.0  0.80850  0.50336  0.82525  1.0000
  H   H670      1.0  0.79709  0.54139  0.68251  1.0000
  H   H671      1.0  0.60147  0.60397  0.84147  1.0000
  P   P28       1.0  0.78391  0.47751  0.79129  1.0000
  C   C839      1.0  0.78179  0.42457  0.76465  1.0000
  C   C840      1.0  0.73915  0.48867  0.82152  1.0000
  C   C841      1.0  0.57415  0.62321  0.82729  1.0000
  C   C842      1.0  0.83084  0.52799  0.68204  1.0000
  H   H672      1.0  0.86222  0.51242  0.69008  1.0000
  C   C843      1.0  0.59720  0.62260  0.84569  1.0000
  C   C844      1.0  0.80508  0.52806  0.69611  1.0000
  H   H673      1.0  0.84903  0.50710  0.89969  1.0000
  C   C845      1.0  0.68056  0.34253  0.87705  1.0000
  C   C846      1.0  0.82142  0.49420  0.85213  1.0000
  H   H674      1.0  0.80683  0.54155  0.80290  1.0000
  C   C847      1.0  0.77889  0.44014  0.79579  1.0000
  C   C848      1.0  0.70986  0.48373  0.82509  1.0000
  C   C849      1.0  0.74782  0.62309  0.49693  1.0000
  H   H675      1.0  0.71614  0.62767  0.74460  1.0000
  H   H676      1.0  0.77594  0.32869  0.87696  1.0000
  H   H677      1.0  0.73664  0.40221  0.97601  1.0000
  H   H678      1.0  0.82449  0.64463  0.51396  1.0000
  H   H679      1.0  0.78436  0.64275  0.57803  1.0000
  H   H680      1.0  0.52689  0.64871  0.89075  1.0000
  C   C850      1.0  0.77482  0.64494  0.55278  1.0000
  H   H681      1.0  0.56631  0.34527  0.98174  1.0000
  H   H682      1.0  0.83114  0.64687  0.78062  1.0000
  H   H683      1.0  0.63275  0.64562  0.88357  1.0000
  C   C851      1.0  0.72929  0.65194  0.74456  1.0000
  Fe  Fe54      1.0  0.52894  0.75740  0.00868  1.0000
  C   C852      1.0  0.77434  0.71492  0.16079  1.0000
  S   S110      1.0  0.56487  0.76145  0.04890  1.0000
  Fe  Fe55      1.0  0.66709  0.83487  0.23699  1.0000
  S   S111      1.0  0.71562  0.86221  0.21807  1.0000
  S   S112      1.0  0.62838  0.82820  0.20007  1.0000
  Fe  Fe56      1.0  0.68466  0.83040  0.31877  1.0000
  S   S113      1.0  0.73374  0.85656  0.30369  1.0000
  S   S114      1.0  0.66837  0.80954  0.37714  1.0000
  Fe  Fe57      1.0  0.72249  0.88743  0.27242  1.0000
  S   S115      1.0  0.74192  0.93691  0.28847  1.0000
  Fe  Fe58      1.0  0.72241  0.82881  0.25141  1.0000
  S   S116      1.0  0.74360  0.80155  0.22711  1.0000
  S   S117      1.0  0.67358  0.86198  0.28983  1.0000
  S   S118      1.0  0.67357  0.80061  0.26793  1.0000
  S   S119      1.0  0.86523  0.71958  0.22876  1.0000
  C   C853      1.0  0.79966  0.76938  0.11295  1.0000
  S   S120      1.0  0.87158  0.72166  0.31949  1.0000
  Fe  Fe59      1.0  0.84222  0.72746  0.27961  1.0000
  S   S121      1.0  0.83620  0.76808  0.29409  1.0000
  Fe  Fe60      1.0  0.89154  0.70990  0.26959  1.0000
  S   S122      1.0  0.94038  0.72099  0.26908  1.0000
  C   C854      1.0  0.81398  0.69338  0.09779  1.0000
  C   C855      1.0  0.72167  0.69011  0.18034  1.0000
  H   H684      1.0  0.86014  0.71038  0.40160  1.0000
  H   H685      1.0  0.81424  0.82285  0.48144  1.0000
  H   H686      1.0  0.87423  0.73231  0.46465  1.0000
  H   H687      1.0  0.81942  0.81905  0.04086  1.0000
  H   H688      1.0  0.95640  0.78172  0.24420  1.0000
  C   C856      1.0  0.95728  0.79115  0.44789  1.0000
  C   C857      1.0  0.68612  0.94860  0.43752  1.0000
  C   C858      1.0  0.76742  0.97165  0.26665  1.0000
  C   C859      1.0  0.96888  0.75455  0.39136  1.0000
  C   C860      1.0  0.78413  0.97349  0.23391  1.0000
  H   H689      1.0  0.78161  0.95317  0.22091  1.0000
  C   C861      1.0  0.76681  0.79102  0.25045  1.0000
  C   C862      1.0  0.78941  0.81110  0.27316  1.0000
  C   C863      1.0  0.81003  0.80346  0.28705  1.0000
  C   C864      1.0  0.80816  0.77562  0.27873  1.0000
  C   C865      1.0  0.78468  0.75499  0.25763  1.0000
  C   C866      1.0  0.76438  0.76281  0.24315  1.0000
  H   H690      1.0  0.79179  0.83302  0.27865  1.0000
  H   H691      1.0  0.82804  0.81962  0.30337  1.0000
  H   H692      1.0  0.78271  0.73337  0.25167  1.0000
  H   H693      1.0  0.74690  0.74705  0.22578  1.0000
  C   C867      1.0  0.67796  0.82674  0.42179  1.0000
  C   C868      1.0  0.69227  0.85789  0.42634  1.0000
  C   C869      1.0  0.67000  0.80841  0.45381  1.0000
  H   H694      1.0  0.69819  0.87226  0.40210  1.0000
  H   H695      1.0  0.65864  0.78430  0.45069  1.0000
  C   C870      1.0  0.58230  0.78050  0.09088  1.0000
  C   C871      1.0  0.57303  0.79811  0.11171  1.0000
  C   C872      1.0  0.58726  0.81223  0.14493  1.0000
  C   C873      1.0  0.61116  0.80927  0.15793  1.0000
  C   C874      1.0  0.62063  0.79188  0.13689  1.0000
  C   C875      1.0  0.60630  0.77765  0.10376  1.0000
  H   H696      1.0  0.55460  0.80051  0.10248  1.0000
  H   H697      1.0  0.57954  0.82536  0.16097  1.0000
  H   H698      1.0  0.63887  0.78921  0.14628  1.0000
  H   H699      1.0  0.61377  0.76410  0.08812  1.0000
  C   C876      1.0  0.78175  0.87136  0.42197  1.0000
  C   C877      1.0  0.80484  0.92415  0.43857  1.0000
  C   C878      1.0  0.80204  0.89576  0.44295  1.0000
  C   C879      1.0  0.69998  0.76310  0.36337  1.0000
  C   C880      1.0  0.69816  0.76319  0.40234  1.0000
  C   C881      1.0  0.72207  0.78475  0.42218  1.0000
  C   C882      1.0  0.62352  0.87432  0.01116  1.0000
  H   H700      1.0  0.71977  0.78458  0.45223  1.0000
  H   H701      1.0  0.68098  0.74720  0.34800  1.0000
  C   C883      1.0  0.81243  0.67306  0.07022  1.0000
  C   C884      1.0  0.77340  0.72339  0.37048  1.0000
  H   H702      1.0  0.68122  0.98095  0.37243  1.0000
  C   C885      1.0  0.60960  0.84284  0.01111  1.0000
  C   C886      1.0  0.71160  0.97302  0.45143  1.0000
  C   C887      1.0  0.60480  0.93777  0.03870  1.0000
  H   H703      1.0  0.87144  0.79888  0.22665  1.0000
  H   H704      1.0  0.71127  0.96780  0.25441  1.0000
  H   H705      1.0  0.87789  0.83144  0.35462  1.0000
  C   C888      1.0  0.71640  0.94342  0.38747  1.0000
  H   H706      1.0  0.54365  0.85167  0.15568  1.0000
  H   H707      1.0  0.56243  0.85977  0.01837  1.0000
  H   H708      1.0  0.67771  0.74725  0.41710  1.0000
  H   H709      1.0  0.77530  0.72693  0.34052  1.0000
  H   H710      1.0  0.75321  0.90733  0.37308  1.0000
  Fe  Fe61      1.0  0.83679  0.67341  0.32145  1.0000
  C   C889      1.0  0.78371  0.80630  0.12630  1.0000
  H   H711      1.0  0.77305  0.81534  0.14532  1.0000
  H   H712      1.0  0.82349  0.69337  0.12413  1.0000
  H   H713      1.0  0.90925  0.77382  0.40160  1.0000
  C   C890      1.0  0.52405  0.83951  0.10199  1.0000
  H   H714      1.0  0.68713  0.91373  0.24125  1.0000
  C   C891      1.0  0.69064  0.95738  0.23979  1.0000
  H   H715      1.0  0.94543  0.74540  0.46181  1.0000
  C   C892      1.0  0.67685  0.92662  0.23267  1.0000
  S   S123      1.0  0.80601  0.67935  0.28410  1.0000
  C   C893      1.0  0.65763  0.95369  0.03215  1.0000
  C   C894      1.0  0.74196  0.96763  0.40146  1.0000
  C   C895      1.0  0.91614  0.80698  0.31789  1.0000
  C   C896      1.0  0.86019  0.70834  0.46177  1.0000
  H   H716      1.0  0.58551  0.70765  0.99839  1.0000
  H   H717      1.0  0.66895  0.91437  0.39522  1.0000
  H   H718      1.0  0.90247  0.80948  0.29770  1.0000
  H   H719      1.0  0.76960  0.82234  0.34842  1.0000
  H   H720      1.0  0.91632  0.79963  0.19668  1.0000
  C   C897      1.0  0.66238  0.92129  0.10753  1.0000
  P   P29       1.0  0.80418  0.73843  0.12810  1.0000
  H   H721      1.0  0.74697  0.85702  0.38209  1.0000
  C   C898      1.0  0.55871  0.85821  0.04842  1.0000
  H   H722      1.0  0.77768  0.77224  0.16483  1.0000
  C   C899      1.0  0.72588  0.78429  0.34414  1.0000
  H   H723      1.0  0.59536  0.88063  0.12967  1.0000
  C   C900      1.0  0.67052  0.87183  0.11776  1.0000
  C   C901      1.0  0.78611  0.78152  0.13720  1.0000
  C   C902      1.0  0.74800  0.80650  0.40301  1.0000
  H   H724      1.0  0.72703  0.78453  0.31389  1.0000
  C   C903      1.0  0.77928  0.69893  0.18828  1.0000
  P   P30       1.0  0.77914  0.83511  0.42756  1.0000
  H   H725      1.0  0.58181  0.92079  0.04454  1.0000
  S   S124      1.0  0.85793  0.66034  0.27335  1.0000
  H   H726      1.0  0.70873  0.89450  0.46550  1.0000
  C   C904      1.0  0.74987  0.80580  0.36385  1.0000
  C   C905      1.0  0.80979  0.80830  0.06756  1.0000
  H   H727      1.0  0.92548  0.68941  0.34562  1.0000
  H   H728      1.0  0.83353  0.88116  0.38670  1.0000
  C   C906      1.0  0.81191  0.83523  0.40705  1.0000
  C   C907      1.0  0.95095  0.79836  0.36912  1.0000
  H   H729      1.0  0.61579  0.91810  0.18958  1.0000
  H   H730      1.0  0.96346  0.83592  0.44226  1.0000
  C   C908      1.0  0.78711  0.69048  0.03082  1.0000
  H   H731      1.0  0.71820  0.93175  0.36279  1.0000
  C   C909      1.0  0.75367  0.72758  0.43173  1.0000
  H   H732      1.0  0.74055  0.72076  0.13418  1.0000
  C   C910      1.0  0.94556  0.73334  0.37021  1.0000
  C   C911      1.0  0.78753  0.92841  0.41310  1.0000
  C   C912      1.0  0.83459  0.86061  0.38823  1.0000
  C   C913      1.0  0.64654  0.89538  0.08597  1.0000
  C   C914      1.0  0.74517  0.70966  0.15622  1.0000
  H   H733      1.0  0.66453  0.94081  0.45185  1.0000
  H   H734      1.0  0.70184  0.89865  0.15884  1.0000
  C   C915      1.0  0.76373  0.87562  0.39737  1.0000
  H   H735      1.0  0.92946  0.73835  0.35865  1.0000
  H   H736      1.0  0.79003  0.95047  0.40937  1.0000
  C   C916      1.0  0.86530  0.75790  0.13270  1.0000
  C   C917      1.0  0.84221  0.77181  0.18386  1.0000
  C   C918      1.0  0.78882  0.71102  0.05826  1.0000
  C   C919      1.0  0.76690  0.90415  0.39263  1.0000
  C   C920      1.0  0.85858  0.85933  0.36997  1.0000
  C   C921      1.0  0.83962  0.75654  0.15018  1.0000
  H   H737      1.0  0.61797  0.76269  0.99987  1.0000
  C   C922      1.0  0.95535  0.81641  0.46019  1.0000
  C   C923      1.0  0.97441  0.75565  0.26679  1.0000
  C   C924      1.0  0.85226  0.69594  0.42589  1.0000
  H   H738      1.0  0.69940  0.68684  0.17736  1.0000
  C   C925      1.0  0.68279  0.92271  0.13299  1.0000
  H   H739      1.0  0.63776  0.84972  0.07694  1.0000
  H   H740      1.0  0.79589  0.78870  0.42066  1.0000
  C   C926      1.0  0.78873  0.71058  0.38662  1.0000
  H   H741      1.0  0.80134  0.70165  0.19133  1.0000
  C   C927      1.0  0.79906  0.67162  0.03672  1.0000
  C   C928      1.0  0.89283  0.77327  0.14955  1.0000
  C   C929      1.0  0.94542  0.76566  0.47098  1.0000
  C   C930      1.0  0.83726  0.80727  0.38835  1.0000
  C   C931      1.0  0.65062  0.96009  0.21030  1.0000
  P   P31       1.0  0.62048  0.89365  0.05247  1.0000
  H   H742      1.0  0.79365  0.83894  0.08317  1.0000
  C   C932      1.0  0.54786  0.85381  0.12572  1.0000
  C   C933      1.0  0.94318  0.70535  0.36278  1.0000
  C   C934      1.0  0.63675  0.92920  0.20348  1.0000
  C   C935      1.0  0.65049  0.87048  0.09174  1.0000
  C   C936      1.0  0.80301  0.71317  0.09157  1.0000
  H   H743      1.0  0.82984  0.74898  0.46486  1.0000
  C   C937      1.0  0.57718  0.87016  0.11085  1.0000
  C   C938      1.0  0.75562  0.67901  0.21194  1.0000
  H   H744      1.0  0.77861  0.72474  0.05368  1.0000
  C   C939      1.0  0.62812  0.93104  0.04040  1.0000
  C   C940      1.0  0.81222  0.78347  0.07844  1.0000
  H   H745      1.0  0.79871  0.69644  0.43728  1.0000
  H   H746      1.0  0.63990  0.97246  0.20164  1.0000
  C   C941      1.0  0.77529  0.82852  0.47724  1.0000
  H   H747      1.0  0.95689  0.83017  0.28416  1.0000
  H   H748      1.0  0.93819  0.68426  0.47620  1.0000
  H   H749      1.0  0.83762  0.78626  0.38722  1.0000
  C   C942      1.0  0.81347  0.80861  0.40697  1.0000
  C   C943      1.0  0.92019  0.78699  0.37665  1.0000
  C   C944      1.0  0.75565  0.73159  0.39297  1.0000
  C   C945      1.0  0.73978  0.98258  0.43373  1.0000
  C   C946      1.0  0.58283  0.87213  0.07208  1.0000
  S   S125      1.0  0.47892  0.73905  0.01544  1.0000
  H   H750      1.0  0.74369  0.74139  0.38028  1.0000
  H   H751      1.0  0.82425  0.77557  0.06020  1.0000
  C   C947      1.0  0.61096  0.96672  0.02915  1.0000
  C   C948      1.0  0.68674  0.89793  0.13825  1.0000
  C   C949      1.0  0.69817  0.87043  0.46241  1.0000
  H   H752      1.0  0.82296  0.77191  0.19715  1.0000
  C   C950      1.0  0.52947  0.84181  0.06335  1.0000
  C   C951      1.0  0.76951  0.71525  0.44823  1.0000
  C   C952      1.0  0.86980  0.78745  0.20041  1.0000
  C   C953      1.0  0.72693  0.67487  0.20831  1.0000
  C   C954      1.0  0.79539  0.81960  0.09141  1.0000
  C   C955      1.0  0.85987  0.83266  0.36992  1.0000
  H   H753      1.0  0.67292  0.85230  0.12277  1.0000
  H   H754      1.0  0.87576  0.87878  0.35491  1.0000
  H   H755      1.0  0.59285  0.97172  0.02773  1.0000
  C   C956      1.0  0.78666  0.70638  0.42524  1.0000
  H   H756      1.0  0.63903  0.88850  0.20968  1.0000
  H   H757      1.0  0.69502  0.94274  0.14946  1.0000
  C   C957      1.0  0.83355  0.66501  0.42170  1.0000
  H   H758      1.0  0.67592  0.94890  0.03288  1.0000
  H   H759      1.0  0.50139  0.82643  0.11346  1.0000
  C   C958      1.0  0.90295  0.79137  0.35116  1.0000
  Fe  Fe62      1.0  0.83033  0.67042  0.23508  1.0000
  H   H760      1.0  0.86430  0.74736  0.10601  1.0000
  H   H761      1.0  0.74000  0.73434  0.44852  1.0000
  H   H762      1.0  0.87905  0.78151  0.35634  1.0000
  H   H763      1.0  0.51102  0.83065  0.04487  1.0000
  C   C959      1.0  0.96408  0.81423  0.33567  1.0000
  H   H764      1.0  0.65885  0.94034  0.10518  1.0000
  C   C960      1.0  0.89508  0.78800  0.18343  1.0000
  H   H765      1.0  0.96237  0.67679  0.36979  1.0000
  H   H766      1.0  0.80228  0.70388  0.36920  1.0000
  H   H767      1.0  0.59748  0.82989  0.03577  1.0000
  C   C961      1.0  0.94671  0.81852  0.31025  1.0000
  H   H768      1.0  0.91244  0.77370  0.13640  1.0000
  C   C962      1.0  0.96404  0.69831  0.37630  1.0000
  H   H769      1.0  0.81569  0.89280  0.46268  1.0000
  C   C963      1.0  0.64976  0.91244  0.21489  1.0000
  H   H770      1.0  0.77623  0.68890  0.00510  1.0000
  H   H771      1.0  0.82042  0.94286  0.45494  1.0000
  H   H772      1.0  0.75959  0.66666  0.23299  1.0000
  C   C964      1.0  0.68856  0.93367  0.40569  1.0000
  C   C965      1.0  0.66371  0.98261  0.02270  1.0000
  H   H773      1.0  0.76334  0.97411  0.38737  1.0000
  C   C966      1.0  0.67764  0.97440  0.22879  1.0000
  P   P32       1.0  0.97241  0.79084  0.40149  1.0000
  H   H774      1.0  0.75109  0.94528  0.47171  1.0000
  H   H775      1.0  0.70877  0.65973  0.22706  1.0000
  H   H776      1.0  0.82117  0.65803  0.07518  1.0000
  H   H777      1.0  0.66786  0.97490  0.30667  1.0000
  C   C967      1.0  0.97638  0.78193  0.25276  1.0000
  H   H778      1.0  0.79758  0.65554  0.01562  1.0000
  H   H779      1.0  0.70944  0.98387  0.47663  1.0000
  H   H780      1.0  0.74138  0.65265  0.46174  1.0000
  Fe  Fe63      1.0  0.53075  0.76826  0.92392  1.0000
  S   S126      1.0  0.57166  0.78939  0.88182  1.0000
  C   C968      1.0  0.58482  0.70546  0.93825  1.0000
  Fe  Fe64      1.0  0.66307  0.82857  0.67714  1.0000
  S   S127      1.0  0.70534  0.83575  0.70207  1.0000
  S   S128      1.0  0.61722  0.80935  0.70893  1.0000
  Fe  Fe65      1.0  0.69517  0.85141  0.59827  1.0000
  S   S129      1.0  0.73924  0.86017  0.61932  1.0000
  S   S130      1.0  0.69737  0.86932  0.53923  1.0000
  Fe  Fe66      1.0  0.71317  0.81574  0.64894  1.0000
  S   S131      1.0  0.72248  0.77651  0.64233  1.0000
  Fe  Fe67      1.0  0.72754  0.87955  0.66968  1.0000
  S   S132      1.0  0.76116  0.92414  0.69413  1.0000
  S   S133      1.0  0.66932  0.80580  0.62536  1.0000
  S   S134      1.0  0.68494  0.87345  0.64768  1.0000
  S   S135      1.0  0.86366  0.70886  0.70966  1.0000
  H   H781      1.0  0.64867  0.91433  0.97687  1.0000
  S   S136      1.0  0.88568  0.74135  0.62764  1.0000
  Fe  Fe68      1.0  0.89869  0.71533  0.66464  1.0000
  S   S137      1.0  0.94629  0.72353  0.67122  1.0000
  Fe  Fe69      1.0  0.84787  0.73119  0.66932  1.0000
  S   S138      1.0  0.83751  0.76867  0.68530  1.0000
  H   H782      1.0  0.73092  0.82718  0.55148  1.0000
  C   C969      1.0  0.74919  0.82630  0.53627  1.0000
  H   H783      1.0  0.67275  0.66901  0.57194  1.0000
  S   S139      1.0  0.52382  0.72841  0.95784  1.0000
  H   H784      1.0  0.96189  0.78720  0.67352  1.0000
  S   S140      1.0  0.81564  0.68849  0.64165  1.0000
  C   C970      1.0  0.76766  0.95738  0.67131  1.0000
  C   C971      1.0  0.76946  0.82114  0.55505  1.0000
  C   C972      1.0  0.75405  0.95625  0.63805  1.0000
  C   C973      1.0  0.69204  0.70610  0.90353  1.0000
  H   H785      1.0  0.73912  0.93481  0.62591  1.0000
  C   C974      1.0  0.75546  0.77557  0.65249  1.0000
  C   C975      1.0  0.77960  0.79978  0.66886  1.0000
  C   C976      1.0  0.80453  0.79731  0.67868  1.0000
  C   C977      1.0  0.80589  0.77086  0.67157  1.0000
  C   C978      1.0  0.78206  0.74691  0.65428  1.0000
  C   C979      1.0  0.75699  0.74927  0.64484  1.0000
  H   H786      1.0  0.77889  0.82026  0.67451  1.0000
  H   H787      1.0  0.82286  0.81598  0.69199  1.0000
  H   H788      1.0  0.78275  0.72642  0.64865  1.0000
  H   H789      1.0  0.73852  0.73046  0.63193  1.0000
  H   H790      1.0  0.61742  0.76669  0.88082  1.0000
  H   H791      1.0  0.56095  0.70899  0.78742  1.0000
  H   H792      1.0  0.80857  0.81606  0.54976  1.0000
  H   H793      1.0  0.87598  0.78866  0.49030  1.0000
  H   H794      1.0  0.66963  0.80652  0.51416  1.0000
  C   C980      1.0  0.58375  0.79577  0.83349  1.0000
  C   C981      1.0  0.56376  0.78661  0.80461  1.0000
  C   C982      1.0  0.57446  0.79127  0.76691  1.0000
  C   C983      1.0  0.60529  0.80524  0.75730  1.0000
  C   C984      1.0  0.62533  0.81479  0.78617  1.0000
  C   C985      1.0  0.61462  0.81001  0.82389  1.0000
  H   H795      1.0  0.54000  0.77579  0.81129  1.0000
  H   H796      1.0  0.55868  0.78383  0.74498  1.0000
  H   H797      1.0  0.64907  0.82550  0.77944  1.0000
  H   H798      1.0  0.63040  0.81729  0.84580  1.0000
  H   H799      1.0  0.71966  0.68078  0.83255  1.0000
  C   C986      1.0  0.83014  0.77317  0.56785  1.0000
  C   C987      1.0  0.63140  0.74262  0.81969  1.0000
  H   H800      1.0  0.58897  0.73780  0.73110  1.0000
  C   C988      1.0  0.77594  0.69712  0.73027  1.0000
  H   H801      1.0  0.73689  0.83514  0.48369  1.0000
  C   C989      1.0  0.75639  0.81243  0.75231  1.0000
  C   C990      1.0  0.78371  0.82436  0.76942  1.0000
  C   C991      1.0  0.79072  0.80557  0.78921  1.0000
  C   C992      1.0  0.77048  0.77481  0.79172  1.0000
  C   C993      1.0  0.74335  0.76246  0.77360  1.0000
  C   C994      1.0  0.73623  0.78162  0.75428  1.0000
  P   P33       1.0  0.71762  0.72262  0.77780  1.0000
  C   C995      1.0  0.73404  0.70074  0.75891  1.0000
  C   C996      1.0  0.70767  0.71568  0.82698  1.0000
  C   C997      1.0  0.62127  0.76771  0.93999  1.0000
  H   H802      1.0  0.67450  0.71823  0.57955  1.0000
  C   C998      1.0  0.97055  0.66780  0.76712  1.0000
  C   C999      1.0  0.93242  0.76573  0.50605  1.0000
  C   C1000     1.0  0.71076  0.69384  0.84640  1.0000
  S   S141      1.0  0.85987  0.70735  0.53835  1.0000
  C   C1001     1.0  0.76687  0.67614  0.50958  1.0000
  H   H803      1.0  0.62544  0.95249  0.74402  1.0000
  C   C1002     1.0  0.77154  0.94347  0.52124  1.0000
  C   C1003     1.0  0.76355  0.71455  0.74394  1.0000
  C   C1004     1.0  0.68452  0.71156  0.75198  1.0000
  C   C1005     1.0  0.65583  0.69679  0.76946  1.0000
  H   H804      1.0  0.68613  0.70248  0.93312  1.0000
  C   C1006     1.0  0.63384  0.69525  0.71062  1.0000
  C   C1007     1.0  0.66226  0.70933  0.69297  1.0000
  C   C1008     1.0  0.68744  0.71701  0.71346  1.0000
  H   H805      1.0  0.75117  0.82705  0.73668  1.0000
  H   H806      1.0  0.79952  0.84815  0.76703  1.0000
  H   H807      1.0  0.81201  0.81478  0.80225  1.0000
  H   H808      1.0  0.77626  0.76053  0.80718  1.0000
  H   H809      1.0  0.71544  0.77311  0.74035  1.0000
  C   C1009     1.0  0.61192  0.75127  0.97328  1.0000
  H   H810      1.0  0.97594  0.68431  0.71089  1.0000
  C   C1010     1.0  0.60078  0.73866  0.75576  1.0000
  H   H811      1.0  0.64907  0.88698  0.92008  1.0000
  C   C1011     1.0  0.69011  0.85210  0.49443  1.0000
  H   H812      1.0  0.94133  0.83605  0.50499  1.0000
  H   H813      1.0  0.92271  0.74584  0.52348  1.0000
  H   H814      1.0  0.77719  0.73868  0.74220  1.0000
  C   C1012     1.0  0.75236  0.83041  0.49768  1.0000
  C   C1013     1.0  0.70283  0.68902  0.88451  1.0000
  C   C1014     1.0  0.60924  0.67003  0.87501  1.0000
  H   H815      1.0  0.66500  0.71475  0.66346  1.0000
  H   H816      1.0  0.70932  0.72785  0.69939  1.0000
  C   C1015     1.0  0.58362  0.95249  0.65684  1.0000
  C   C1016     1.0  0.93124  0.79112  0.51850  1.0000
  C   C1017     1.0  0.56883  0.94538  0.69196  1.0000
  C   C1018     1.0  0.85570  0.77842  0.50782  1.0000
  C   C1019     1.0  0.59402  0.72187  0.90468  1.0000
  C   C1020     1.0  0.67617  0.82096  0.48988  1.0000
  H   H817      1.0  0.72787  0.93844  0.75296  1.0000
  H   H818      1.0  0.69537  0.75043  0.83202  1.0000
  C   C1021     1.0  0.79580  0.82357  0.49622  1.0000
  C   C1022     1.0  0.63843  0.87476  0.94570  1.0000
  H   H819      1.0  0.87674  0.80407  0.55658  1.0000
  C   C1023     1.0  0.71679  0.66928  0.75835  1.0000
  C   C1024     1.0  0.96789  0.72921  0.56725  1.0000
  H   H820      1.0  0.92089  0.79073  0.54570  1.0000
  C   C1025     1.0  0.93745  0.70906  0.56456  1.0000
  C   C1026     1.0  0.69720  0.73300  0.84640  1.0000
  P   P34       1.0  0.76889  0.71141  0.49839  1.0000
  C   C1027     1.0  0.79102  0.95970  0.54924  1.0000
  C   C1028     1.0  0.73756  0.71281  0.52149  1.0000
  H   H821      1.0  0.69703  0.94983  0.52989  1.0000
  H   H822      1.0  0.71582  0.76352  0.54979  1.0000
  H   H823      1.0  0.62458  0.96495  0.62549  1.0000
  C   C1029     1.0  0.49012  0.65689  0.88554  1.0000
  C   C1030     1.0  0.94660  0.69666  0.50172  1.0000
  H   H824      1.0  0.67121  0.77244  0.78699  1.0000
  C   C1031     1.0  0.68930  0.72815  0.88449  1.0000
  H   H825      1.0  0.64389  0.76918  0.73055  1.0000
  H   H826      1.0  0.74954  0.98179  0.59424  1.0000
  C   C1032     1.0  0.65452  0.89355  0.73577  1.0000
  C   C1033     1.0  0.68256  0.90254  0.74965  1.0000
  C   C1034     1.0  0.70585  0.93178  0.74324  1.0000
  H   H827      1.0  0.65272  0.69158  0.79894  1.0000
  C   C1035     1.0  0.67299  0.94329  0.70908  1.0000
  C   C1036     1.0  0.64976  0.91371  0.71538  1.0000
  H   H828      1.0  0.75968  0.91911  0.52216  1.0000
  H   H829      1.0  0.71276  0.66543  0.53584  1.0000
  C   C1037     1.0  0.85616  0.78705  0.54506  1.0000
  H   H830      1.0  0.57006  0.68142  0.93815  1.0000
  Fe  Fe70      1.0  0.85426  0.69734  0.60128  1.0000
  Fe  Fe71      1.0  0.83330  0.66622  0.67991  1.0000
  H   H831      1.0  0.92213  0.70641  0.58782  1.0000
  H   H832      1.0  0.76700  0.81807  0.58509  1.0000
  C   C1038     1.0  0.59362  0.72016  0.97241  1.0000
  C   C1039     1.0  0.71515  0.74215  0.54602  1.0000
  H   H833      1.0  0.68133  0.74169  0.89933  1.0000
  P   P35       1.0  0.66751  0.96828  0.67951  1.0000
  H   H834      1.0  0.62364  0.83152  0.92042  1.0000
  C   C1040     1.0  0.70123  0.95201  0.72274  1.0000
  C   C1041     1.0  0.67312  0.93465  0.62073  1.0000
  C   C1042     1.0  0.68057  0.93023  0.58412  1.0000
  C   C1043     1.0  0.64716  0.75846  0.78738  1.0000
  C   C1044     1.0  0.60008  0.72535  0.82062  1.0000
  C   C1045     1.0  0.63183  0.75648  0.75544  1.0000
  H   H835      1.0  0.63664  0.87064  0.73995  1.0000
  H   H836      1.0  0.68644  0.88663  0.76455  1.0000
  C   C1046     1.0  0.82929  0.75577  0.49340  1.0000
  C   C1047     1.0  0.62893  0.95953  0.68424  1.0000
  H   H837      1.0  0.62816  0.90582  0.70364  1.0000
  H   H838      1.0  0.63491  0.79187  0.94071  1.0000
  C   C1048     1.0  0.58401  0.94544  0.72327  1.0000
  C   C1049     1.0  0.61358  0.95958  0.65294  1.0000
  C   C1050     1.0  0.92673  0.69287  0.53177  1.0000
  C   C1051     1.0  0.62424  0.84347  0.94589  1.0000
  C   C1052     1.0  0.80297  0.74168  0.51610  1.0000
  C   C1053     1.0  0.69094  0.95345  0.55802  1.0000
  P   P36       1.0  0.58036  0.70265  0.86125  1.0000
  H   H839      1.0  0.60857  0.67785  0.76243  1.0000
  H   H840      1.0  0.66489  0.91625  0.64030  1.0000
  H   H841      1.0  0.67850  0.90876  0.57606  1.0000
  H   H842      1.0  0.79883  0.70796  0.71915  1.0000
  C   C1054     1.0  0.50188  0.70442  0.85790  1.0000
  C   C1055     1.0  0.79284  0.81993  0.53505  1.0000
  C   C1056     1.0  0.53181  0.71171  0.85310  1.0000
  C   C1057     1.0  0.77851  0.67287  0.54271  1.0000
  C   C1058     1.0  0.63811  0.89018  0.97815  1.0000
  C   C1059     1.0  0.80363  0.75067  0.55346  1.0000
  H   H843      1.0  0.75621  0.76050  0.51297  1.0000
  C   C1060     1.0  0.61179  0.75321  0.90587  1.0000
  H   H844      1.0  0.54784  0.73344  0.84185  1.0000
  H   H845      1.0  0.79072  0.69183  0.56073  1.0000
  H   H846      1.0  0.71999  0.97407  0.71688  1.0000
  C   C1061     1.0  0.73795  0.74035  0.52534  1.0000
  S   S142      1.0  0.86905  0.67136  0.63653  1.0000
  C   C1062     1.0  0.71367  0.68698  0.53810  1.0000
  H   H847      1.0  0.78385  0.73983  0.57183  1.0000
  Fe  Fe72      1.0  0.48532  0.77631  0.97698  1.0000
  H   H848      1.0  0.79407  0.94798  0.57203  1.0000
  H   H849      1.0  0.61438  0.68964  0.69476  1.0000
  H   H850      1.0  0.64361  0.74391  0.84399  1.0000
  C   C1063     1.0  0.54112  0.69153  0.86388  1.0000
  C   C1064     1.0  0.69174  0.71651  0.56290  1.0000
  H   H851      1.0  0.83069  0.77947  0.59694  1.0000
  C   C1065     1.0  0.58495  0.72290  0.78805  1.0000
  C   C1066     1.0  0.63061  0.68869  0.74877  1.0000
  C   C1067     1.0  0.61396  0.95254  0.71948  1.0000
  H   H852      1.0  0.70541  0.67223  0.89939  1.0000
  H   H853      1.0  0.57253  0.93984  0.75049  1.0000
  H   H854      1.0  0.54558  0.93975  0.69490  1.0000
  C   C1068     1.0  0.69087  0.68888  0.55872  1.0000
  H   H855      1.0  0.90293  0.67778  0.52955  1.0000
  H   H856      1.0  0.57183  0.95240  0.63256  1.0000
  C   C1069     1.0  0.67650  0.96257  0.63180  1.0000
  C   C1070     1.0  0.76658  0.95852  0.49270  1.0000
  S   S143      1.0  0.53562  0.79690  0.97470  1.0000
  C   C1071     1.0  0.84990  0.69004  0.49391  1.0000
  H   H857      1.0  0.62331  0.68821  0.89311  1.0000
  H   H858      1.0  0.49505  0.72045  0.85010  1.0000
  H   H859      1.0  0.69376  0.65817  0.76885  1.0000
  C   C1072     1.0  0.75891  0.66587  0.73073  1.0000
  C   C1073     1.0  0.58590  0.67060  0.85694  1.0000
  C   C1074     1.0  0.76005  0.98296  0.62007  1.0000
  C   C1075     1.0  0.52009  0.66412  0.88058  1.0000
  C   C1076     1.0  0.83205  0.65905  0.48965  1.0000
  C   C1077     1.0  0.48102  0.67699  0.87407  1.0000
  S   S144      1.0  0.48097  0.75125  0.92362  1.0000
  C   C1078     1.0  0.69351  0.98108  0.56843  1.0000
  C   C1079     1.0  0.94269  0.81650  0.49557  1.0000
  H   H860      1.0  0.97566  0.74186  0.59278  1.0000
  H   H861      1.0  0.76867  0.65247  0.72018  1.0000
  C   C1080     1.0  0.61004  0.82755  0.97866  1.0000
  H   H862      1.0  0.59825  0.80322  0.97869  1.0000
  H   H863      1.0  0.97188  0.65590  0.82395  1.0000
  H   H864      1.0  0.94656  0.65354  0.76577  1.0000
