data_image0
_chemical_formula_structural       FeS2FeS2FeSFeS3HCFeSFeC6H4CH3C3H2SHC2HC4H2C6HC2HC3HC14H2CHC2H3C2HCHC2HCH2CHCH2C2H2C2H5CHC2PHCH2PHCSHCHCHC2H2C2H2C2H2C3H4CHCH2CHCHFeS2FeS2FeSFeS3FeSC6H5C2H3CHC2H2CH2CHC6PC4H2CHCH5C3H4C3H2C2HC3PHCHC5HC3SCH2C5HC2H3CHPHCH2C3H2C4H3C2HC6HC2HCH2CH3SHC3HC2H3CH2CHCHCHCHC2FeS2FeS2FeSFeS3FeSC2HCHC2HC6H3C3H4C3H2CHCH2C3HCHPC4HC2H2C3HC4H3CHPH2C2HC2H2C7H2CH4C2HCH2PH3CH2C2HCHCHC7HC2HCHC4H2CH3CSH6SCFeS2FeS2FeSFeS4HCFeSCHCH2C7H4C2HCH2C2H2C2HCPH3C3SC2H2CH2C3PC3HC5H2C9H3FeHCH4CHC8H3CH4C3HCH3SHCHCHC3H4CHCHC2H3CH3CH5CHC3FeC3HC2PCSC2HC2HCHC4SHC3SHC2HCHCSHC2H3CSCH2CHCH5C3HC3PFeC5H2C3H5C5HC4PC3HC4HC6H4CHSCH6C4H2CHC2HCSC2H4CH2SH3CHCFeH2CFeC2H4CHC3H2C2HSH5C2HCHCHC4H7C7PC5H2C4SHC4HSCH2CH2FeHCHFeS2FeS2FeSFeS3C2HCFeSC5HC6H2CHCH2C5H2CH2CH2C3HC2HC2PH2C2HC6HCHC2H2CH3CHCHCHCH2CH2CH2CH5CPH2C5H2CH2C2H4CFeS2FeS2FeSFeS3CHC4HC7HCH2C3HCHC2HC2SHC2HCH2CHCH2SC5HCH2C4H2CH3C6HC3PCH2CPC2H3CH2CHCH3CHC2H2FeC3H3CH2C4H2C4HCH7C3SH2C4FeHCHCH2CH4C2H2FeS2FeS2FeSFeS3HFeSCH2C2H3CHCH2C6H4CHCH3C5PC13HC4HCH2CH2CH7C2HCH2CHC4HCPCHCHCHC7H2CHCSC5H4CH4CH2C3H3CHC2HPHCHC2HC3H2CH2C2HFeS2FeS2FeSFeS3H2FeHSH3C6H6C6H4C2H2CPC3HC3H2C4HCH3C3HC2PC6HC2HC6H5CPCH2C2HC6H3CHCH5C2SC2HCHCHCHCHCHCH2CHC
_chemical_formula_sum              "Fe48 S96 H576 C720 P24"
_cell_length_a       38.1438
_cell_length_b       38.1853
_cell_length_c       35.2479
_cell_angle_alpha    94.2376
_cell_angle_beta     89.7829
_cell_angle_gamma    89.9805

_space_group_name_H-M_alt    "P 1"
_space_group_IT_number       1

loop_
  _space_group_symop_operation_xyz
  'x, y, z'

loop_
  _atom_site_type_symbol
  _atom_site_label
  _atom_site_symmetry_multiplicity
  _atom_site_fract_x
  _atom_site_fract_y
  _atom_site_fract_z
  _atom_site_occupancy
  Fe  Fe1       1.0  0.10421  0.18415  0.31493  1.0000
  S   S1        1.0  0.15340  0.21398  0.33009  1.0000
  S   S2        1.0  0.05236  0.20854  0.33320  1.0000
  Fe  Fe2       1.0  0.14458  0.11973  0.28371  1.0000
  S   S3        1.0  0.19728  0.14477  0.29630  1.0000
  S   S4        1.0  0.13050  0.06488  0.25905  1.0000
  Fe  Fe3       1.0  0.17219  0.16389  0.35255  1.0000
  S   S5        1.0  0.19774  0.15756  0.41012  1.0000
  Fe  Fe4       1.0  0.17418  0.19326  0.27240  1.0000
  S   S6        1.0  0.19768  0.23601  0.23640  1.0000
  S   S7        1.0  0.12166  0.13557  0.34100  1.0000
  S   S8        1.0  0.12285  0.16673  0.25623  1.0000
  H   H1        1.0  0.11713  0.27739  0.25248  1.0000
  C   C1        1.0  0.30307  0.47149  0.00683  1.0000
  Fe  Fe5       1.0  0.29865  0.29956  0.04017  1.0000
  S   S9        1.0  0.28778  0.25950  0.08512  1.0000
  Fe  Fe6       1.0  0.30503  0.37376  0.00957  1.0000
  C   C2        1.0  0.22309  0.24185  0.19434  1.0000
  C   C3        1.0  0.22252  0.27471  0.17852  1.0000
  C   C4        1.0  0.24209  0.28077  0.14541  1.0000
  C   C5        1.0  0.26268  0.25397  0.12746  1.0000
  C   C6        1.0  0.26342  0.22120  0.14347  1.0000
  C   C7        1.0  0.24393  0.21518  0.17662  1.0000
  H   H2        1.0  0.20669  0.29568  0.19190  1.0000
  H   H3        1.0  0.24117  0.30613  0.13369  1.0000
  H   H4        1.0  0.27934  0.20028  0.13014  1.0000
  H   H5        1.0  0.24526  0.18996  0.18857  1.0000
  C   C8        1.0  0.17926  0.17211  0.45484  1.0000
  H   H6        1.0  0.08209  0.26311  0.38362  1.0000
  H   H7        1.0  0.13747  0.20214  0.43238  1.0000
  H   H8        1.0  0.10379  0.13575  0.45385  1.0000
  C   C9        1.0  0.04371  0.05818  0.38666  1.0000
  C   C10       1.0  0.18617  0.02936  0.28889  1.0000
  C   C11       1.0  0.15329  0.02717  0.27150  1.0000
  H   H9        1.0  0.20633  0.28487  0.05866  1.0000
  H   H10       1.0  0.19793  0.05478  0.29599  1.0000
  S   S10       1.0  0.26026  0.33508  0.01328  1.0000
  H   H11       1.0  0.15064  0.42784  0.43147  1.0000
  C   C12       1.0  0.14818  0.02967  0.47744  1.0000
  C   C13       1.0  0.09158  0.22233  0.17714  1.0000
  H   H12       1.0  0.04136  0.15389  0.27233  1.0000
  C   C14       1.0  0.01620  0.16492  0.28104  1.0000
  C   C15       1.0  0.15916  0.28438  0.09269  1.0000
  C   C16       1.0  0.24512  0.00184  0.16923  1.0000
  C   C17       1.0  0.07980  0.15998  0.07343  1.0000
  H   H13       1.0  0.25325  0.44125  0.10551  1.0000
  H   H14       1.0  0.21795  0.14517  0.48631  1.0000
  C   C18       1.0  0.14984  0.19404  0.45788  1.0000
  C   C19       1.0  0.07575  0.13842  0.45035  1.0000
  C   C20       1.0  0.09891  0.03484  0.36203  1.0000
  C   C21       1.0  0.14062  0.22717  0.11134  1.0000
  C   C22       1.0  0.16455  0.16292  0.16330  1.0000
  C   C23       1.0  0.19214  0.23247  0.07132  1.0000
  H   H15       1.0  0.21455  0.22067  0.05625  1.0000
  C   C24       1.0  0.24679  0.46471  0.12352  1.0000
  C   C25       1.0  0.04648  0.21123  0.09677  1.0000
  H   H16       1.0  0.05709  0.26329  0.27457  1.0000
  C   C26       1.0  0.19905  0.35245  0.42455  1.0000
  C   C27       1.0  0.02078  0.20302  0.06934  1.0000
  C   C28       1.0  0.13371  0.29820  0.47317  1.0000
  H   H17       1.0  0.13354  0.07672  0.45122  1.0000
  C   C29       1.0  0.22999  0.36594  0.40953  1.0000
  C   C30       1.0  0.26129  0.49693  0.11550  1.0000
  C   C31       1.0  0.13182  0.28196  0.40547  1.0000
  C   C32       1.0  0.22406  0.46280  0.15445  1.0000
  C   C33       1.0  0.21946  0.29853  0.47673  1.0000
  C   C34       1.0  0.21552  0.28024  0.39370  1.0000
  C   C35       1.0  0.22937  0.24677  0.39854  1.0000
  C   C36       1.0  0.24316  0.22633  0.36742  1.0000
  C   C37       1.0  0.24312  0.23900  0.33125  1.0000
  C   C38       1.0  0.22916  0.27211  0.32611  1.0000
  C   C39       1.0  0.21511  0.29252  0.35705  1.0000
  C   C40       1.0  0.02926  0.00092  0.46824  1.0000
  C   C41       1.0  0.06283  0.16247  0.42592  1.0000
  C   C42       1.0  0.20367  0.42373  0.41037  1.0000
  H   H18       1.0  0.08261  0.12978  0.14702  1.0000
  H   H19       1.0  0.05726  0.12912  0.02600  1.0000
  C   C43       1.0  0.04581  0.99987  0.35436  1.0000
  H   H20       1.0  0.25237  0.34894  0.40325  1.0000
  C   C44       1.0  0.09646  0.27297  0.40866  1.0000
  C   C45       1.0  0.13952  0.06529  0.47768  1.0000
  H   H21       1.0  0.20540  0.45122  0.40479  1.0000
  H   H22       1.0  0.17263  0.08040  0.19254  1.0000
  H   H23       1.0  0.10286  0.14348  0.07422  1.0000
  C   C46       1.0  0.06650  0.25242  0.24711  1.0000
  C   C47       1.0  0.02452  0.17329  0.04403  1.0000
  H   H24       1.0  0.20329  0.31750  0.35202  1.0000
  C   C48       1.0  0.07968  0.27657  0.44401  1.0000
  H   H25       1.0  0.21281  0.43776  0.16057  1.0000
  C   C49       1.0  0.02669  0.02732  0.37333  1.0000
  C   C50       1.0  0.12578  0.10149  0.16893  1.0000
  H   H26       1.0  0.19367  0.24909  0.48374  1.0000
  C   C51       1.0  0.17282  0.41055  0.42542  1.0000
  H   H27       1.0  0.12667  0.03824  0.35642  1.0000
  H   H28       1.0  0.25299  0.22283  0.30693  1.0000
  C   C52       1.0  0.11015  0.13079  0.15434  1.0000
  H   H29       1.0  0.17247  0.18350  0.08839  1.0000
  C   C53       1.0  0.07979  0.06182  0.38133  1.0000
  H   H30       1.0  0.14751  0.01377  0.45072  1.0000
  H   H31       1.0  0.09282  0.08595  0.39114  1.0000
  C   C54       1.0  0.10018  0.26046  0.23465  1.0000
  C   C55       1.0  0.18751  0.26881  0.07268  1.0000
  H   H32       1.0  0.25615  0.41162  0.39072  1.0000
  H   H33       1.0  0.04193  0.19456  0.17437  1.0000
  C   C56       1.0  0.13557  0.26363  0.11168  1.0000
  C   C57       1.0  0.12974  0.16149  0.15066  1.0000
  H   H34       1.0  0.15572  0.31259  0.09371  1.0000
  H   H35       1.0  0.01950  0.22263  0.23485  1.0000
  H   H36       1.0  0.04350  0.23469  0.11574  1.0000
  H   H37       1.0  0.05235  0.26924  0.44634  1.0000
  H   H38       1.0  0.25298  0.20017  0.37125  1.0000
  C   C58       1.0  0.11262  0.24558  0.19973  1.0000
  H   H39       1.0  0.11360  0.27608  0.12680  1.0000
  C   C59       1.0  0.05412  0.15190  0.04594  1.0000
  C   C60       1.0  0.16855  0.21163  0.09012  1.0000
  P   P1        1.0  0.19638  0.30649  0.43338  1.0000
  H   H40       1.0  0.13910  0.25138  0.19100  1.0000
  C   C61       1.0  0.07577  0.18930  0.09953  1.0000
  H   H41       1.0  0.14410  0.27942  0.37771  1.0000
  H   H42       1.0  0.22891  0.23580  0.42594  1.0000
  P   P2        1.0  0.10928  0.20018  0.13432  1.0000
  H   H43       1.0  0.22838  0.28145  0.29781  1.0000
  C   C62       1.0  0.05805  0.21378  0.19025  1.0000
  S   S11       1.0  0.30572  0.43224  0.03131  1.0000
  H   H44       1.0  0.08072  0.17813  0.41018  1.0000
  C   C63       1.0  0.04537  0.22931  0.22477  1.0000
  H   H45       1.0  0.01739  0.18447  0.40142  1.0000
  C   C64       1.0  0.05252  0.11760  0.46963  1.0000
  H   H46       1.0  0.25145  0.02858  0.17935  1.0000
  C   C65       1.0  0.15094  0.29391  0.43781  1.0000
  C   C66       1.0  0.23225  0.40143  0.40245  1.0000
  H   H47       1.0  0.20687  0.13516  0.18804  1.0000
  H   H48       1.0  0.04577  0.01012  0.20975  1.0000
  C   C67       1.0  0.01433  0.19155  0.31043  1.0000
  C   C68       1.0  0.17048  0.37506  0.43254  1.0000
  H   H49       1.0  0.06259  0.09857  0.48812  1.0000
  H   H50       1.0  0.02873  0.07971  0.40002  1.0000
  C   C69       1.0  0.16086  0.10281  0.18030  1.0000
  C   C70       1.0  0.01629  0.12145  0.46520  1.0000
  H   H51       1.0  0.19815  0.49169  0.20130  1.0000
  H   H52       1.0  0.17930  0.18702  0.16296  1.0000
  C   C71       1.0  0.02675  0.16611  0.42115  1.0000
  C   C72       1.0  0.18016  0.13360  0.17773  1.0000
  C   C73       1.0  0.19524  0.16221  0.48833  1.0000
  H   H53       1.0  0.14632  0.36544  0.44414  1.0000
  H   H54       1.0  0.11046  0.07814  0.17290  1.0000
  H   H55       1.0  0.25021  0.34646  0.47902  1.0000
  H   H56       1.0  0.27881  0.49767  0.09138  1.0000
  C   C74       1.0  0.09820  0.28955  0.47620  1.0000
  H   H57       1.0  0.19806  0.00023  0.20307  1.0000
  C   C75       1.0  0.08197  0.00406  0.34833  1.0000
  H   H58       1.0  0.23015  0.00020  0.30875  1.0000
  H   H59       1.0  0.00460  0.16698  0.02277  1.0000
  C   C76       1.0  0.00312  0.14589  0.44102  1.0000
  H   H60       1.0  0.02836  0.01358  0.27720  1.0000
  C   C77       1.0  0.21584  0.49319  0.17735  1.0000
  H   H61       1.0  0.21158  0.00100  0.45086  1.0000
  Fe  Fe7       1.0  0.18740  0.19630  0.70627  1.0000
  S   S12       1.0  0.16054  0.14709  0.72225  1.0000
  S   S13       1.0  0.23089  0.22420  0.74180  1.0000
  Fe  Fe8       1.0  0.15045  0.19332  0.62783  1.0000
  S   S14       1.0  0.12043  0.14482  0.63939  1.0000
  S   S15       1.0  0.14036  0.21821  0.57198  1.0000
  Fe  Fe9       1.0  0.11200  0.17013  0.69801  1.0000
  S   S16       1.0  0.06107  0.16519  0.73031  1.0000
  Fe  Fe10      1.0  0.17110  0.12595  0.66234  1.0000
  S   S17       1.0  0.18831  0.07212  0.63919  1.0000
  S   S18       1.0  0.13797  0.22073  0.68535  1.0000
  S   S19       1.0  0.20198  0.17308  0.64730  1.0000
  Fe  Fe11      1.0  0.27980  0.31076  0.95635  1.0000
  S   S20       1.0  0.23694  0.29016  0.91427  1.0000
  C   C78       1.0  0.23654  0.26945  0.86713  1.0000
  C   C79       1.0  0.26663  0.26649  0.84426  1.0000
  C   C80       1.0  0.26444  0.25199  0.80627  1.0000
  C   C81       1.0  0.23233  0.23985  0.79068  1.0000
  C   C82       1.0  0.20238  0.24208  0.81376  1.0000
  C   C83       1.0  0.20447  0.25695  0.85162  1.0000
  H   H62       1.0  0.29144  0.27608  0.85558  1.0000
  H   H63       1.0  0.28777  0.25052  0.78868  1.0000
  H   H64       1.0  0.17750  0.23300  0.80218  1.0000
  H   H65       1.0  0.18099  0.25921  0.86893  1.0000
  H   H66       1.0  0.07350  0.03209  0.54710  1.0000
  C   C84       1.0  0.25627  0.29050  0.68066  1.0000
  C   C85       1.0  0.15396  0.19770  0.52746  1.0000
  H   H67       1.0  0.21851  0.10007  0.74365  1.0000
  H   H68       1.0  0.29937  0.15720  0.69079  1.0000
  H   H69       1.0  0.19574  0.16757  0.54990  1.0000
  C   C86       1.0  0.18258  0.17475  0.52446  1.0000
  H   H70       1.0  0.22951  0.01591  0.53732  1.0000
  C   C87       1.0  0.18750  0.03578  0.66705  1.0000
  C   C88       1.0  0.18085  0.03936  0.70617  1.0000
  H   H71       1.0  0.27093  0.21600  0.90922  1.0000
  H   H72       1.0  0.17393  0.06474  0.71957  1.0000
  C   C89       1.0  0.15695  0.03619  0.54561  1.0000
  H   H73       1.0  0.08218  0.42856  0.68375  1.0000
  H   H74       1.0  0.28304  0.11518  0.95393  1.0000
  C   C90       1.0  0.27495  0.13086  0.93112  1.0000
  H   H75       1.0  0.04870  0.19052  0.65605  1.0000
  C   C91       1.0  0.21728  0.35059  0.82265  1.0000
  C   C92       1.0  0.21050  0.38558  0.83461  1.0000
  C   C93       1.0  0.19017  0.40619  0.81206  1.0000
  C   C94       1.0  0.17659  0.39179  0.77751  1.0000
  C   C95       1.0  0.18341  0.35656  0.76510  1.0000
  C   C96       1.0  0.20369  0.33604  0.78821  1.0000
  P   P3        1.0  0.16507  0.33752  0.72083  1.0000
  C   C97       1.0  0.12815  0.30948  0.73024  1.0000
  C   C98       1.0  0.15089  0.37250  0.69259  1.0000
  C   C99       1.0  0.17295  0.38468  0.66441  1.0000
  C   C100      1.0  0.25716  0.04750  0.79746  1.0000
  H   H76       1.0  0.12113  0.44938  0.63358  1.0000
  H   H77       1.0  0.09951  0.25275  0.79414  1.0000
  C   C101      1.0  0.11819  0.38869  0.69960  1.0000
  H   H78       1.0  0.08528  0.29221  0.50369  1.0000
  C   C102      1.0  0.19673  0.31135  0.69280  1.0000
  H   H79       1.0  0.23303  0.33474  0.84031  1.0000
  H   H80       1.0  0.22098  0.39662  0.86146  1.0000
  H   H81       1.0  0.18490  0.43336  0.82144  1.0000
  H   H82       1.0  0.16089  0.40839  0.76077  1.0000
  H   H83       1.0  0.20916  0.30877  0.77957  1.0000
  C   C103      1.0  0.07301  0.28188  0.71008  1.0000
  C   C104      1.0  0.12724  0.29075  0.76310  1.0000
  C   C105      1.0  0.30067  0.15945  0.75206  1.0000
  H   H84       1.0  0.27519  0.44893  0.95807  1.0000
  H   H85       1.0  0.11463  0.22366  0.49614  1.0000
  H   H86       1.0  0.10110  0.38022  0.72180  1.0000
  H   H87       1.0  0.08286  0.09038  0.69727  1.0000
  C   C106      1.0  0.18543  0.29017  0.66091  1.0000
  C   C107      1.0  0.12737  0.10855  0.79775  1.0000
  C   C108      1.0  0.28584  0.47277  0.97199  1.0000
  H   H88       1.0  0.26252  0.25044  0.63480  1.0000
  H   H89       1.0  0.07821  0.10273  0.57507  1.0000
  C   C109      1.0  0.22929  0.26204  0.52942  1.0000
  C   C110      1.0  0.14793  0.07171  0.54580  1.0000
  H   H90       1.0  0.14814  0.29303  0.78370  1.0000
  C   C111      1.0  0.18374  0.00999  0.72787  1.0000
  C   C112      1.0  0.05766  0.12072  0.56811  1.0000
  C   C113      1.0  0.01793  0.04016  0.53787  1.0000
  P   P4        1.0  0.01113  0.06706  0.58172  1.0000
  H   H91       1.0  0.14830  0.08807  0.57230  1.0000
  C   C114      1.0  0.26126  0.11457  0.89748  1.0000
  H   H92       1.0  0.27449  0.06069  0.77877  1.0000
  C   C115      1.0  0.05083  0.01946  0.62059  1.0000
  C   C116      1.0  0.12941  0.42794  0.64999  1.0000
  C   C117      1.0  0.09954  0.26780  0.76926  1.0000
  C   C118      1.0  0.10746  0.41620  0.67824  1.0000
  C   C119      1.0  0.25402  0.12817  0.78248  1.0000
  H   H93       1.0  0.24258  0.32925  0.72506  1.0000
  C   C120      1.0  0.07244  0.26337  0.74280  1.0000
  C   C121      1.0  0.24116  0.11692  0.74639  1.0000
  C   C122      1.0  0.05080  0.07973  0.64759  1.0000
  S   S21       1.0  0.31630  0.27384  0.98342  1.0000
  C   C123      1.0  0.07404  0.07053  0.67580  1.0000
  H   H94       1.0  0.10130  0.31772  0.67744  1.0000
  H   H95       1.0  0.16372  0.02544  0.57222  1.0000
  C   C124      1.0  0.20916  0.26864  0.63977  1.0000
  C   C125      1.0  0.24445  0.26828  0.65011  1.0000
  C   C126      1.0  0.16215  0.41223  0.64313  1.0000
  C   C127      1.0  0.26823  0.18764  0.90590  1.0000
  C   C128      1.0  0.25372  0.28621  0.54495  1.0000
  H   H96       1.0  0.19858  0.37314  0.65896  1.0000
  C   C129      1.0  0.28449  0.14891  0.78505  1.0000
  C   C130      1.0  0.21318  0.04822  0.84733  1.0000
  H   H97       1.0  0.18900  0.17643  0.85017  1.0000
  H   H98       1.0  0.11005  0.09021  0.78218  1.0000
  H   H99       1.0  0.09412  0.16172  0.55727  1.0000
  C   C131      1.0  0.25767  0.12696  0.71346  1.0000
  H   H100      1.0  0.04174  0.10668  0.64798  1.0000
  P   P5        1.0  0.23213  0.11402  0.82437  1.0000
  H   H101      1.0  0.17929  0.42155  0.62145  1.0000
  C   C132      1.0  0.13965  0.08638  0.51183  1.0000
  H   H102      1.0  0.17237  0.07549  0.78912  1.0000
  H   H103      1.0  0.22335  0.23851  0.54366  1.0000
  C   C133      1.0  0.02232  0.11077  0.56951  1.0000
  C   C134      1.0  0.25618  0.01078  0.79425  1.0000
  C   C135      1.0  0.18585  0.12451  0.82078  1.0000
  H   H104      1.0  0.24732  0.11813  0.68577  1.0000
  H   H105      1.0  0.28358  0.29002  0.68889  1.0000
  C   C136      1.0  0.11450  0.14107  0.81227  1.0000
  C   C137      1.0  0.13699  0.16521  0.83130  1.0000
  C   C138      1.0  0.17242  0.15698  0.83567  1.0000
  C   C139      1.0  0.08612  0.03600  0.67609  1.0000
  H   H106      1.0  0.13383  0.11418  0.51200  1.0000
  H   H107      1.0  0.08725  0.14784  0.80796  1.0000
  H   H108      1.0  0.12713  0.19064  0.84210  1.0000
  C   C140      1.0  0.23518  0.06658  0.82360  1.0000
  C   C141      1.0  0.03999  0.05452  0.61896  1.0000
  H   H109      1.0  0.19990  0.25153  0.61600  1.0000
  C   C142      1.0  0.16286  0.10037  0.80175  1.0000
  C   C143      1.0  0.28716  0.14863  0.71629  1.0000
  C   C144      1.0  0.06682  0.15415  0.55789  1.0000
  C   C145      1.0  0.05143  0.02690  0.52823  1.0000
  C   C146      1.0  0.25472  0.17146  0.87220  1.0000
  C   C147      1.0  0.10081  0.30465  0.70365  1.0000
  H   H110      1.0  0.15813  0.28962  0.65265  1.0000
  C   C148      1.0  0.15811  0.01510  0.51129  1.0000
  C   C149      1.0  0.23263  0.31230  0.70167  1.0000
  H   H111      1.0  0.10465  0.02909  0.69753  1.0000
  C   C150      1.0  0.19494  0.00255  0.64947  1.0000
  H   H112      1.0  0.19587  0.06241  0.86749  1.0000
  H   H113      1.0  0.26694  0.28141  0.57119  1.0000
  C   C151      1.0  0.07420  0.01039  0.64879  1.0000
  H   H114      1.0  0.17965  0.01289  0.75829  1.0000
  H   H115      1.0  0.05239  0.27766  0.68916  1.0000
  H   H116      1.0  0.04827  0.20398  0.54143  1.0000
  S   S22       1.0  0.32163  0.35221  0.95100  1.0000
  H   H117      1.0  0.05149  0.24484  0.74712  1.0000
  C   C152      1.0  0.04089  0.17791  0.54880  1.0000
  C   C153      1.0  0.25076  0.13476  0.86772  1.0000
  C   C154      1.0  0.02226  0.17297  0.70528  1.0000
  H   H118      1.0  0.25921  0.08628  0.89488  1.0000
  C   C155      1.0  0.02363  0.18551  0.66906  1.0000
  C   C156      1.0  0.27828  0.16738  0.93539  1.0000
  H   H119      1.0  0.24768  0.18770  0.84948  1.0000
  H   H120      1.0  0.28014  0.33523  0.53856  1.0000
  H   H121      1.0  0.29597  0.15714  0.81219  1.0000
  C   C157      1.0  0.26114  0.31653  0.52651  1.0000
  H   H122      1.0  0.28875  0.18010  0.96148  1.0000
  H   H123      1.0  0.32344  0.17638  0.75425  1.0000
  C   C158      1.0  0.00563  0.16801  0.54944  1.0000
  H   H124      1.0  0.27963  0.00715  0.57962  1.0000
  C   C159      1.0  0.21253  0.01147  0.84425  1.0000
  H   H125      1.0  0.19981  0.99958  0.61931  1.0000
  C   C160      1.0  0.13714  0.20651  0.49404  1.0000
  H   H126      1.0  0.04174  0.99918  0.59992  1.0000
  C   C161      1.0  0.21235  0.26813  0.49545  1.0000
  H   H127      1.0  0.14768  0.30796  0.49847  1.0000
  C   C162      1.0  0.05688  0.00705  0.49375  1.0000
  C   C163      1.0  0.24408  0.32274  0.49256  1.0000
  Fe  Fe12      1.0  0.12059  0.83055  0.27732  1.0000
  S   S23       1.0  0.14115  0.78423  0.30612  1.0000
  S   S24       1.0  0.07031  0.83426  0.24390  1.0000
  Fe  Fe13      1.0  0.18499  0.87531  0.29750  1.0000
  S   S25       1.0  0.21042  0.83242  0.32827  1.0000
  S   S26       1.0  0.21357  0.92705  0.29434  1.0000
  Fe  Fe14      1.0  0.19293  0.79619  0.27796  1.0000
  S   S27       1.0  0.23135  0.75600  0.24863  1.0000
  Fe  Fe15      1.0  0.15694  0.82438  0.35366  1.0000
  S   S28       1.0  0.13777  0.82310  0.41543  1.0000
  S   S29       1.0  0.17090  0.83993  0.24638  1.0000
  S   S30       1.0  0.13295  0.86989  0.32573  1.0000
  Fe  Fe16      1.0  0.29294  0.70149  0.02400  1.0000
  S   S31       1.0  0.25634  0.73045  0.06830  1.0000
  C   C164      1.0  0.21489  0.98597  0.18239  1.0000
  C   C165      1.0  0.04617  0.98661  0.22520  1.0000
  H   H128      1.0  0.27845  0.93312  0.11364  1.0000
  C   C166      1.0  0.01521  0.74938  0.21090  1.0000
  H   H129      1.0  0.06940  0.90053  0.21433  1.0000
  C   C167      1.0  0.18440  0.91629  0.45450  1.0000
  C   C168      1.0  0.23601  0.89638  0.05436  1.0000
  H   H130      1.0  0.14447  0.93777  0.26293  1.0000
  C   C169      1.0  0.25005  0.73598  0.11869  1.0000
  C   C170      1.0  0.21942  0.75300  0.13288  1.0000
  C   C171      1.0  0.21341  0.75911  0.17237  1.0000
  C   C172      1.0  0.23807  0.74860  0.19845  1.0000
  C   C173      1.0  0.26853  0.73109  0.18436  1.0000
  C   C174      1.0  0.27449  0.72473  0.14477  1.0000
  H   H131      1.0  0.19996  0.76123  0.11316  1.0000
  H   H132      1.0  0.18939  0.77141  0.18280  1.0000
  H   H133      1.0  0.28779  0.72267  0.20419  1.0000
  C   C175      1.0  0.24848  0.62151  0.08183  1.0000
  C   C176      1.0  0.16086  0.82602  0.45937  1.0000
  C   C177      1.0  0.19646  0.81775  0.46194  1.0000
  H   H134      1.0  0.05091  0.90306  0.28138  1.0000
  H   H135      1.0  0.21112  0.80971  0.43644  1.0000
  H   H136      1.0  0.19558  0.87475  0.41135  1.0000
  H   H137      1.0  0.31121  0.64365  0.24084  1.0000
  C   C178      1.0  0.03050  0.82503  0.26661  1.0000
  C   C179      1.0  0.02859  0.79895  0.29235  1.0000
  C   C180      1.0  0.22364  0.57397  0.02411  1.0000
  H   H138      1.0  0.05220  0.78564  0.30034  1.0000
  H   H139      1.0  0.06637  0.95357  0.17798  1.0000
  C   C181      1.0  0.18939  0.96528  0.28685  1.0000
  H   H140      1.0  0.23067  0.66168  0.04665  1.0000
  C   C182      1.0  0.01158  0.76929  0.17950  1.0000
  H   H141      1.0  0.23542  0.92430  0.06199  1.0000
  H   H142      1.0  0.29165  0.99485  0.13472  1.0000
  C   C183      1.0  0.31838  0.56464  0.11669  1.0000
  C   C184      1.0  0.04912  0.92654  0.26606  1.0000
  C   C185      1.0  0.23883  0.56158  0.05656  1.0000
  H   H143      1.0  0.04077  0.74660  0.22373  1.0000
  C   C186      1.0  0.15616  0.96318  0.27034  1.0000
  H   H144      1.0  0.08318  0.94442  0.38396  1.0000
  P   P6        1.0  0.22055  0.88632  0.13086  1.0000
  C   C187      1.0  0.26641  0.60207  0.16692  1.0000
  C   C188      1.0  0.29052  0.81942  0.17709  1.0000
  C   C189      1.0  0.06604  0.92199  0.38009  1.0000
  C   C190      1.0  0.20669  0.97368  0.44205  1.0000
  H   H145      1.0  0.32163  0.61375  0.09039  1.0000
  C   C191      1.0  0.25134  0.58521  0.08588  1.0000
  C   C192      1.0  0.19823  0.90247  0.41979  1.0000
  H   H146      1.0  0.23505  0.79651  0.02377  1.0000
  H   H147      1.0  0.03445  0.78173  0.16806  1.0000
  C   C193      1.0  0.24680  0.86312  0.16355  1.0000
  C   C194      1.0  0.20695  0.95126  0.17002  1.0000
  C   C195      1.0  0.18755  0.95222  0.46541  1.0000
  H   H148      1.0  0.23466  0.97640  0.38891  1.0000
  C   C196      1.0  0.25994  0.94799  0.13178  1.0000
  C   C197      1.0  0.05338  0.86193  0.39355  1.0000
  C   C198      1.0  0.25776  0.65451  0.22644  1.0000
  C   C199      1.0  0.14873  0.89878  0.12511  1.0000
  H   H149      1.0  0.09699  0.98385  0.33225  1.0000
  H   H150      1.0  0.06062  0.83828  0.40691  1.0000
  H   H151      1.0  0.09827  0.89084  0.41503  1.0000
  C   C200      1.0  0.07452  0.89177  0.39830  1.0000
  H   H152      1.0  0.22725  0.91320  0.36960  1.0000
  P   P7        1.0  0.02390  0.96135  0.33349  1.0000
  H   H153      1.0  0.15586  0.92251  0.11193  1.0000
  H   H154      1.0  0.11365  0.93054  0.47216  1.0000
  C   C201      1.0  0.22962  0.87212  0.08167  1.0000
  C   C202      1.0  0.27192  0.83789  0.15087  1.0000
  H   H155      1.0  0.22178  0.81697  0.09003  1.0000
  C   C203      1.0  0.03639  0.98848  0.26354  1.0000
  C   C204      1.0  0.21612  0.92419  0.39617  1.0000
  H   H156      1.0  0.29834  0.81136  0.23638  1.0000
  H   H157      1.0  0.22357  0.54865  0.18746  1.0000
  C   C205      1.0  0.23035  0.52553  0.16936  1.0000
  C   C206      1.0  0.28970  0.63671  0.22178  1.0000
  C   C207      1.0  0.03632  0.92241  0.35663  1.0000
  C   C208      1.0  0.16494  0.84499  0.15282  1.0000
  C   C209      1.0  0.12952  0.83737  0.15843  1.0000
  C   C210      1.0  0.10369  0.86053  0.14766  1.0000
  C   C211      1.0  0.11326  0.89108  0.13063  1.0000
  H   H158      1.0  0.18428  0.93907  0.18214  1.0000
  H   H159      1.0  0.33055  0.50222  0.05092  1.0000
  C   C212      1.0  0.22799  0.83617  0.06989  1.0000
  H   H160      1.0  0.18465  0.82690  0.16144  1.0000
  H   H161      1.0  0.12214  0.81385  0.17202  1.0000
  H   H162      1.0  0.07634  0.85480  0.15290  1.0000
  H   H163      1.0  0.09323  0.90888  0.12198  1.0000
  C   C213      1.0  0.22998  0.64584  0.20185  1.0000
  C   C214      1.0  0.23278  0.63373  0.04957  1.0000
  H   H164      1.0  0.25461  0.67550  0.24873  1.0000
  C   C215      1.0  0.23408  0.61945  0.17248  1.0000
  H   H165      1.0  0.20547  0.66018  0.20522  1.0000
  H   H166      1.0  0.32546  0.51561  0.14320  1.0000
  P   P8        1.0  0.27212  0.56938  0.12753  1.0000
  H   H167      1.0  0.21230  0.61322  0.15353  1.0000
  H   H168      1.0  0.25668  0.85822  0.25917  1.0000
  H   H169      1.0  0.02112  0.80416  0.47574  1.0000
  C   C216      1.0  0.25325  0.52768  0.13830  1.0000
  H   H170      1.0  0.22350  0.89061  0.21347  1.0000
  H   H171      1.0  0.29812  0.71151  0.13447  1.0000
  C   C217      1.0  0.17481  0.87615  0.13712  1.0000
  C   C218      1.0  0.26107  0.85257  0.22892  1.0000
  H   H172      1.0  0.31905  0.59722  0.18886  1.0000
  C   C219      1.0  0.01537  0.89213  0.35181  1.0000
  H   H173      1.0  0.24152  0.53357  0.05778  1.0000
  C   C220      1.0  0.22898  0.93223  0.14382  1.0000
  H   H174      1.0  0.25873  0.64063  0.10319  1.0000
  C   C221      1.0  0.29403  0.61048  0.19221  1.0000
  C   C222      1.0  0.22063  0.61000  0.02059  1.0000
  C   C223      1.0  0.22037  0.95979  0.40724  1.0000
  C   C224      1.0  0.24217  0.87082  0.20281  1.0000
  C   C225      1.0  0.02367  0.86222  0.37057  1.0000
  C   C226      1.0  0.05789  0.95485  0.20738  1.0000
  C   C227      1.0  0.23517  0.82447  0.03216  1.0000
  H   H175      1.0  0.27725  0.83194  0.12100  1.0000
  C   C228      1.0  0.28483  0.82649  0.21608  1.0000
  C   C229      1.0  0.31198  0.53534  0.00819  1.0000
  H   H176      1.0  0.17202  0.89875  0.47312  1.0000
  C   C230      1.0  0.05957  0.92495  0.22787  1.0000
  H   H177      1.0  0.30874  0.79897  0.16714  1.0000
  C   C231      1.0  0.03726  0.95831  0.28413  1.0000
  C   C232      1.0  0.13849  0.99403  0.26225  1.0000
  C   C233      1.0  0.26771  0.98283  0.14404  1.0000
  C   C234      1.0  0.31660  0.50293  0.02441  1.0000
  H   H178      1.0  0.00743  0.83897  0.36665  1.0000
  H   H179      1.0  0.21541  0.55562  0.00093  1.0000
  C   C235      1.0  0.24284  0.84865  0.00546  1.0000
  H   H180      1.0  0.08266  0.99663  0.48668  1.0000
  H   H181      1.0  0.32219  0.55926  0.02225  1.0000
  H   H182      1.0  0.08097  0.78187  0.48228  1.0000
  C   C236      1.0  0.24289  0.88460  0.01646  1.0000
  S   S32       1.0  0.32666  0.65309  0.02649  1.0000
  H   H183      1.0  0.11330  0.99222  0.24863  1.0000
  H   H184      1.0  0.03370  0.98557  0.44152  1.0000
  H   H185      1.0  0.11516  0.84383  0.49114  1.0000
  H   H186      1.0  0.00106  0.86236  0.23654  1.0000
  H   H187      1.0  0.20975  0.61950  0.99490  1.0000
  H   H188      1.0  0.24831  0.90332  0.99555  1.0000
  S   S33       1.0  0.33410  0.73052  0.99236  1.0000
  C   C237      1.0  0.20435  0.99844  0.29610  1.0000
  Fe  Fe17      1.0  0.18960  0.83650  0.63461  1.0000
  S   S34       1.0  0.15740  0.88474  0.64859  1.0000
  S   S35       1.0  0.21579  0.82812  0.57614  1.0000
  Fe  Fe18      1.0  0.18028  0.80988  0.71466  1.0000
  S   S36       1.0  0.14579  0.85587  0.73285  1.0000
  S   S37       1.0  0.18823  0.76792  0.75795  1.0000
  Fe  Fe19      1.0  0.11998  0.84883  0.67591  1.0000
  S   S38       1.0  0.06423  0.86732  0.66709  1.0000
  Fe  Fe20      1.0  0.18511  0.88870  0.70453  1.0000
  S   S39       1.0  0.19710  0.94045  0.73740  1.0000
  S   S40       1.0  0.15058  0.79963  0.65885  1.0000
  S   S41       1.0  0.22145  0.84338  0.68902  1.0000
  S   S42       1.0  0.26568  0.68034  0.97012  1.0000
  H   H189      1.0  0.07815  0.81097  0.60227  1.0000
  C   C238      1.0  0.21359  0.93126  0.55734  1.0000
  Fe  Fe21      1.0  0.30783  0.70737  0.93853  1.0000
  S   S43       1.0  0.30060  0.74471  0.89032  1.0000
  C   C239      1.0  0.24221  0.92641  0.58101  1.0000
  H   H190      1.0  0.10944  0.78427  0.54549  1.0000
  C   C240      1.0  0.11029  0.92911  0.50250  1.0000
  H   H191      1.0  0.23375  0.70943  0.86828  1.0000
  H   H192      1.0  0.20367  0.94778  0.65699  1.0000
  C   C241      1.0  0.16052  0.81619  0.90075  1.0000
  C   C242      1.0  0.21950  0.76253  0.79507  1.0000
  C   C243      1.0  0.21412  0.73594  0.82022  1.0000
  C   C244      1.0  0.23832  0.73016  0.84954  1.0000
  C   C245      1.0  0.26853  0.75088  0.85418  1.0000
  C   C246      1.0  0.27374  0.77768  0.82924  1.0000
  C   C247      1.0  0.24955  0.78345  0.79994  1.0000
  H   H193      1.0  0.19114  0.71945  0.81683  1.0000
  H   H194      1.0  0.24596  0.90126  0.59292  1.0000
  H   H195      1.0  0.29694  0.79390  0.83233  1.0000
  H   H196      1.0  0.25436  0.80386  0.78085  1.0000
  C   C248      1.0  0.10639  0.95622  0.76047  1.0000
  C   C249      1.0  0.19419  0.82846  0.53150  1.0000
  H   H197      1.0  0.21836  0.84554  0.83675  1.0000
  C   C250      1.0  0.26125  0.98594  0.57326  1.0000
  H   H198      1.0  0.14430  0.84606  0.55427  1.0000
  H   H199      1.0  0.06116  0.92672  0.86685  1.0000
  C   C251      1.0  0.02621  0.84312  0.67621  1.0000
  C   C252      1.0  0.14241  0.83657  0.49292  1.0000
  H   H200      1.0  0.05043  0.79212  0.66933  1.0000
  H   H201      1.0  0.28785  0.95003  0.60790  1.0000
  C   C253      1.0  0.01387  0.81846  0.53614  1.0000
  C   C254      1.0  0.00946  0.85011  0.90704  1.0000
  H   H202      1.0  0.01762  0.83239  0.59671  1.0000
  C   C255      1.0  0.23262  0.99089  0.54950  1.0000
  P   P9        1.0  0.17135  0.96962  0.51122  1.0000
  H   H203      1.0  0.15974  0.80042  0.92507  1.0000
  H   H204      1.0  0.21653  0.81086  0.89334  1.0000
  H   H205      1.0  0.12722  0.79923  0.79445  1.0000
  C   C256      1.0  0.08238  0.90962  0.51592  1.0000
  C   C257      1.0  0.13431  0.94556  0.52813  1.0000
  C   C258      1.0  0.20812  0.96382  0.54215  1.0000
  S   S44       1.0  0.28622  0.57712  0.95262  1.0000
  C   C259      1.0  0.04713  0.90504  0.87791  1.0000
  C   C260      1.0  0.00084  0.88493  0.91823  1.0000
  H   H206      1.0  0.09717  0.92244  0.61101  1.0000
  H   H207      1.0  0.14627  0.95732  0.58788  1.0000
  C   C261      1.0  0.06666  0.79237  0.50727  1.0000
  H   H208      1.0  0.24861  0.83943  0.97624  1.0000
  H   H209      1.0  0.02143  0.83982  0.79837  1.0000
  C   C262      1.0  0.12943  0.82929  0.88617  1.0000
  C   C263      1.0  0.13020  0.84874  0.85384  1.0000
  C   C264      1.0  0.16266  0.85467  0.83639  1.0000
  P   P10       1.0  0.08971  0.86035  0.83108  1.0000
  C   C265      1.0  0.05582  0.87013  0.86627  1.0000
  C   C266      1.0  0.09548  0.89834  0.80385  1.0000
  C   C267      1.0  0.11852  0.92538  0.81661  1.0000
  H   H210      1.0  0.06497  0.89550  0.49596  1.0000
  C   C268      1.0  0.12408  0.95406  0.79484  1.0000
  C   C269      1.0  0.08288  0.79395  0.54284  1.0000
  C   C270      1.0  0.07709  0.90123  0.76972  1.0000
  C   C271      1.0  0.26589  0.95380  0.58922  1.0000
  C   C272      1.0  0.19257  0.82216  0.88305  1.0000
  H   H211      1.0  0.04504  0.74260  0.73467  1.0000
  H   H212      1.0  0.05713  0.89103  0.56561  1.0000
  C   C273      1.0  0.19695  0.97312  0.67082  1.0000
  C   C274      1.0  0.07567  0.82312  0.80026  1.0000
  C   C275      1.0  0.09975  0.79716  0.78709  1.0000
  C   C276      1.0  0.08873  0.76827  0.76352  1.0000
  C   C277      1.0  0.05347  0.76479  0.75335  1.0000
  C   C278      1.0  0.02926  0.79041  0.76652  1.0000
  C   C279      1.0  0.04034  0.81968  0.78948  1.0000
  C   C280      1.0  0.07787  0.90708  0.55501  1.0000
  C   C281      1.0  0.03687  0.84270  0.88122  1.0000
  H   H213      1.0  0.10487  0.82320  0.89952  1.0000
  H   H214      1.0  0.16420  0.86827  0.81061  1.0000
  H   H215      1.0  0.13291  0.92388  0.84283  1.0000
  Fe  Fe22      1.0  0.30261  0.63388  0.97075  1.0000
  H   H216      1.0  0.10782  0.74884  0.75286  1.0000
  C   C282      1.0  0.03096  0.82116  0.57149  1.0000
  H   H217      1.0  0.05946  0.88079  0.75870  1.0000
  H   H218      1.0  0.04313  0.81556  0.87263  1.0000
  H   H219      1.0  0.23248  0.96433  0.81402  1.0000
  H   H220      1.0  0.00206  0.78806  0.75799  1.0000
  C   C283      1.0  0.08268  0.93000  0.74812  1.0000
  H   H221      1.0  0.19587  0.90942  0.55095  1.0000
  C   C284      1.0  0.06525  0.80889  0.57481  1.0000
  C   C285      1.0  0.12857  0.94423  0.56742  1.0000
  C   C286      1.0  0.19362  0.84167  0.85111  1.0000
  C   C287      1.0  0.10063  0.92477  0.58072  1.0000
  C   C288      1.0  0.02621  0.80643  0.67470  1.0000
  C   C289      1.0  0.15892  0.83796  0.52875  1.0000
  C   C290      1.0  0.03246  0.80498  0.50377  1.0000
  C   C291      1.0  0.19203  0.97684  0.71016  1.0000
  H   H222      1.0  0.08327  0.98352  0.64949  1.0000
  H   H223      1.0  0.14325  0.97389  0.80369  1.0000
  H   H224      1.0  0.00269  0.95780  0.55131  1.0000
  C   C292      1.0  0.29389  0.53679  0.97389  1.0000
  H   H225      1.0  0.06950  0.93121  0.72105  1.0000
  H   H226      1.0  0.26736  0.50592  0.92909  1.0000
  H   H227      1.0  0.24036  0.81190  0.49959  1.0000
  H   H228      1.0  0.01299  0.93937  0.91234  1.0000
  C   C293      1.0  0.01971  0.91236  0.90376  1.0000
  C   C294      1.0  0.28124  0.50521  0.95573  1.0000
  C   C295      1.0  0.21297  0.81896  0.49783  1.0000
  H   H229      1.0  0.11185  0.97765  0.74287  1.0000
  C   C296      1.0  0.23378  0.99279  0.81745  1.0000
  H   H230      1.0  0.27208  0.99615  0.77298  1.0000
  H   H231      1.0  0.19506  0.99741  0.86203  1.0000
  H   H232      1.0  0.49408  0.44447  0.04137  1.0000
  S   S45       1.0  0.56414  0.34907  0.02345  1.0000
  H   H233      1.0  0.38547  0.44168  0.00649  1.0000
  C   C297      1.0  0.46684  0.43828  0.04612  1.0000
  H   H234      1.0  0.66455  0.22536  0.08595  1.0000
  C   C298      1.0  0.44116  0.44409  0.01876  1.0000
  H   H235      1.0  0.62539  0.18914  0.04384  1.0000
  C   C299      1.0  0.49214  0.34443  0.02701  1.0000
  C   C300      1.0  0.45829  0.33545  0.01342  1.0000
  C   C301      1.0  0.52220  0.33696  0.00452  1.0000
  H   H236      1.0  0.65857  0.04317  0.34590  1.0000
  H   H237      1.0  0.45330  0.24607  0.08202  1.0000
  H   H238      1.0  0.49507  0.35713  0.05526  1.0000
  H   H239      1.0  0.43551  0.34125  0.03116  1.0000
  C   C302      1.0  0.42257  0.41579  0.08735  1.0000
  H   H240      1.0  0.59177  0.31105  0.08683  1.0000
  C   C303      1.0  0.63204  0.22631  0.34287  1.0000
  H   H241      1.0  0.47762  0.41856  0.10058  1.0000
  C   C304      1.0  0.59864  0.28412  0.07796  1.0000
  C   C305      1.0  0.57646  0.26401  0.05353  1.0000
  H   H242      1.0  0.64789  0.28602  0.10769  1.0000
  H   H243      1.0  0.51479  0.22609  0.07482  1.0000
  H   H244      1.0  0.41560  0.24931  0.02516  1.0000
  C   C306      1.0  0.63024  0.27007  0.08969  1.0000
  H   H245      1.0  0.65931  0.40299  0.44562  1.0000
  H   H246      1.0  0.36965  0.41629  0.06650  1.0000
  H   H247      1.0  0.55276  0.27601  0.04371  1.0000
  C   C307      1.0  0.40593  0.43680  0.02676  1.0000
  H   H248      1.0  0.64515  0.46441  0.01513  1.0000
  H   H249      1.0  0.63873  0.26562  0.38917  1.0000
  H   H250      1.0  0.51640  0.09179  0.05387  1.0000
  H   H251      1.0  0.60544  0.22010  0.35089  1.0000
  H   H252      1.0  0.63279  0.18889  0.29388  1.0000
  C   C308      1.0  0.39679  0.42253  0.06085  1.0000
  H   H253      1.0  0.62178  0.41542  0.39088  1.0000
  C   C309      1.0  0.65962  0.38537  0.42006  1.0000
  C   C310      1.0  0.53429  0.14064  0.03372  1.0000
  C   C311      1.0  0.45756  0.42391  0.08011  1.0000
  Fe  Fe23      1.0  0.62048  0.34087  0.00108  1.0000
  C   C312      1.0  0.66032  0.33985  0.35422  1.0000
  C   C313      1.0  0.63957  0.23576  0.07734  1.0000
  C   C314      1.0  0.63846  0.39237  0.38924  1.0000
  H   H254      1.0  0.66017  0.32250  0.32846  1.0000
  C   C315      1.0  0.65097  0.25199  0.36452  1.0000
  C   C316      1.0  0.46375  0.23831  0.05403  1.0000
  P   P11       1.0  0.55757  0.20413  0.00764  1.0000
  C   C317      1.0  0.58545  0.22936  0.04103  1.0000
  S   S46       1.0  0.34240  0.33969  0.04071  1.0000
  C   C318      1.0  0.64739  0.20872  0.31078  1.0000
  C   C319      1.0  0.61727  0.21540  0.05322  1.0000
  H   H255      1.0  0.41539  0.40411  0.11337  1.0000
  C   C320      1.0  0.49862  0.22727  0.04976  1.0000
  C   C321      1.0  0.56103  0.15782  0.01484  1.0000
  H   H256      1.0  0.51114  0.15467  0.04417  1.0000
  C   C322      1.0  0.53717  0.10486  0.03932  1.0000
  H   H257      1.0  0.62237  0.37496  0.33243  1.0000
  C   C323      1.0  0.44240  0.23991  0.02210  1.0000
  C   C324      1.0  0.63879  0.36959  0.35635  1.0000
  C   C325      1.0  0.51256  0.21846  0.01332  1.0000
  C   C326      1.0  0.56674  0.08597  0.02619  1.0000
  S   S47       1.0  0.66276  0.36642  0.03886  1.0000
  H   H258      1.0  0.56890  0.05825  0.03057  1.0000
  C   C327      1.0  0.65880  0.48652  0.00448  1.0000
  C   C328      1.0  0.59349  0.10284  0.00743  1.0000
  C   C329      1.0  0.59069  0.13860  0.00179  1.0000
  S   S48       1.0  0.65041  0.28995  0.99237  1.0000
  H   H259      1.0  0.61642  0.08820  0.99723  1.0000
  C   C330      1.0  0.43273  0.45083  0.89876  1.0000
  C   C331      1.0  0.57202  0.45642  0.95235  1.0000
  H   H260      1.0  0.64302  0.16439  0.71667  1.0000
  C   C332      1.0  0.43368  0.43669  0.93443  1.0000
  H   H261      1.0  0.43924  0.23197  0.96119  1.0000
  C   C333      1.0  0.59621  0.22806  0.88801  1.0000
  S   S49       1.0  0.64109  0.36149  0.94708  1.0000
  H   H262      1.0  0.60046  0.28156  0.91143  1.0000
  C   C334      1.0  0.49942  0.46051  0.96590  1.0000
  C   C335      1.0  0.42175  0.40225  0.93771  1.0000
  H   H263      1.0  0.58799  0.17319  0.87218  1.0000
  H   H264      1.0  0.48126  0.29813  0.92649  1.0000
  H   H265      1.0  0.56773  0.40286  0.96728  1.0000
  C   C336      1.0  0.64578  0.16303  0.77764  1.0000
  S   S50       1.0  0.41232  0.30461  0.95916  1.0000
  C   C337      1.0  0.40753  0.38301  0.90614  1.0000
  H   H266      1.0  0.41739  0.44269  0.83998  1.0000
  H   H267      1.0  0.60013  0.45487  0.94756  1.0000
  C   C338      1.0  0.40574  0.39761  0.87103  1.0000
  H   H268      1.0  0.39463  0.38252  0.84676  1.0000
  C   C339      1.0  0.51764  0.42900  0.96979  1.0000
  H   H269      1.0  0.39795  0.35661  0.90887  1.0000
  H   H270      1.0  0.54062  0.31525  0.95003  1.0000
  H   H271      1.0  0.60652  0.23392  0.86046  1.0000
  H   H272      1.0  0.42339  0.39001  0.96440  1.0000
  H   H273      1.0  0.61936  0.17285  0.78237  1.0000
  C   C340      1.0  0.51796  0.32056  0.96802  1.0000
  C   C341      1.0  0.48416  0.31116  0.95461  1.0000
  C   C342      1.0  0.58616  0.19388  0.89481  1.0000
  H   H274      1.0  0.44275  0.47697  0.89539  1.0000
  C   C343      1.0  0.41852  0.43147  0.86728  1.0000
  C   C344      1.0  0.55382  0.42714  0.96352  1.0000
  C   C345      1.0  0.58060  0.24764  0.95276  1.0000
  P   P12       1.0  0.45264  0.46212  0.97440  1.0000
  Fe  Fe24      1.0  0.35700  0.31670  0.98237  1.0000
  C   C346      1.0  0.59291  0.25498  0.91682  1.0000
  C   C347      1.0  0.57365  0.18650  0.93074  1.0000
  C   C348      1.0  0.57195  0.21318  0.96041  1.0000
  C   C349      1.0  0.55388  0.48743  0.94677  1.0000
  C   C350      1.0  0.45411  0.31842  0.97719  1.0000
  H   H275      1.0  0.56519  0.16007  0.93511  1.0000
  H   H276      1.0  0.57801  0.26896  0.97459  1.0000
  C   C351      1.0  0.51764  0.48946  0.95322  1.0000
  C   C352      1.0  0.65903  0.15822  0.74061  1.0000
  C   C353      1.0  0.66655  0.15511  0.80853  1.0000
  H   H277      1.0  0.61159  0.15128  0.98712  1.0000
  H   H278      1.0  0.50055  0.21265  0.95306  1.0000
  H   H279      1.0  0.50390  0.40582  0.97791  1.0000
  H   H280      1.0  0.65522  0.15812  0.83668  1.0000
  H   H281      1.0  0.38688  0.49147  0.94649  1.0000
  C   C354      1.0  0.45578  0.23013  0.98592  1.0000
  C   C355      1.0  0.49070  0.21948  0.98146  1.0000
  C   C356      1.0  0.56967  0.90033  0.27578  1.0000
  C   C357      1.0  0.48781  0.68862  0.25007  1.0000
  C   C358      1.0  0.62364  0.92361  0.25139  1.0000
  H   H282      1.0  0.41575  0.55218  0.08511  1.0000
  C   C359      1.0  0.64635  0.52104  0.01326  1.0000
  C   C360      1.0  0.55656  0.62222  0.06041  1.0000
  C   C361      1.0  0.52173  0.66361  0.10060  1.0000
  C   C362      1.0  0.55174  0.65579  0.07832  1.0000
  P   P13       1.0  0.51609  0.70646  0.12557  1.0000
  C   C363      1.0  0.48153  0.73157  0.10516  1.0000
  C   C364      1.0  0.50497  0.69968  0.17433  1.0000
  C   C365      1.0  0.48076  0.72172  0.19451  1.0000
  H   H283      1.0  0.40558  0.78642  0.06560  1.0000
  C   C366      1.0  0.51205  0.66667  0.23023  1.0000
  C   C367      1.0  0.52062  0.67214  0.19250  1.0000
  C   C368      1.0  0.48330  0.76846  0.10734  1.0000
  C   C369      1.0  0.64163  0.91437  0.28387  1.0000
  H   H284      1.0  0.54190  0.89488  0.27266  1.0000
  C   C370      1.0  0.55679  0.73066  0.12403  1.0000
  C   C371      1.0  0.57974  0.73332  0.15521  1.0000
  C   C372      1.0  0.58728  0.89151  0.30846  1.0000
  C   C373      1.0  0.37259  0.53097  0.11570  1.0000
  C   C374      1.0  0.59801  0.76412  0.08830  1.0000
  C   C375      1.0  0.56615  0.74635  0.09069  1.0000
  H   H285      1.0  0.60519  0.77552  0.06206  1.0000
  H   H286      1.0  0.57147  0.67545  0.07428  1.0000
  H   H287      1.0  0.53956  0.65498  0.17755  1.0000
  H   H288      1.0  0.50563  0.78215  0.12015  1.0000
  C   C376      1.0  0.61158  0.75129  0.15282  1.0000
  H   H289      1.0  0.57336  0.72154  0.18131  1.0000
  S   S51       1.0  0.64301  0.69099  0.04349  1.0000
  C   C377      1.0  0.62309  0.89864  0.31264  1.0000
  H   H290      1.0  0.53535  0.57019  0.05043  1.0000
  H   H291      1.0  0.54894  0.74442  0.06626  1.0000
  H   H292      1.0  0.44940  0.68667  0.08660  1.0000
  H   H293      1.0  0.46833  0.74318  0.18127  1.0000
  H   H294      1.0  0.45791  0.81652  0.09416  1.0000
  H   H295      1.0  0.40157  0.72162  0.06260  1.0000
  C   C378      1.0  0.46393  0.68912  0.99687  1.0000
  C   C379      1.0  0.49672  0.63711  0.10472  1.0000
  C   C380      1.0  0.53146  0.59613  0.06443  1.0000
  C   C381      1.0  0.38895  0.55607  0.09476  1.0000
  H   H296      1.0  0.52420  0.64539  0.24411  1.0000
  H   H297      1.0  0.45336  0.73311  0.24759  1.0000
  C   C382      1.0  0.62082  0.76648  0.11928  1.0000
  H   H298      1.0  0.65606  0.97829  0.34097  1.0000
  C   C383      1.0  0.50150  0.60359  0.08653  1.0000
  C   C384      1.0  0.45167  0.71491  0.08920  1.0000
  H   H299      1.0  0.57976  0.61663  0.04311  1.0000
  C   C385      1.0  0.42427  0.73474  0.07547  1.0000
  S   S52       1.0  0.42340  0.66717  0.00350  1.0000
  C   C386      1.0  0.47220  0.71612  0.23222  1.0000
  C   C387      1.0  0.42658  0.77129  0.07705  1.0000
  H   H300      1.0  0.62925  0.75325  0.17688  1.0000
  H   H301      1.0  0.47363  0.64228  0.12222  1.0000
  H   H302      1.0  0.38320  0.60570  0.06988  1.0000
  H   H303      1.0  0.48201  0.58339  0.08969  1.0000
  C   C388      1.0  0.45609  0.78816  0.09301  1.0000
  H   H304      1.0  0.48112  0.68433  0.27929  1.0000
  H   H305      1.0  0.63595  0.89209  0.33848  1.0000
  S   S53       1.0  0.64771  0.59320  0.01365  1.0000
  H   H306      1.0  0.62299  0.52510  0.03051  1.0000
  H   H307      1.0  0.57311  0.87929  0.33070  1.0000
  H   H308      1.0  0.64579  0.77982  0.11711  1.0000
  C   C389      1.0  0.45169  0.53360  0.99854  1.0000
  H   H309      1.0  0.63739  0.93638  0.22924  1.0000
  C   C390      1.0  0.58784  0.91645  0.24730  1.0000
  Fe  Fe25      1.0  0.62498  0.71756  0.99221  1.0000
  H   H310      1.0  0.47607  0.52886  0.01293  1.0000
  H   H311      1.0  0.49402  0.64300  0.00655  1.0000
  C   C391      1.0  0.37060  0.58610  0.08607  1.0000
  Fe  Fe26      1.0  0.66431  0.64905  0.00077  1.0000
  C   C392      1.0  0.43749  0.56756  0.00078  1.0000
  C   C393      1.0  0.49526  0.67028  0.00054  1.0000
  H   H312      1.0  0.57415  0.92354  0.22209  1.0000
  H   H313      1.0  0.45087  0.58916  0.01628  1.0000
  H   H314      1.0  0.63207  0.58967  0.11146  1.0000
  H   H315      1.0  0.38679  0.50765  0.12242  1.0000
  C   C394      1.0  0.52821  0.68638  0.99659  1.0000
  H   H316      1.0  0.55203  0.67130  0.99871  1.0000
  C   C395      1.0  0.65787  0.60140  0.11046  1.0000
  C   C396      1.0  0.33755  0.53540  0.12705  1.0000
  C   C397      1.0  0.66409  0.55029  0.00036  1.0000
  H   H317      1.0  0.63878  0.65432  0.12117  1.0000
  H   H318      1.0  0.66626  0.96640  0.48453  1.0000
  C   C398      1.0  0.66162  0.63782  0.11571  1.0000
  C   C399      1.0  0.33557  0.59048  0.09734  1.0000
  H   H319      1.0  0.49232  0.62000  0.92565  1.0000
  S   S54       1.0  0.34297  0.65947  0.93504  1.0000
  H   H320      1.0  0.51491  0.56952  0.72427  1.0000
  H   H321      1.0  0.61661  0.71881  0.79086  1.0000
  H   H322      1.0  0.40105  0.65402  0.87495  1.0000
  H   H323      1.0  0.55175  0.54809  0.77563  1.0000
  H   H324      1.0  0.45848  0.62646  0.86010  1.0000
  C   C400      1.0  0.60459  0.72889  0.88661  1.0000
  C   C401      1.0  0.56673  0.58457  0.95904  1.0000
  H   H325      1.0  0.50946  0.72465  0.89475  1.0000
  C   C402      1.0  0.53119  0.59263  0.95571  1.0000
  H   H326      1.0  0.49171  0.66348  0.79426  1.0000
  C   C403      1.0  0.61878  0.73383  0.85082  1.0000
  H   H327      1.0  0.64034  0.75202  0.84815  1.0000
  C   C404      1.0  0.54414  0.62624  0.90141  1.0000
  C   C405      1.0  0.59093  0.59688  0.93339  1.0000
  C   C406      1.0  0.60542  0.71501  0.81856  1.0000
  C   C407      1.0  0.57976  0.61765  0.90473  1.0000
  H   H328      1.0  0.39750  0.71644  0.89929  1.0000
  H   H329      1.0  0.45192  0.75143  0.90907  1.0000
  H   H330      1.0  0.61855  0.59081  0.93615  1.0000
  H   H331      1.0  0.56842  0.67663  0.79669  1.0000
  H   H332      1.0  0.55864  0.58373  0.83619  1.0000
  H   H333      1.0  0.48495  0.62722  0.73384  1.0000
  H   H334      1.0  0.61487  0.74344  0.91172  1.0000
  C   C408      1.0  0.51986  0.61345  0.92707  1.0000
  C   C409      1.0  0.42486  0.66931  0.87893  1.0000
  C   C410      1.0  0.42284  0.70452  0.89262  1.0000
  C   C411      1.0  0.45350  0.72425  0.89797  1.0000
  C   C412      1.0  0.48621  0.70883  0.88980  1.0000
  C   C413      1.0  0.48843  0.67354  0.87559  1.0000
  C   C414      1.0  0.45747  0.65384  0.87053  1.0000
  P   P14       1.0  0.53028  0.65303  0.86401  1.0000
  C   C415      1.0  0.52535  0.62617  0.81996  1.0000
  C   C416      1.0  0.56392  0.68561  0.85809  1.0000
  C   C417      1.0  0.57753  0.70466  0.89026  1.0000
  C   C418      1.0  0.57801  0.69105  0.82207  1.0000
  C   C419      1.0  0.54236  0.59356  0.81428  1.0000
  H   H335      1.0  0.59905  0.62721  0.88535  1.0000
  H   H336      1.0  0.56739  0.70048  0.91829  1.0000
  C   C420      1.0  0.50474  0.63821  0.79064  1.0000
  C   C421      1.0  0.50095  0.61778  0.75631  1.0000
  C   C422      1.0  0.51782  0.58529  0.75092  1.0000
  C   C423      1.0  0.53854  0.57322  0.77987  1.0000
  S   S55       1.0  0.64375  0.67471  0.94979  1.0000
  H   H337      1.0  0.36324  0.55147  0.94935  1.0000
  C   C424      1.0  0.46596  0.72469  0.99001  1.0000
  C   C425      1.0  0.40191  0.51249  0.96091  1.0000
  C   C426      1.0  0.38805  0.54645  0.96291  1.0000
  C   C427      1.0  0.40577  0.57392  0.98278  1.0000
  H   H338      1.0  0.44212  0.73969  0.98756  1.0000
  S   S56       1.0  0.57137  0.74393  0.98795  1.0000
  C   C428      1.0  0.43443  0.50598  0.97767  1.0000
  H   H339      1.0  0.56800  0.50972  0.93708  1.0000
  H   H340      1.0  0.50399  0.51336  0.94770  1.0000
  C   C429      1.0  0.49898  0.74109  0.98711  1.0000
  H   H341      1.0  0.50025  0.76872  0.98237  1.0000
  H   H342      1.0  0.51243  0.58338  0.97576  1.0000
  Fe  Fe27      1.0  0.36604  0.68058  0.99078  1.0000
  H   H343      1.0  0.57577  0.56906  0.98164  1.0000
  C   C430      1.0  0.53029  0.72203  0.99040  1.0000
  H   H344      1.0  0.39458  0.60008  0.98438  1.0000
  Fe  Fe28      1.0  0.79632  0.13355  0.30106  1.0000
  S   S57       1.0  0.77122  0.18493  0.32119  1.0000
  S   S58       1.0  0.77149  0.08218  0.31461  1.0000
  Fe  Fe29      1.0  0.86221  0.16840  0.27476  1.0000
  S   S59       1.0  0.84297  0.22264  0.29338  1.0000
  S   S60       1.0  0.91474  0.15294  0.24839  1.0000
  Fe  Fe30      1.0  0.82375  0.19847  0.34637  1.0000
  S   S61       1.0  0.83492  0.22328  0.40600  1.0000
  Fe  Fe31      1.0  0.79154  0.20521  0.26624  1.0000
  S   S62       1.0  0.75617  0.24385  0.23605  1.0000
  S   S63       1.0  0.84745  0.14610  0.32950  1.0000
  S   S64       1.0  0.81219  0.15201  0.24431  1.0000
  C   C431      1.0  0.99617  0.01509  0.47694  1.0000
  C   C432      1.0  0.96865  0.11644  0.36187  1.0000
  H   H345      1.0  0.72254  0.33168  0.31318  1.0000
  C   C433      1.0  0.81875  0.20821  0.44922  1.0000
  Fe  Fe32      1.0  0.69390  0.31642  0.02661  1.0000
  S   S65       1.0  0.72727  0.28126  0.06337  1.0000
  C   C434      1.0  0.82382  0.03542  0.47020  1.0000
  C   C435      1.0  0.95273  0.16753  0.27308  1.0000
  C   C436      1.0  0.98163  0.20573  0.32142  1.0000
  C   C437      1.0  0.95086  0.19360  0.30299  1.0000
  C   C438      1.0  0.93169  0.13842  0.47480  1.0000
  H   H346      1.0  0.92575  0.20488  0.31131  1.0000
  C   C439      1.0  0.74883  0.25385  0.18774  1.0000
  C   C440      1.0  0.76522  0.23549  0.15668  1.0000
  C   C441      1.0  0.75825  0.24432  0.11910  1.0000
  C   C442      1.0  0.73489  0.27165  0.11178  1.0000
  C   C443      1.0  0.71864  0.29014  0.14286  1.0000
  C   C444      1.0  0.72548  0.28121  0.18043  1.0000
  H   H347      1.0  0.78325  0.21445  0.16159  1.0000
  H   H348      1.0  0.77115  0.22982  0.09550  1.0000
  C   C445      1.0  0.68553  0.26001  0.35436  1.0000
  H   H349      1.0  0.71267  0.29571  0.20408  1.0000
  C   C446      1.0  0.67194  0.02832  0.32279  1.0000
  H   H350      1.0  0.70916  0.44971  0.06252  1.0000
  H   H351      1.0  0.68882  0.23339  0.42520  1.0000
  C   C447      1.0  0.77754  0.32750  0.30182  1.0000
  C   C448      1.0  0.74898  0.30369  0.35612  1.0000
  C   C449      1.0  0.72417  0.46654  0.08265  1.0000
  C   C450      1.0  0.79488  0.04361  0.30029  1.0000
  C   C451      1.0  0.82119  0.04380  0.27260  1.0000
  H   H352      1.0  0.99880  0.10524  0.48046  1.0000
  H   H353      1.0  0.82801  0.06808  0.26036  1.0000
  C   C452      1.0  0.92628  0.07934  0.32726  1.0000
  H   H354      1.0  0.98017  0.22648  0.34396  1.0000
  H   H355      1.0  0.83645  0.28518  0.35445  1.0000
  C   C453      1.0  0.83629  0.04256  0.43419  1.0000
  H   H356      1.0  0.93644  0.08249  0.46067  1.0000
  H   H357      1.0  0.70099  0.31150  0.13804  1.0000
  C   C454      1.0  0.78629  0.01199  0.31603  1.0000
  C   C455      1.0  0.70628  0.25015  0.44238  1.0000
  C   C456      1.0  0.74449  0.30073  0.45141  1.0000
  H   H358      1.0  0.98706  0.13312  0.23891  1.0000
  C   C457      1.0  0.77580  0.17706  0.48530  1.0000
  C   C458      1.0  0.71520  0.24035  0.47858  1.0000
  H   H359      1.0  0.70463  0.21650  0.48898  1.0000
  C   C459      1.0  0.96547  0.22285  0.44757  1.0000
  C   C460      1.0  0.81168  0.29606  0.34593  1.0000
  P   P15       1.0  0.95651  0.15059  0.43382  1.0000
  H   H360      1.0  0.85762  0.01254  0.23759  1.0000
  H   H361      1.0  0.72709  0.24805  0.31321  1.0000
  C   C461      1.0  0.94473  0.12265  0.39207  1.0000
  C   C462      1.0  0.68183  0.33265  0.38501  1.0000
  H   H362      1.0  0.99407  0.12900  0.36231  1.0000
  C   C463      1.0  0.91855  0.24004  0.39124  1.0000
  C   C464      1.0  0.93599  0.26664  0.41295  1.0000
  C   C465      1.0  0.95939  0.25805  0.44122  1.0000
  C   C466      1.0  0.98548  0.15325  0.26211  1.0000
  C   C467      1.0  0.94826  0.19594  0.42551  1.0000
  C   C468      1.0  0.80904  0.00250  0.47599  1.0000
  H   H363      1.0  0.76600  0.01177  0.33754  1.0000
  C   C469      1.0  0.91117  0.10758  0.38899  1.0000
  H   H364      1.0  0.93103  0.29386  0.40804  1.0000
  C   C470      1.0  0.95948  0.09472  0.32976  1.0000
  C   C471      1.0  0.75358  0.29063  0.48742  1.0000
  H   H365      1.0  0.69371  0.20348  0.27533  1.0000
  H   H366      1.0  0.89150  0.11368  0.41071  1.0000
  C   C472      1.0  0.92429  0.20481  0.39774  1.0000
  H   H367      1.0  0.97265  0.27870  0.45830  1.0000
  H   H368      1.0  0.73264  0.42612  0.12106  1.0000
  H   H369      1.0  0.99799  0.21978  0.06770  1.0000
  C   C473      1.0  0.83792  0.01231  0.25974  1.0000
  H   H370      1.0  0.85650  0.23822  0.48336  1.0000
  C   C474      1.0  0.72054  0.28072  0.42862  1.0000
  H   H371      1.0  0.77584  0.34064  0.27568  1.0000
  C   C475      1.0  0.80976  0.31450  0.31324  1.0000
  H   H372      1.0  0.83305  0.31783  0.29619  1.0000
  C   C476      1.0  0.70848  0.02695  0.26649  1.0000
  H   H373      1.0  0.75263  0.16081  0.48566  1.0000
  H   H374      1.0  0.77764  0.17600  0.42377  1.0000
  C   C477      1.0  0.73744  0.45328  0.11557  1.0000
  H   H375      1.0  0.76725  0.46466  0.16674  1.0000
  H   H376      1.0  0.87597  0.07487  0.35411  1.0000
  C   C478      1.0  0.90222  0.08561  0.35694  1.0000
  H   H377      1.0  0.98357  0.21658  0.46968  1.0000
  H   H378      1.0  0.97491  0.01096  0.45678  1.0000
  C   C479      1.0  0.83419  0.22078  0.48378  1.0000
  H   H379      1.0  0.90000  0.24663  0.36966  1.0000
  H   H380      1.0  0.84616  0.06848  0.42941  1.0000
  H   H381      1.0  0.90996  0.18474  0.38093  1.0000
  H   H382      1.0  0.69296  0.07437  0.29898  1.0000
  H   H383      1.0  0.91871  0.06368  0.30169  1.0000
  C   C480      1.0  0.70066  0.24227  0.32206  1.0000
  P   P16       1.0  0.70941  0.29395  0.38178  1.0000
  H   H384      1.0  0.75662  0.32384  0.44105  1.0000
  H   H385      1.0  0.84364  0.02249  0.37589  1.0000
  C   C481      1.0  0.78989  0.18570  0.45012  1.0000
  C   C482      1.0  0.83495  0.01664  0.40405  1.0000
  C   C483      1.0  0.75698  0.47503  0.14123  1.0000
  C   C484      1.0  0.74728  0.32229  0.32323  1.0000
  C   C485      1.0  0.78138  0.29012  0.36687  1.0000
  H   H386      1.0  0.78334  0.27410  0.39082  1.0000
  H   H387      1.0  0.72386  0.04080  0.24643  1.0000
  C   C486      1.0  0.69100  0.04595  0.29620  1.0000
  H   H388      1.0  0.97769  0.09090  0.30614  1.0000
  H   H389      1.0  0.69711  0.35085  0.44237  1.0000
  C   C487      1.0  0.92595  0.10283  0.48055  1.0000
  C   C488      1.0  0.68164  0.21680  0.30035  1.0000
  H   H390      1.0  0.77712  0.26861  0.00137  1.0000
  H   H391      1.0  0.92925  0.29443  0.00583  1.0000
  H   H392      1.0  0.95043  0.35599  0.00870  1.0000
  H   H393      1.0  0.99858  0.02551  0.37696  1.0000
  C   C489      1.0  0.68120  0.35565  0.41803  1.0000
  Fe  Fe33      1.0  0.80769  0.13882  0.68754  1.0000
  S   S66       1.0  0.76594  0.17828  0.67586  1.0000
  S   S67       1.0  0.78695  0.08877  0.71044  1.0000
  Fe  Fe34      1.0  0.86611  0.18569  0.66104  1.0000
  S   S68       1.0  0.82853  0.22882  0.64887  1.0000
  S   S69       1.0  0.92162  0.19222  0.63943  1.0000
  Fe  Fe35      1.0  0.80233  0.21809  0.70466  1.0000
  S   S70       1.0  0.78849  0.26343  0.74904  1.0000
  Fe  Fe36      1.0  0.79568  0.18536  0.62134  1.0000
  S   S71       1.0  0.76891  0.18306  0.56331  1.0000
  S   S72       1.0  0.84313  0.17818  0.71888  1.0000
  S   S73       1.0  0.83416  0.14265  0.63107  1.0000
  C   C490      1.0  0.76343  0.24217  0.94745  1.0000
  H   H394      1.0  0.96888  0.12739  0.55954  1.0000
  C   C491      1.0  0.81055  0.28438  0.95621  1.0000
  C   C492      1.0  0.95972  0.18546  0.66609  1.0000
  C   C493      1.0  0.95826  0.17289  0.70234  1.0000
  C   C494      1.0  0.77061  0.23859  0.90848  1.0000
  H   H395      1.0  0.93314  0.16769  0.71511  1.0000
  C   C495      1.0  0.89737  0.06593  0.62643  1.0000
  C   C496      1.0  0.75609  0.26722  0.78590  1.0000
  C   C497      1.0  0.72873  0.24305  0.78804  1.0000
  C   C498      1.0  0.70466  0.24627  0.81863  1.0000
  C   C499      1.0  0.70769  0.27339  0.84775  1.0000
  C   C500      1.0  0.73427  0.29827  0.84495  1.0000
  C   C501      1.0  0.75794  0.29547  0.81394  1.0000
  H   H396      1.0  0.72582  0.22213  0.76588  1.0000
  C   C502      1.0  0.77081  0.03719  0.80412  1.0000
  H   H397      1.0  0.73651  0.31971  0.86661  1.0000
  H   H398      1.0  0.77782  0.31538  0.81183  1.0000
  C   C503      1.0  0.96688  0.06573  0.60004  1.0000
  C   C504      1.0  0.93150  0.34690  0.98733  1.0000
  C   C505      1.0  0.79067  0.19036  0.51990  1.0000
  H   H399      1.0  0.82115  0.20973  0.79504  1.0000
  C   C506      1.0  0.90642  0.26881  0.86324  1.0000
  H   H400      1.0  0.83195  0.22240  0.54530  1.0000
  C   C507      1.0  0.70124  0.14338  0.80264  1.0000
  C   C508      1.0  0.89795  0.15463  0.53219  1.0000
  H   H401      1.0  0.74170  0.22817  0.95911  1.0000
  C   C509      1.0  0.84724  0.04877  0.70519  1.0000
  C   C510      1.0  0.81064  0.04902  0.70530  1.0000
  S   S74       1.0  0.70836  0.43828  0.97404  1.0000
  H   H402      1.0  0.86150  0.07333  0.70751  1.0000
  C   C511      1.0  0.89225  0.11923  0.53756  1.0000
  C   C512      1.0  0.78345  0.26500  0.97131  1.0000
  H   H403      1.0  0.77512  0.42530  0.84689  1.0000
  C   C513      1.0  0.99245  0.19190  0.64969  1.0000
  H   H404      1.0  0.76402  0.18094  0.79159  1.0000
  H   H405      1.0  0.71570  0.00636  0.49941  1.0000
  C   C514      1.0  0.68221  0.18777  0.93230  1.0000
  H   H406      1.0  0.69332  0.00740  0.83721  1.0000
  C   C515      1.0  0.87592  0.26181  0.79113  1.0000
  H   H407      1.0  0.87687  0.11203  0.56170  1.0000
  H   H408      1.0  0.89387  0.01671  0.70344  1.0000
  S   S75       1.0  0.67785  0.27455  0.88693  1.0000
  C   C516      1.0  0.77872  0.38720  0.88873  1.0000
  C   C517      1.0  0.94520  0.03644  0.59174  1.0000
  C   C518      1.0  0.90870  0.24692  0.79691  1.0000
  C   C519      1.0  0.71120  0.12083  0.91723  1.0000
  C   C520      1.0  0.76660  0.07244  0.60360  1.0000
  H   H409      1.0  0.84484  0.16002  0.89729  1.0000
  C   C521      1.0  0.74622  0.09174  0.54381  1.0000
  H   H410      1.0  0.86158  0.35343  0.83315  1.0000
  H   H411      1.0  0.92226  0.23279  0.77335  1.0000
  C   C522      1.0  0.87336  0.28394  0.85769  1.0000
  C   C523      1.0  0.73875  0.26060  0.50110  1.0000
  C   C524      1.0  0.78106  0.17598  0.81488  1.0000
  C   C525      1.0  0.77089  0.15379  0.84294  1.0000
  H   H412      1.0  0.82814  0.40348  0.81148  1.0000
  H   H413      1.0  0.76988  0.07724  0.63400  1.0000
  C   C526      1.0  0.75033  0.09767  0.58308  1.0000
  H   H414      1.0  0.88506  0.37648  0.91411  1.0000
  H   H415      1.0  0.74129  0.12207  0.59759  1.0000
  H   H416      1.0  0.95494  0.01347  0.57526  1.0000
  C   C527      1.0  0.89511  0.30049  0.95817  1.0000
  C   C528      1.0  0.81965  0.39099  0.83656  1.0000
  C   C529      1.0  0.69288  0.14503  0.73441  1.0000
  C   C530      1.0  0.78978  0.40331  0.85645  1.0000
  C   C531      1.0  0.69871  0.13137  0.95374  1.0000
  C   C532      1.0  0.82705  0.16441  0.87425  1.0000
  H   H417      1.0  0.86233  0.19910  0.84721  1.0000
  C   C533      1.0  0.91895  0.36987  0.96142  1.0000
  C   C534      1.0  0.79239  0.01698  0.70334  1.0000
  C   C535      1.0  0.89440  0.35825  0.93391  1.0000
  P   P17       1.0  0.72869  0.13224  0.84176  1.0000
  C   C536      1.0  0.76641  0.07311  0.81371  1.0000
  H   H418      1.0  0.80187  0.25562  0.86290  1.0000
  H   H419      1.0  0.96509  0.04637  0.51740  1.0000
  C   C537      1.0  0.86550  0.01668  0.70310  1.0000
  P   P18       1.0  0.85056  0.30826  0.89659  1.0000
  C   C538      1.0  0.91050  0.03670  0.60484  1.0000
  C   C539      1.0  0.98953  0.16678  0.72194  1.0000
  H   H420      1.0  0.92821  0.39676  0.96268  1.0000
  H   H421      1.0  0.82494  0.05592  0.49311  1.0000
  H   H422      1.0  0.97069  0.11629  0.63202  1.0000
  C   C540      1.0  0.77458  0.03475  0.54552  1.0000
  H   H423      1.0  0.88622  0.27348  0.95717  1.0000
  H   H424      1.0  0.68339  0.22772  0.81957  1.0000
  C   C541      1.0  0.92393  0.25039  0.83297  1.0000
  H   H425      1.0  0.91898  0.27122  0.89069  1.0000
  C   C542      1.0  0.81385  0.19227  0.81660  1.0000
  H   H426      1.0  0.94946  0.23892  0.83735  1.0000
  H   H427      1.0  0.88701  0.17471  0.55227  1.0000
  H   H428      1.0  0.83282  0.29105  0.81611  1.0000
  C   C543      1.0  0.77883  0.04120  0.58505  1.0000
  H   H429      1.0  0.98539  0.18649  0.54278  1.0000
  C   C544      1.0  0.85825  0.28000  0.82136  1.0000
  C   C545      1.0  0.91931  0.09434  0.63645  1.0000
  H   H430      1.0  0.79162  0.02262  0.60202  1.0000
  H   H431      1.0  0.76403  0.01703  0.70379  1.0000
  Fe  Fe37      1.0  0.68469  0.38444  0.98406  1.0000
  C   C546      1.0  0.79790  0.25765  0.89335  1.0000
  C   C547      1.0  0.88216  0.32349  0.93219  1.0000
  C   C548      1.0  0.95405  0.09407  0.62374  1.0000
  H   H432      1.0  0.78794  0.34638  0.92580  1.0000
  H   H433      1.0  0.75560  0.39682  0.90432  1.0000
  H   H434      1.0  0.78689  0.13114  0.89467  1.0000
  C   C549      1.0  0.70891  0.14363  0.88781  1.0000
  H   H435      1.0  0.72343  0.09532  0.91237  1.0000
  H   H436      1.0  0.75428  0.22207  0.88963  1.0000
  C   C550      1.0  0.71379  0.13750  0.76522  1.0000
  C   C551      1.0  0.70935  0.06173  0.84067  1.0000
  C   C552      1.0  0.79415  0.14817  0.87270  1.0000
  C   C553      1.0  0.82692  0.34550  0.88065  1.0000
  H   H437      1.0  0.70303  0.14054  0.70569  1.0000
  H   H438      1.0  0.68493  0.07098  0.85358  1.0000
  C   C554      1.0  0.83694  0.18640  0.84610  1.0000
  C   C555      1.0  0.69509  0.17747  0.89601  1.0000
  C   C556      1.0  0.73584  0.08562  0.83261  1.0000
  C   C557      1.0  0.91959  0.31222  0.98568  1.0000
  H   H439      1.0  0.87028  0.06640  0.63578  1.0000
  C   C558      1.0  0.83837  0.36239  0.84877  1.0000
  H   H440      1.0  0.78644  0.09104  0.80507  1.0000
  H   H441      1.0  0.73987  0.12708  0.75981  1.0000
  H   H442      1.0  0.90942  0.11673  0.65401  1.0000
  H   H443      1.0  0.82429  0.30336  0.97500  1.0000
  H   H444      1.0  0.74615  0.25247  0.52883  1.0000
  H   H445      1.0  0.75455  0.05635  0.49461  1.0000
  H   H446      1.0  0.86404  0.25922  0.76313  1.0000
  C   C559      1.0  0.79720  0.35846  0.90082  1.0000
  C   C560      1.0  0.81850  0.28031  0.91711  1.0000
  C   C561      1.0  0.82043  0.21169  0.51894  1.0000
  S   S76       1.0  0.71942  0.33640  0.97424  1.0000
  H   H447      1.0  0.73422  0.11183  0.52795  1.0000
  H   H448      1.0  0.67158  0.21404  0.93810  1.0000
  C   C562      1.0  0.90610  0.09332  0.51169  1.0000
  C   C563      1.0  0.91732  0.16426  0.50082  1.0000
  C   C564      1.0  0.68425  0.16484  0.96126  1.0000
  C   C565      1.0  0.71392  0.02575  0.83119  1.0000
  Fe  Fe38      1.0  0.67443  0.31241  0.94074  1.0000
  H   H449      1.0  0.69476  0.19630  0.87455  1.0000
  C   C566      1.0  0.75803  0.06036  0.52510  1.0000
  H   H450      1.0  0.79415  0.02790  0.78882  1.0000
  C   C567      1.0  0.74465  0.01349  0.81296  1.0000
  H   H451      1.0  0.99368  0.20197  0.62187  1.0000
  H   H452      1.0  0.90116  0.06593  0.51578  1.0000
  C   C568      1.0  0.68942  0.48082  0.98287  1.0000
  H   H453      1.0  0.89364  0.01424  0.59873  1.0000
  H   H454      1.0  0.92053  0.19191  0.49699  1.0000
  H   H455      1.0  0.70098  0.11387  0.97645  1.0000
  H   H456      1.0  0.98838  0.15699  0.74994  1.0000
  C   C569      1.0  0.99633  0.13448  0.55948  1.0000
  C   C570      1.0  0.99059  0.03487  0.51148  1.0000
  H   H457      1.0  0.77258  0.30569  0.50456  1.0000
  H   H458      1.0  0.67537  0.17341  0.98969  1.0000
  Fe  Fe39      1.0  0.87629  0.82350  0.30608  1.0000
  S   S77       1.0  0.82860  0.80558  0.33689  1.0000
  S   S78       1.0  0.92412  0.78900  0.30935  1.0000
  Fe  Fe40      1.0  0.84130  0.89163  0.28680  1.0000
  S   S79       1.0  0.79168  0.87893  0.31665  1.0000
  S   S80       1.0  0.85012  0.94153  0.25739  1.0000
  Fe  Fe41      1.0  0.82637  0.86099  0.36324  1.0000
  S   S81       1.0  0.82777  0.88331  0.42519  1.0000
  Fe  Fe42      1.0  0.79839  0.82463  0.28710  1.0000
  S   S82       1.0  0.75233  0.79391  0.25883  1.0000
  S   S83       1.0  0.87572  0.87768  0.33459  1.0000
  S   S84       1.0  0.84652  0.83864  0.25478  1.0000
  H   H459      1.0  0.94080  0.77847  0.40555  1.0000
  Fe  Fe43      1.0  0.69438  0.71925  0.03743  1.0000
  S   S85       1.0  0.73262  0.74551  0.08158  1.0000
  C   C571      1.0  0.72004  0.93079  0.36030  1.0000
  H   H460      1.0  0.76021  0.93214  0.26366  1.0000
  H   H461      1.0  0.74503  0.93471  0.41523  1.0000
  C   C572      1.0  0.96496  0.80505  0.29501  1.0000
  C   C573      1.0  0.96708  0.83269  0.27127  1.0000
  H   H462      1.0  0.75391  0.62127  0.03377  1.0000
  H   H463      1.0  0.94341  0.84588  0.26335  1.0000
  H   H464      1.0  0.82117  0.96292  0.38702  1.0000
  C   C574      1.0  0.77164  0.56825  0.04015  1.0000
  H   H465      1.0  0.69759  0.68132  0.11553  1.0000
  C   C575      1.0  0.73276  0.88118  0.39709  1.0000
  H   H466      1.0  0.90539  0.98901  0.28715  1.0000
  H   H467      1.0  0.99428  0.76721  0.32446  1.0000
  C   C576      1.0  0.74742  0.78032  0.20949  1.0000
  C   C577      1.0  0.77303  0.78699  0.18241  1.0000
  C   C578      1.0  0.76786  0.77621  0.14360  1.0000
  C   C579      1.0  0.73718  0.75843  0.13115  1.0000
  C   C580      1.0  0.71168  0.75149  0.15826  1.0000
  C   C581      1.0  0.71676  0.76241  0.19709  1.0000
  H   H468      1.0  0.79686  0.80041  0.19147  1.0000
  H   H469      1.0  0.78781  0.78155  0.12297  1.0000
  H   H470      1.0  0.68813  0.73762  0.14935  1.0000
  H   H471      1.0  0.69682  0.75692  0.21772  1.0000
  C   C582      1.0  0.82049  0.86184  0.46756  1.0000
  H   H472      1.0  0.79436  0.90388  0.21059  1.0000
  C   C583      1.0  0.70525  0.90815  0.33141  1.0000
  H   H473      1.0  0.96418  0.77864  0.47094  1.0000
  H   H474      1.0  0.78347  0.82395  0.44363  1.0000
  H   H475      1.0  0.94267  0.83019  0.19461  1.0000
  C   C584      1.0  0.80909  0.97625  0.44598  1.0000
  C   C585      1.0  0.85354  0.86048  0.15597  1.0000
  C   C586      1.0  0.86286  0.82500  0.15131  1.0000
  C   C587      1.0  0.89536  0.81359  0.16439  1.0000
  C   C588      1.0  0.91802  0.83819  0.18300  1.0000
  P   P19       1.0  0.90597  0.76730  0.15968  1.0000
  C   C589      1.0  0.87082  0.74576  0.18340  1.0000
  C   C590      1.0  0.90875  0.75058  0.11047  1.0000
  C   C591      1.0  0.91898  0.71555  0.10189  1.0000
  C   C592      1.0  0.92046  0.70158  0.06410  1.0000
  C   C593      1.0  0.91177  0.72249  0.03461  1.0000
  C   C594      1.0  0.90193  0.75750  0.04288  1.0000
  C   C595      1.0  0.90063  0.77162  0.08065  1.0000
  C   C596      1.0  0.86557  0.75304  0.22261  1.0000
  C   C597      1.0  0.83678  0.73897  0.24084  1.0000
  C   C598      1.0  0.81273  0.71784  0.21999  1.0000
  C   C599      1.0  0.81758  0.71058  0.18088  1.0000
  C   C600      1.0  0.84642  0.72456  0.16256  1.0000
  C   C601      1.0  0.94854  0.75947  0.17991  1.0000
  H   H476      1.0  0.67370  0.90203  0.48732  1.0000
  C   C602      1.0  0.97679  0.96608  0.33760  1.0000
  C   C603      1.0  0.92415  0.83232  0.41192  1.0000
  C   C604      1.0  0.92289  0.95886  0.37342  1.0000
  C   C605      1.0  0.95254  0.73899  0.21114  1.0000
  H   H477      1.0  0.91263  0.71156  0.00535  1.0000
  C   C606      1.0  0.90843  0.87360  0.18806  1.0000
  H   H478      1.0  0.82838  0.86908  0.14601  1.0000
  H   H479      1.0  0.84460  0.80632  0.13787  1.0000
  C   C607      1.0  0.87627  0.88477  0.17446  1.0000
  H   H480      1.0  0.92559  0.69901  0.12454  1.0000
  H   H481      1.0  0.92824  0.67449  0.05768  1.0000
  C   C608      1.0  0.90344  0.97028  0.34317  1.0000
  H   H482      1.0  0.89507  0.77364  0.02000  1.0000
  H   H483      1.0  0.89320  0.79882  0.08622  1.0000
  H   H484      1.0  0.88345  0.77014  0.23906  1.0000
  H   H485      1.0  0.83253  0.74537  0.27098  1.0000
  H   H486      1.0  0.78965  0.70827  0.23398  1.0000
  H   H487      1.0  0.79815  0.69536  0.16448  1.0000
  H   H488      1.0  0.84870  0.71974  0.13203  1.0000
  C   C609      1.0  0.67078  0.99162  0.32000  1.0000
  C   C610      1.0  0.69470  0.65303  0.11256  1.0000
  H   H489      1.0  0.74938  0.64433  0.10180  1.0000
  C   C611      1.0  0.99971  0.84210  0.25636  1.0000
  H   H490      1.0  0.93031  0.72707  0.22418  1.0000
  H   H491      1.0  0.91296  0.83155  0.38368  1.0000
  C   C612      1.0  0.76613  0.59815  0.02010  1.0000
  H   H492      1.0  0.98854  0.71937  0.25151  1.0000
  C   C613      1.0  0.95949  0.95701  0.37081  1.0000
  C   C614      1.0  0.69703  0.87799  0.22440  1.0000
  C   C615      1.0  0.92174  0.86276  0.43632  1.0000
  C   C616      1.0  0.72406  0.63188  0.10445  1.0000
  H   H493      1.0  0.86862  0.91212  0.17917  1.0000
  C   C617      1.0  0.97846  0.77401  0.16377  1.0000
  P   P20       1.0  0.75903  0.56812  0.08969  1.0000
  C   C618      1.0  0.79418  0.58696  0.11880  1.0000
  H   H494      1.0  0.72098  0.97645  0.24008  1.0000
  C   C619      1.0  0.78792  0.53871  0.02150  1.0000
  H   H495      1.0  0.92733  0.85193  0.99166  1.0000
  C   C620      1.0  0.73342  0.91730  0.39313  1.0000
  H   H496      1.0  0.79705  0.95652  0.31636  1.0000
  C   C621      1.0  0.95276  0.83364  0.48533  1.0000
  C   C622      1.0  0.78724  0.60023  0.15633  1.0000
  C   C623      1.0  0.81384  0.61632  0.17856  1.0000
  C   C624      1.0  0.84759  0.61920  0.16356  1.0000
  C   C625      1.0  0.85483  0.60572  0.12639  1.0000
  C   C626      1.0  0.82827  0.58960  0.10406  1.0000
  C   C627      1.0  0.72059  0.59518  0.09925  1.0000
  H   H497      1.0  0.69532  0.85370  0.31271  1.0000
  H   H498      1.0  0.88103  0.60785  0.11482  1.0000
  C   C628      1.0  0.68912  0.97225  0.29084  1.0000
  H   H499      1.0  0.76647  0.85904  0.16565  1.0000
  C   C629      1.0  0.70734  0.99026  0.26353  1.0000
  S   S86       1.0  0.71686  0.67571  0.99784  1.0000
  C   C630      1.0  0.80374  0.98066  0.30392  1.0000
  C   C631      1.0  0.70516  0.87179  0.33536  1.0000
  C   C632      1.0  0.99579  0.78851  0.30592  1.0000
  C   C633      1.0  0.76700  0.89703  0.21395  1.0000
  C   C634      1.0  0.82910  0.98060  0.27513  1.0000
  H   H500      1.0  0.76114  0.59840  0.16830  1.0000
  H   H501      1.0  0.80824  0.62680  0.20738  1.0000
  H   H502      1.0  0.86811  0.63190  0.18078  1.0000
  H   H503      1.0  0.92552  0.89231  0.20348  1.0000
  C   C635      1.0  0.74753  0.91305  0.24410  1.0000
  H   H504      1.0  0.96913  0.98526  0.28171  1.0000
  H   H505      1.0  0.77885  0.52624  0.15394  1.0000
  H   H506      1.0  0.74404  0.87083  0.42212  1.0000
  H   H507      1.0  0.79893  0.95035  0.45012  1.0000
  C   C636      1.0  0.71872  0.85842  0.36818  1.0000
  H   H508      1.0  0.70498  0.84143  0.17547  1.0000
  H   H509      1.0  0.90790  0.88540  0.42709  1.0000
  C   C637      1.0  0.93988  0.80227  0.42436  1.0000
  C   C638      1.0  0.68718  0.58012  0.10218  1.0000
  C   C639      1.0  0.75138  0.87180  0.18877  1.0000
  H   H510      1.0  0.67051  0.86910  0.22871  1.0000
  H   H511      1.0  0.90942  0.95058  0.39837  1.0000
  H   H512      1.0  0.72208  0.95870  0.35743  1.0000
  C   C640      1.0  0.82191  0.98330  0.41014  1.0000
  H   H513      1.0  0.87507  0.97050  0.34434  1.0000
  C   C641      1.0  0.79613  0.83463  0.46933  1.0000
  C   C642      1.0  0.71214  0.90437  0.24905  1.0000
  H   H514      1.0  0.83440  0.57950  0.07530  1.0000
  P   P21       1.0  0.68764  0.92482  0.28876  1.0000
  H   H515      1.0  0.72003  0.51136  0.04973  1.0000
  C   C643      1.0  0.71652  0.86208  0.19416  1.0000
  H   H516      1.0  0.99267  0.89144  0.33335  1.0000
  C   C644      1.0  0.95696  0.97817  0.30773  1.0000
  C   C645      1.0  0.95348  0.80267  0.46117  1.0000
  H   H517      1.0  0.97603  0.78979  0.13962  1.0000
  C   C646      1.0  0.92052  0.98039  0.31067  1.0000
  C   C647      1.0  0.98576  0.73410  0.22656  1.0000
  C   C648      1.0  0.93580  0.86344  0.47299  1.0000
  H   H518      1.0  0.97416  0.94760  0.39425  1.0000
  H   H519      1.0  0.71930  0.83030  0.37069  1.0000
  C   C649      1.0  0.76350  0.50999  0.13384  1.0000
  H   H520      1.0  0.79293  0.51537  0.03629  1.0000
  H   H521      1.0  0.68334  0.55212  0.09736  1.0000
  C   C650      1.0  0.73049  0.50144  0.07533  1.0000
  C   C651      1.0  0.75050  0.52335  0.10058  1.0000
  H   H522      1.0  0.92771  0.91669  0.00517  1.0000
  Fe  Fe44      1.0  0.81353  0.83464  0.64094  1.0000
  S   S87       1.0  0.86842  0.85493  0.64713  1.0000
  S   S88       1.0  0.78800  0.82177  0.58291  1.0000
  Fe  Fe45      1.0  0.80293  0.83216  0.72819  1.0000
  S   S89       1.0  0.85732  0.85344  0.74003  1.0000
  S   S90       1.0  0.76339  0.82437  0.77687  1.0000
  Fe  Fe46      1.0  0.84698  0.89088  0.69506  1.0000
  S   S91       1.0  0.87154  0.94519  0.70023  1.0000
  Fe  Fe47      1.0  0.87465  0.81627  0.69137  1.0000
  S   S92       1.0  0.92395  0.78359  0.69420  1.0000
  S   S93       1.0  0.79116  0.87323  0.68639  1.0000
  S   S94       1.0  0.82113  0.79232  0.68187  1.0000
  H   H523      1.0  0.85579  0.89609  0.50024  1.0000
  H   H524      1.0  0.85235  0.78610  0.56446  1.0000
  Fe  Fe48      1.0  0.69478  0.70494  0.94966  1.0000
  H   H525      1.0  0.97717  0.96628  0.61658  1.0000
  S   S95       1.0  0.73015  0.70910  0.89686  1.0000
  H   H526      1.0  0.98000  0.77774  0.58789  1.0000
  H   H527      1.0  0.99452  0.88979  0.68371  1.0000
  H   H528      1.0  0.88545  0.92417  0.61295  1.0000
  C   C652      1.0  0.77602  0.59830  0.98185  1.0000
  C   C653      1.0  0.88601  0.78251  0.79170  1.0000
  C   C654      1.0  0.96304  0.80664  0.68648  1.0000
  C   C655      1.0  0.92252  0.78283  0.79461  1.0000
  C   C656      1.0  0.96316  0.84330  0.68789  1.0000
  C   C657      1.0  0.95238  0.78001  0.58206  1.0000
  H   H529      1.0  0.93903  0.85774  0.69331  1.0000
  H   H530      1.0  0.77108  0.62129  0.96633  1.0000
  H   H531      1.0  0.89280  0.82432  0.53178  1.0000
  H   H532      1.0  0.87350  0.76641  0.76898  1.0000
  H   H533      1.0  0.82337  0.92969  0.63167  1.0000
  H   H534      1.0  0.79639  0.96030  0.69938  1.0000
  C   C658      1.0  0.75466  0.79175  0.80979  1.0000
  C   C659      1.0  0.77281  0.75981  0.80898  1.0000
  C   C660      1.0  0.76464  0.73490  0.83550  1.0000
  C   C661      1.0  0.73832  0.74139  0.86337  1.0000
  C   C662      1.0  0.72022  0.77337  0.86424  1.0000
  C   C663      1.0  0.72837  0.79827  0.83769  1.0000
  H   H535      1.0  0.79291  0.75413  0.78770  1.0000
  H   H536      1.0  0.77888  0.71035  0.83440  1.0000
  H   H537      1.0  0.70008  0.77902  0.88549  1.0000
  H   H538      1.0  0.71410  0.82281  0.83874  1.0000
  C   C664      1.0  0.82812  0.86228  0.53664  1.0000
  C   C665      1.0  0.80246  0.83635  0.53870  1.0000
  H   H539      1.0  0.93808  0.76671  0.77428  1.0000
  H   H540      1.0  0.84058  0.87292  0.56241  1.0000
  C   C666      1.0  0.81065  0.98484  0.70094  1.0000
  P   P22       1.0  0.78921  0.99389  0.52101  1.0000
  C   C667      1.0  0.86571  0.80399  0.81700  1.0000
  C   C668      1.0  0.90337  0.80603  0.55082  1.0000
  C   C669      1.0  0.89312  0.76094  0.59437  1.0000
  H   H541      1.0  0.83744  0.80425  0.81362  1.0000
  C   C670      1.0  0.99458  0.78822  0.67960  1.0000
  C   C671      1.0  0.96829  0.87603  0.55842  1.0000
  C   C672      1.0  0.69419  0.54454  0.97801  1.0000
  H   H542      1.0  0.76733  0.80188  0.50602  1.0000
  H   H543      1.0  0.88981  0.90842  0.83469  1.0000
  C   C673      1.0  0.95689  0.91375  0.61574  1.0000
  C   C674      1.0  0.95388  0.88117  0.59514  1.0000
  C   C675      1.0  0.85561  0.96809  0.53876  1.0000
  C   C676      1.0  0.99462  0.86141  0.68263  1.0000
  H   H544      1.0  0.86853  0.94870  0.78802  1.0000
  C   C677      1.0  0.93963  0.80410  0.55715  1.0000
  H   H545      1.0  0.79839  0.56849  0.93345  1.0000
  H   H546      1.0  0.94605  0.91731  0.64432  1.0000
  H   H547      1.0  0.94123  0.85984  0.60851  1.0000
  C   C678      1.0  0.79386  0.84921  0.91845  1.0000
  C   C679      1.0  0.88008  0.91163  0.92341  1.0000
  C   C680      1.0  0.98861  0.93660  0.56335  1.0000
  H   H548      1.0  0.87511  0.74494  0.60949  1.0000
  C   C681      1.0  0.82089  0.83085  0.89844  1.0000
  C   C682      1.0  0.82311  0.79423  0.89990  1.0000
  P   P23       1.0  0.85514  0.85491  0.87623  1.0000
  C   C683      1.0  0.78695  0.82223  0.50478  1.0000
  C   C684      1.0  0.88184  0.82579  0.84562  1.0000
  C   C685      1.0  0.88029  0.78441  0.56926  1.0000
  C   C686      1.0  0.93882  0.80471  0.82280  1.0000
  C   C687      1.0  0.91860  0.82637  0.84809  1.0000
  C   C688      1.0  0.75605  0.92852  0.51235  1.0000
  H   H549      1.0  0.97957  0.89072  0.93808  1.0000
  C   C689      1.0  0.75213  0.96502  0.51132  1.0000
  C   C690      1.0  0.89755  0.92655  0.95549  1.0000
  H   H550      1.0  0.74792  0.98572  0.80493  1.0000
  C   C691      1.0  0.83857  0.88662  0.84520  1.0000
  C   C692      1.0  0.80316  0.88669  0.83457  1.0000
  C   C693      1.0  0.79138  0.90940  0.80795  1.0000
  C   C694      1.0  0.81484  0.93211  0.79169  1.0000
  C   C695      1.0  0.85017  0.93208  0.80193  1.0000
  C   C696      1.0  0.86208  0.90923  0.82836  1.0000
  H   H551      1.0  0.73046  0.50602  0.95270  1.0000
  H   H552      1.0  0.84392  0.77929  0.88544  1.0000
  H   H553      1.0  0.89654  0.82532  0.93500  1.0000
  H   H554      1.0  0.96713  0.80536  0.82445  1.0000
  H   H555      1.0  0.93177  0.84399  0.86878  1.0000
  C   C697      1.0  0.88006  0.87506  0.91538  1.0000
  P   P24       1.0  0.96876  0.83291  0.53356  1.0000
  C   C698      1.0  0.79813  0.77629  0.92014  1.0000
  H   H556      1.0  0.78482  0.86805  0.84510  1.0000
  H   H557      1.0  0.76434  0.90801  0.79858  1.0000
  C   C699      1.0  0.92915  0.75854  0.60049  1.0000
  C   C700      1.0  0.87906  0.95055  0.56126  1.0000
  H   H558      1.0  0.89727  0.95478  0.96168  1.0000
  C   C701      1.0  0.86749  0.93734  0.59506  1.0000
  C   C702      1.0  0.89717  0.85365  0.94023  1.0000
  C   C703      1.0  0.83234  0.94052  0.60577  1.0000
  C   C704      1.0  0.69552  0.91959  0.49382  1.0000
  C   C705      1.0  0.82026  0.97185  0.54972  1.0000
  C   C706      1.0  0.76872  0.83110  0.93837  1.0000
  H   H559      1.0  0.75101  0.78038  0.95391  1.0000
  H   H560      1.0  0.86602  0.92868  0.90553  1.0000
  H   H561      1.0  0.79218  0.87753  0.91854  1.0000
  C   C707      1.0  0.97434  0.94140  0.59998  1.0000
  H   H562      1.0  0.86502  0.97821  0.51274  1.0000
  C   C708      1.0  0.98573  0.90397  0.54270  1.0000
  H   H563      1.0  0.78140  0.95897  0.59156  1.0000
  H   H564      1.0  0.78087  0.91723  0.51959  1.0000
  H   H565      1.0  0.93899  0.74072  0.62050  1.0000
  H   H566      1.0  0.79919  0.74790  0.92020  1.0000
  H   H567      1.0  0.80598  0.94880  0.77010  1.0000
  C   C709      1.0  0.84732  0.98464  0.70116  1.0000
  C   C710      1.0  0.70683  0.51006  0.96951  1.0000
  S   S96       1.0  0.67478  0.74959  0.98899  1.0000
  C   C711      1.0  0.83686  0.87514  0.50130  1.0000
  C   C712      1.0  0.77085  0.79464  0.93919  1.0000
  H   H568      1.0  0.90620  0.94717  0.55265  1.0000
  C   C713      1.0  0.80871  0.95728  0.58302  1.0000
  H   H569      1.0  0.70789  0.56666  0.96753  1.0000
  C   C714      1.0  0.91446  0.86862  0.97240  1.0000
  H   H570      1.0  0.73128  0.87787  0.50522  1.0000
  C   C715      1.0  0.71954  0.97849  0.50095  1.0000
  H   H571      1.0  0.99459  0.75983  0.67832  1.0000
  C   C716      1.0  0.72788  0.90597  0.50386  1.0000
  H   H572      1.0  0.99784  0.90015  0.51486  1.0000
  C   C717      1.0  0.91464  0.90507  0.98003  1.0000
  H   H573      1.0  0.93227  0.88680  0.49185  1.0000
  C   C718      1.0  0.79146  0.56856  0.96330  1.0000
  H   H574      1.0  0.74739  0.84521  0.95300  1.0000
  H   H575      1.0  0.99485  0.82881  0.91824  1.0000
  C   C719      1.0  0.79752  0.53882  0.98317  1.0000
  H   H576      1.0  0.80912  0.51559  0.96870  1.0000
  C   C720      1.0  0.69138  0.95583  0.49229  1.0000
