data_image0
_chemical_formula_structural       H2FeS2H2C3H2SFeS2FeS2FeSFeS3C5H4C5HFeH3C3H4SHCHC7H8C4H2C2HCH6CH4C2HSC3PC16HCH15CHC2HC9H5C4HC4H5C4PC2H2CHC3HCHCHCPCH2C2HC8HC2HC2H4C2H5C3HC6PC4HCHC2HCHC3HPH6FeHCHCFeS2FeS2FeS2FeSFeS3HCSCSHC4H2CH4C4HCH3C3FeHCHCHC6H5C7PC10H4C2H7C2H4C5H4CPCHCHC2H2C8PC18H20C3H2C6HCHCHC2HCHC3HCHPCHSHCHFeCSCHC2FeHCHC2HCH2CH2CHC5HC2H3C6HCH2C3FeHCSCH2C5H4CHCSCHSCH3PC3H2CH2FeSHFeS2H2FeS3FeS2FeS2FeSFeS3C6H5C3H4C3H2CHC2HC4HSC3PC10HSC6HCH11C2H5C4H2C3HCH2FeHCH2C9H2C2PHCHCH2C2HC4HCHCHC2HCH2CH2CHC2HCHC4HCHC5H3C4H2CH6CH2FeS2FeHSFeCFeS3FeSCFeS2FeSFeS3CSH3CHC2H2C4HC6H4C2HSHC3HCHCH2CHC3H3C4H2C2H3C7PC18H12CH7CHC4HC3HCH2C2H5C3HCH3CHPHC4HC3HCHCH2CH4SH3SH3CH5C3SCH2C2HC3FeS2C3HC2H2FeHSFeS2FeS2FeSFeS3HSHC3H5SC2HFeHCHSHCH3C2H2C6HC6H3CHSHC6H3C6PC18H20CHCHCHC2HCHC8HC6PC15SC2H16C2H2C4H3CHCH2C3HC2HCH2SCHCHPCHCPSC2HCHCH4CHC2HC4H4CFeC2H2CHFeS2H2CHFeCSFeS2FeS2FeSFeS3C3H2C3HC2HCHPC3H3C3H3CH2CHC2HC6H3C2HC4PCHC3HC7H2PHCH3CH2C3H2C2H2SH4C4HFeHC2H3C3H2CHC2H2C8HCHCH2CH5CHC5PC18HSH20CH2C3HCHCHC5PHC5H5CHC5HSH3C6H4C2HCH3C2HCHCHPCH2CHCHC2HCFeCH2CFeS2H2SFeS2FeS2FeSFeS3CH3C2HC3H2CH3C4HFeC2HCSCHCHC6H5CH2C3H4C3H2CH2C2HCHCH2C7H5CH2C2HCHCHC4PC7HCH2C2SH2C2HC2HCH2C6HC2H7CPHC2HCH2CH3C4PFeH2C4HC7H2CHC2H2C2H3CPCHC3HCHCHSC3HCHPH4CH6C4HC2HC5H2C5FeC3HC3H2C2HCH2CFeS2FeS2FeS2FeSFeS3HC2H2FeC2SC2H5C5FeCH2C3HCHC2H2PC4HC6H4C2SH3CHCH3CHC3H2C2HCH2CH4PC15H2C4H12C2H3CH2CSCHC3HCHCHC3HC3SC2FeHC3H2C2HCHC2HSCHC3HPC2HC7HC5H3FeS2FeSHFeHFeSCSFeS2FeS2FeSFeS3C6H4C3H2C2HCH2CHC4H2PH2C5HC2H2CHCSCHC4H2C2HC6H4C3H2CH2CH2C2PHC4H2CHC6HC3HCH3C2HCHCHCH3CH4C2HCH2CH4PSHCSHC2HCHCHC5H2CH3C4H2CH2CHC2FeSCFeS2FeHFeSCSFeSCFeS2FeSFeS3C2H2CPCH2CHC4HC6H6CH4CSH2CHCPCH2C2HCHC2SCHCH2CHCHCH5CHC5HCH2CHCPC2H2CHCHCH2CHC3HCH2CH2C2HSC2H3C2H2C4HC2HCHC2HCHCSH3CH3C5HCHCHC6PC14HC3H11CHC2HCHCH2CH2C5HC2H2C2HPCH2CHC2HCH2CH5C2SHFeSHFeS2FeS2FeS2FeSFeS3CHC2HC3H4CHC2H2C8H9C2SH6C2H2CH5SC3H2CHC2HC3HCHSC2HCH3C2HFeHCHC8PC4HC2H4C7H6C3HCH8C6PC12H2CHCH8C2H8C2FeC6PC7HCHC2SC2SC2SC2H2CHCHCH2CH2C6H2CHCHC6HC2H3C4FeSHC2HSH3CHC2FeS2FeS2FeS2FeSFeS3C2SHCHSH3C4H2CH2CHC6H5CPC2H5CFeC2H4C5PHC9H2C2HC2H3CHC6PC18H20C7PHC8HC6H5C2H3C2H6CPHCHCH2C6HC6HCHSCH10CHFeH2CHC3HC4HCHSC3HCHCH2CS
_chemical_formula_sum              "H1152 Fe96 S192 C1440 P48"
_cell_length_a       56.9291
_cell_length_b       56.4425
_cell_length_c       36.4433
_cell_angle_alpha    89.5896
_cell_angle_beta     89.6964
_cell_angle_gamma    88.1774

_space_group_name_H-M_alt    "P 1"
_space_group_IT_number       1

loop_
  _space_group_symop_operation_xyz
  'x, y, z'

loop_
  _atom_site_type_symbol
  _atom_site_label
  _atom_site_symmetry_multiplicity
  _atom_site_fract_x
  _atom_site_fract_y
  _atom_site_fract_z
  _atom_site_occupancy
  H   H1        1.0  0.14458  0.28997  0.06868  1.0000
  H   H2        1.0  0.27072  0.21803  0.13453  1.0000
  Fe  Fe1       1.0  0.29135  0.14007  0.03823  1.0000
  S   S1        1.0  0.30136  0.16516  0.08493  1.0000
  S   S2        1.0  0.25559  0.12428  0.03447  1.0000
  H   H3        1.0  0.33435  0.24302  0.39242  1.0000
  H   H4        1.0  0.06900  0.22549  0.13428  1.0000
  C   C1        1.0  0.26822  0.02359  0.00436  1.0000
  C   C2        1.0  0.47543  0.24406  0.41651  1.0000
  C   C3        1.0  0.29732  0.15714  0.30751  1.0000
  H   H5        1.0  0.26646  0.18861  0.47725  1.0000
  H   H6        1.0  0.07259  0.21642  0.06786  1.0000
  S   S3        1.0  0.09213  0.28654  0.02697  1.0000
  Fe  Fe2       1.0  0.36515  0.19720  0.27047  1.0000
  S   S4        1.0  0.36381  0.23367  0.24584  1.0000
  S   S5        1.0  0.36066  0.16482  0.23394  1.0000
  Fe  Fe3       1.0  0.37371  0.21620  0.34959  1.0000
  S   S6        1.0  0.37187  0.25381  0.32890  1.0000
  S   S7        1.0  0.38580  0.21316  0.40956  1.0000
  Fe  Fe4       1.0  0.34126  0.24311  0.29476  1.0000
  S   S8        1.0  0.30385  0.25827  0.29145  1.0000
  Fe  Fe5       1.0  0.39482  0.24039  0.28245  1.0000
  S   S9        1.0  0.42721  0.26099  0.26707  1.0000
  S   S10       1.0  0.34145  0.20618  0.31849  1.0000
  S   S11       1.0  0.39782  0.20324  0.30391  1.0000
  C   C4        1.0  0.30873  0.07176  0.36598  1.0000
  C   C5        1.0  0.33463  0.99092  0.02269  1.0000
  C   C6        1.0  0.27284  0.29591  0.28340  1.0000
  C   C7        1.0  0.29658  0.28843  0.28238  1.0000
  C   C8        1.0  0.19355  0.29140  0.35813  1.0000
  H   H7        1.0  0.45919  0.24913  0.40268  1.0000
  H   H8        1.0  0.28812  0.22742  0.19417  1.0000
  H   H9        1.0  0.25950  0.28334  0.29017  1.0000
  H   H10       1.0  0.33089  0.10060  0.37846  1.0000
  C   C9        1.0  0.28255  0.19087  0.27153  1.0000
  C   C10       1.0  0.46021  0.22380  0.26144  1.0000
  C   C11       1.0  0.45607  0.24803  0.26765  1.0000
  C   C12       1.0  0.17684  0.29541  0.33053  1.0000
  C   C13       1.0  0.02904  0.31080  0.23807  1.0000
  H   H11       1.0  0.44555  0.21228  0.25847  1.0000
  Fe  Fe6       1.0  0.11653  0.31713  0.02194  1.0000
  H   H12       1.0  0.33200  0.29932  0.27277  1.0000
  H   H13       1.0  0.26599  0.25256  0.23861  1.0000
  H   H14       1.0  0.20774  0.25814  0.16482  1.0000
  C   C14       1.0  0.31713  0.28210  0.45913  1.0000
  C   C15       1.0  0.35018  0.19797  0.45585  1.0000
  C   C16       1.0  0.37154  0.20930  0.45264  1.0000
  H   H15       1.0  0.33320  0.17564  0.02654  1.0000
  H   H16       1.0  0.34161  0.19229  0.43138  1.0000
  H   H17       1.0  0.30892  0.31514  0.38108  1.0000
  H   H18       1.0  0.26565  0.11896  0.32364  1.0000
  S   S12       1.0  0.30942  0.11069  0.00577  1.0000
  H   H19       1.0  0.29651  0.20895  0.44016  1.0000
  C   C17       1.0  0.02413  0.30402  0.16222  1.0000
  H   H20       1.0  0.42620  0.31847  0.05972  1.0000
  C   C18       1.0  0.39136  0.30576  0.06918  1.0000
  C   C19       1.0  0.31789  0.16433  0.12637  1.0000
  C   C20       1.0  0.31956  0.18535  0.14671  1.0000
  C   C21       1.0  0.33251  0.18581  0.17958  1.0000
  C   C22       1.0  0.34400  0.16518  0.19268  1.0000
  C   C23       1.0  0.34241  0.14417  0.17232  1.0000
  C   C24       1.0  0.32945  0.14372  0.13937  1.0000
  H   H21       1.0  0.31092  0.20148  0.13685  1.0000
  H   H22       1.0  0.33363  0.20212  0.19476  1.0000
  H   H23       1.0  0.35125  0.12812  0.18212  1.0000
  H   H24       1.0  0.32839  0.12743  0.12409  1.0000
  H   H25       1.0  0.23418  0.26956  0.04515  1.0000
  H   H26       1.0  0.03116  0.27901  0.04204  1.0000
  H   H27       1.0  0.28065  0.18545  0.21306  1.0000
  H   H28       1.0  0.31275  0.19020  0.38412  1.0000
  C   C25       1.0  0.46480  0.18294  0.13015  1.0000
  C   C26       1.0  0.31444  0.09568  0.36630  1.0000
  C   C27       1.0  0.28302  0.24132  0.01112  1.0000
  C   C28       1.0  0.28764  0.06490  0.35039  1.0000
  H   H29       1.0  0.22587  0.26794  0.22364  1.0000
  H   H30       1.0  0.04657  0.26105  0.15481  1.0000
  C   C29       1.0  0.29976  0.14399  0.27500  1.0000
  C   C30       1.0  0.47755  0.19498  0.15641  1.0000
  H   H31       1.0  0.20076  0.15741  0.15971  1.0000
  C   C31       1.0  0.17996  0.24033  0.07428  1.0000
  H   H32       1.0  0.20029  0.13481  0.10152  1.0000
  H   H33       1.0  0.27655  0.20928  0.27006  1.0000
  H   H34       1.0  0.39768  0.23262  0.02575  1.0000
  H   H35       1.0  0.17951  0.22169  0.06771  1.0000
  H   H36       1.0  0.22377  0.21821  0.42569  1.0000
  H   H37       1.0  0.21042  0.15460  0.04279  1.0000
  C   C32       1.0  0.32484  0.26074  0.44280  1.0000
  H   H38       1.0  0.32074  0.05850  0.37768  1.0000
  H   H39       1.0  0.27310  0.26259  0.47754  1.0000
  H   H40       1.0  0.33698  0.14945  0.41511  1.0000
  H   H41       1.0  0.32446  0.27807  0.35323  1.0000
  C   C33       1.0  0.01110  0.29070  0.18737  1.0000
  C   C34       1.0  0.41577  0.30317  0.06578  1.0000
  H   H42       1.0  0.45837  0.23706  0.46783  1.0000
  S   S13       1.0  0.26939  0.05502  0.01440  1.0000
  C   C35       1.0  0.34936  0.20388  0.05578  1.0000
  C   C36       1.0  0.36753  0.22012  0.05611  1.0000
  C   C37       1.0  0.38321  0.22071  0.02616  1.0000
  P   P1        1.0  0.37186  0.23838  0.09606  1.0000
  C   C38       1.0  0.34413  0.24928  0.11486  1.0000
  C   C39       1.0  0.38753  0.22151  0.13111  1.0000
  C   C40       1.0  0.40143  0.23316  0.15671  1.0000
  C   C41       1.0  0.41291  0.22036  0.18465  1.0000
  C   C42       1.0  0.41046  0.19590  0.18759  1.0000
  C   C43       1.0  0.39676  0.18415  0.16222  1.0000
  C   C44       1.0  0.38524  0.19687  0.13417  1.0000
  C   C45       1.0  0.34249  0.25573  0.15198  1.0000
  C   C46       1.0  0.32180  0.26632  0.16591  1.0000
  C   C47       1.0  0.30263  0.27072  0.14283  1.0000
  C   C48       1.0  0.30394  0.26405  0.10601  1.0000
  C   C49       1.0  0.32462  0.25345  0.09197  1.0000
  C   C50       1.0  0.38888  0.26374  0.08338  1.0000
  C   C51       1.0  0.41341  0.26127  0.07963  1.0000
  C   C52       1.0  0.29351  0.15415  0.24122  1.0000
  C   C53       1.0  0.47542  0.26269  0.27157  1.0000
  H   H43       1.0  0.44574  0.27895  0.06869  1.0000
  C   C54       1.0  0.37793  0.28614  0.07786  1.0000
  H   H44       1.0  0.21164  0.19941  0.15939  1.0000
  H   H45       1.0  0.28680  0.19151  0.32966  1.0000
  H   H46       1.0  0.13050  0.31635  0.19447  1.0000
  H   H47       1.0  0.33732  0.20270  0.07877  1.0000
  H   H48       1.0  0.29597  0.14409  0.21616  1.0000
  H   H49       1.0  0.40295  0.25224  0.15591  1.0000
  H   H50       1.0  0.42313  0.22960  0.20473  1.0000
  H   H51       1.0  0.41864  0.18612  0.21011  1.0000
  H   H52       1.0  0.39425  0.16528  0.16529  1.0000
  H   H53       1.0  0.37404  0.18742  0.11581  1.0000
  H   H54       1.0  0.35727  0.25305  0.17019  1.0000
  H   H55       1.0  0.32071  0.27133  0.19462  1.0000
  H   H56       1.0  0.28670  0.27917  0.15366  1.0000
  H   H57       1.0  0.28896  0.26733  0.08832  1.0000
  H   H58       1.0  0.32549  0.24898  0.06317  1.0000
  C   C55       1.0  0.16006  0.25469  0.06681  1.0000
  H   H59       1.0  0.21531  0.28273  0.10787  1.0000
  C   C56       1.0  0.26572  0.21799  0.05959  1.0000
  C   C57       1.0  0.27060  0.23416  0.18743  1.0000
  H   H60       1.0  0.35909  0.28870  0.08082  1.0000
  C   C58       1.0  0.37674  0.14688  0.32850  1.0000
  C   C59       1.0  0.38643  0.15101  0.36291  1.0000
  C   C60       1.0  0.37197  0.15178  0.39399  1.0000
  C   C61       1.0  0.34777  0.14896  0.39057  1.0000
  C   C62       1.0  0.33772  0.14616  0.35577  1.0000
  C   C63       1.0  0.35252  0.14430  0.32498  1.0000
  C   C64       1.0  0.03900  0.26723  0.06243  1.0000
  C   C65       1.0  0.19898  0.30965  0.38252  1.0000
  C   C66       1.0  0.32691  0.01465  0.02022  1.0000
  H   H61       1.0  0.38788  0.14628  0.30426  1.0000
  H   H62       1.0  0.40508  0.15389  0.36547  1.0000
  H   H63       1.0  0.37951  0.15520  0.42063  1.0000
  H   H64       1.0  0.26663  0.01340  0.06140  1.0000
  H   H65       1.0  0.34544  0.14135  0.29803  1.0000
  C   C67       1.0  0.24779  0.25589  0.04238  1.0000
  C   C68       1.0  0.47588  0.16508  0.10929  1.0000
  C   C69       1.0  0.06044  0.23707  0.11426  1.0000
  C   C70       1.0  0.31101  0.30161  0.43659  1.0000
  H   H66       1.0  0.47241  0.28146  0.27617  1.0000
  C   C71       1.0  0.31364  0.30488  0.27364  1.0000
  C   C72       1.0  0.27782  0.10592  0.33551  1.0000
  C   C73       1.0  0.29018  0.19195  0.43147  1.0000
  C   C74       1.0  0.03685  0.27255  0.09986  1.0000
  H   H67       1.0  0.44638  0.18755  0.12589  1.0000
  H   H68       1.0  0.17990  0.30776  0.09469  1.0000
  H   H69       1.0  0.23979  0.28841  0.48746  1.0000
  H   H70       1.0  0.99231  0.26319  0.07611  1.0000
  H   H71       1.0  0.26594  0.20181  0.07576  1.0000
  C   C75       1.0  0.32751  0.25929  0.40474  1.0000
  C   C76       1.0  0.42677  0.28091  0.07086  1.0000
  C   C77       1.0  0.29193  0.15888  0.38895  1.0000
  C   C78       1.0  0.16004  0.27890  0.07440  1.0000
  P   P2        1.0  0.30628  0.14384  0.35085  1.0000
  C   C79       1.0  0.24799  0.23553  0.06484  1.0000
  C   C80       1.0  0.28496  0.17757  0.23945  1.0000
  H   H72       1.0  0.28332  0.04633  0.34997  1.0000
  H   H73       1.0  0.99906  0.27763  0.17775  1.0000
  C   C81       1.0  0.26713  0.00700  0.03350  1.0000
  H   H74       1.0  0.17305  0.28152  0.31129  1.0000
  C   C82       1.0  0.19996  0.27462  0.09663  1.0000
  C   C83       1.0  0.26525  0.15856  0.44130  1.0000
  C   C84       1.0  0.29933  0.18129  0.39972  1.0000
  H   H75       1.0  0.05335  0.24313  0.02197  1.0000
  C   C85       1.0  0.27322  0.18055  0.45232  1.0000
  H   H76       1.0  0.42226  0.24420  0.08400  1.0000
  C   C86       1.0  0.32197  0.27899  0.38265  1.0000
  H   H77       1.0  0.30702  0.12602  0.27554  1.0000
  C   C87       1.0  0.28853  0.18067  0.30547  1.0000
  P   P3        1.0  0.22168  0.30549  0.41695  1.0000
  C   C88       1.0  0.23532  0.27643  0.41049  1.0000
  H   H78       1.0  0.32939  0.24538  0.45962  1.0000
  H   H79       1.0  0.39947  0.22507  0.48267  1.0000
  C   C89       1.0  0.25814  0.24834  0.21253  1.0000
  C   C90       1.0  0.05156  0.24689  0.05101  1.0000
  H   H80       1.0  0.46604  0.15594  0.08865  1.0000
  C   C91       1.0  0.27218  0.08198  0.33521  1.0000
  C   C92       1.0  0.22428  0.25639  0.42460  1.0000
  C   C93       1.0  0.23276  0.23361  0.41562  1.0000
  C   C94       1.0  0.25226  0.23072  0.39246  1.0000
  C   C95       1.0  0.26377  0.25053  0.37919  1.0000
  C   C96       1.0  0.25534  0.27331  0.38805  1.0000
  C   C97       1.0  0.21019  0.30764  0.46341  1.0000
  C   C98       1.0  0.28317  0.22093  0.03302  1.0000
  H   H81       1.0  0.29666  0.20715  0.02937  1.0000
  C   C99       1.0  0.29907  0.11292  0.35085  1.0000
  C   C100      1.0  0.26075  0.22914  0.15338  1.0000
  H   H82       1.0  0.32091  0.02406  0.04454  1.0000
  C   C101      1.0  0.27460  0.14770  0.40981  1.0000
  C   C102      1.0  0.31344  0.30002  0.39848  1.0000
  H   H83       1.0  0.14462  0.24706  0.05497  1.0000
  H   H84       1.0  0.22159  0.19632  0.04202  1.0000
  H   H85       1.0  0.20242  0.27423  0.35960  1.0000
  H   H86       1.0  0.25218  0.14966  0.45760  1.0000
  C   C103      1.0  0.22321  0.29760  0.49264  1.0000
  C   C104      1.0  0.06242  0.23189  0.07689  1.0000
  H   H87       1.0  0.20853  0.25840  0.44128  1.0000
  H   H88       1.0  0.25821  0.21315  0.38415  1.0000
  H   H89       1.0  0.27887  0.24832  0.36108  1.0000
  H   H90       1.0  0.26413  0.28826  0.37619  1.0000
  H   H91       1.0  0.36243  0.26827  0.48317  1.0000
  C   C105      1.0  0.98951  0.29647  0.10564  1.0000
  C   C106      1.0  0.34062  0.19304  0.49079  1.0000
  C   C107      1.0  0.18001  0.28889  0.08912  1.0000
  H   H92       1.0  0.45869  0.19393  0.48121  1.0000
  C   C108      1.0  0.21079  0.16435  0.06828  1.0000
  C   C109      1.0  0.20503  0.15326  0.10136  1.0000
  C   C110      1.0  0.20537  0.16599  0.13411  1.0000
  C   C111      1.0  0.21167  0.18976  0.13383  1.0000
  C   C112      1.0  0.21801  0.20082  0.10074  1.0000
  C   C113      1.0  0.21720  0.18803  0.06793  1.0000
  P   P4        1.0  0.22574  0.23159  0.09988  1.0000
  C   C114      1.0  0.20000  0.25013  0.08976  1.0000
  C   C115      1.0  0.23832  0.23833  0.14406  1.0000
  C   C116      1.0  0.22552  0.25175  0.17019  1.0000
  C   C117      1.0  0.23557  0.25702  0.20401  1.0000
  H   H93       1.0  0.26859  0.13039  0.40240  1.0000
  C   C118      1.0  0.04766  0.25730  0.12580  1.0000
  H   H94       1.0  0.25586  0.07664  0.32303  1.0000
  C   C119      1.0  0.16533  0.31754  0.32712  1.0000
  C   C120      1.0  0.01354  0.29411  0.22512  1.0000
  H   H95       1.0  0.46911  0.20893  0.17259  1.0000
  C   C121      1.0  0.26526  0.25874  0.01565  1.0000
  H   H96       1.0  0.00338  0.28381  0.24434  1.0000
  C   C122      1.0  0.38284  0.21639  0.48479  1.0000
  C   C123      1.0  0.34694  0.18851  0.02619  1.0000
  C   C124      1.0  0.47502  0.23690  0.45337  1.0000
  H   H97       1.0  0.32449  0.18351  0.49296  1.0000
  P   P5        1.0  0.02065  0.29909  0.11357  1.0000
  H   H98       1.0  0.30445  0.31810  0.44808  1.0000
  H   H99       1.0  0.12073  0.31265  0.12819  1.0000
  H   H100      1.0  0.03095  0.31344  0.26733  1.0000
  H   H101      1.0  0.06871  0.31385  0.10032  1.0000
  H   H102      1.0  0.14214  0.18145  0.99775  1.0000
  H   H103      1.0  0.26491  0.27447  0.99843  1.0000
  Fe  Fe7       1.0  0.27329  0.09525  0.99939  1.0000
  H   H104      1.0  0.32793  0.30809  0.88293  1.0000
  C   C125      1.0  0.38061  0.20542  0.99647  1.0000
  H   H105      1.0  0.17293  0.24737  0.96840  1.0000
  C   C126      1.0  0.41411  0.22778  0.79700  1.0000
  Fe  Fe8       1.0  0.30049  0.13171  0.95426  1.0000
  S   S14       1.0  0.32855  0.14036  0.91107  1.0000
  S   S15       1.0  0.26535  0.11536  0.94606  1.0000
  Fe  Fe9       1.0  0.34207  0.19982  0.70646  1.0000
  S   S16       1.0  0.36600  0.22946  0.71918  1.0000
  S   S17       1.0  0.31688  0.18355  0.74870  1.0000
  Fe  Fe10      1.0  0.35258  0.20463  0.62209  1.0000
  S   S18       1.0  0.37752  0.23417  0.63018  1.0000
  S   S19       1.0  0.34038  0.19144  0.56634  1.0000
  Fe  Fe11      1.0  0.39113  0.21256  0.67827  1.0000
  S   S20       1.0  0.42869  0.20128  0.69344  1.0000
  Fe  Fe12      1.0  0.35008  0.24817  0.67010  1.0000
  S   S21       1.0  0.33811  0.28676  0.67404  1.0000
  S   S22       1.0  0.36774  0.18171  0.66765  1.0000
  S   S23       1.0  0.32455  0.21976  0.65974  1.0000
  H   H106      1.0  0.42725  0.21953  0.77904  1.0000
  C   C127      1.0  0.19432  0.31269  0.53629  1.0000
  S   S24       1.0  0.09261  0.28420  0.93585  1.0000
  C   C128      1.0  0.38307  0.13931  0.73514  1.0000
  S   S25       1.0  0.28557  0.16175  0.98710  1.0000
  H   H107      1.0  0.16354  0.27971  0.68721  1.0000
  C   C129      1.0  0.35210  0.19982  0.52298  1.0000
  C   C130      1.0  0.32816  0.29863  0.77767  1.0000
  C   C131      1.0  0.37301  0.21203  0.51975  1.0000
  C   C132      1.0  0.39118  0.30546  0.96257  1.0000
  H   H108      1.0  0.38195  0.21758  0.54419  1.0000
  H   H109      1.0  0.30636  0.26916  0.88750  1.0000
  C   C133      1.0  0.33794  0.12068  0.68259  1.0000
  H   H110      1.0  0.30844  0.09613  0.85458  1.0000
  H   H111      1.0  0.33509  0.18860  0.92338  1.0000
  H   H112      1.0  0.32804  0.29602  0.74824  1.0000
  H   H113      1.0  0.29323  0.16216  0.67699  1.0000
  C   C134      1.0  0.33650  0.24462  0.88808  1.0000
  C   C135      1.0  0.30904  0.29483  0.66120  1.0000
  C   C136      1.0  0.29511  0.27906  0.64235  1.0000
  C   C137      1.0  0.27163  0.28524  0.63428  1.0000
  H   H114      1.0  0.32991  0.29638  0.58195  1.0000
  C   C138      1.0  0.44038  0.20079  0.58337  1.0000
  H   H115      1.0  0.30234  0.26203  0.63418  1.0000
  H   H116      1.0  0.26086  0.27270  0.62034  1.0000
  H   H117      1.0  0.36410  0.00640  0.67159  1.0000
  C   C139      1.0  0.45583  0.21467  0.68337  1.0000
  C   C140      1.0  0.45705  0.23802  0.67050  1.0000
  C   C141      1.0  0.40234  0.10719  0.70160  1.0000
  Fe  Fe13      1.0  0.11475  0.26918  0.98260  1.0000
  H   H118      1.0  0.44104  0.24833  0.66549  1.0000
  C   C142      1.0  0.26349  0.23442  0.51397  1.0000
  H   H119      1.0  0.37781  0.31184  0.87219  1.0000
  C   C143      1.0  0.39184  0.21828  0.80004  1.0000
  H   H120      1.0  0.33251  0.02299  0.92820  1.0000
  C   C144      1.0  0.32467  0.15331  0.86661  1.0000
  C   C145      1.0  0.34446  0.16142  0.84745  1.0000
  C   C146      1.0  0.34244  0.17078  0.81152  1.0000
  C   C147      1.0  0.32062  0.17197  0.79405  1.0000
  C   C148      1.0  0.30089  0.16372  0.81311  1.0000
  C   C149      1.0  0.30279  0.15477  0.84931  1.0000
  H   H121      1.0  0.36153  0.16017  0.86034  1.0000
  H   H122      1.0  0.35782  0.17665  0.79713  1.0000
  H   H123      1.0  0.28397  0.16417  0.79974  1.0000
  H   H124      1.0  0.28743  0.14840  0.86343  1.0000
  H   H125      1.0  0.40187  0.09057  0.68709  1.0000
  C   C150      1.0  0.37449  0.22937  0.82185  1.0000
  C   C151      1.0  0.34631  0.04010  0.66160  1.0000
  C   C152      1.0  0.36229  0.02482  0.67970  1.0000
  C   C153      1.0  0.37572  0.03323  0.70854  1.0000
  C   C154      1.0  0.37332  0.05696  0.71911  1.0000
  C   C155      1.0  0.35775  0.07256  0.70045  1.0000
  C   C156      1.0  0.34389  0.06385  0.67209  1.0000
  P   P6        1.0  0.35422  0.10281  0.71560  1.0000
  C   C157      1.0  0.38207  0.11702  0.71850  1.0000
  C   C158      1.0  0.31872  0.13522  0.69341  1.0000
  C   C159      1.0  0.33967  0.10130  0.75969  1.0000
  C   C160      1.0  0.31608  0.09485  0.76178  1.0000
  C   C161      1.0  0.30481  0.09305  0.79587  1.0000
  C   C162      1.0  0.31719  0.09713  0.82811  1.0000
  C   C163      1.0  0.34106  0.28291  0.80021  1.0000
  C   C164      1.0  0.35212  0.10486  0.79228  1.0000
  C   C165      1.0  0.30346  0.24536  0.55410  1.0000
  C   C166      1.0  0.99489  0.27801  0.98608  1.0000
  H   H126      1.0  0.38790  0.02131  0.72287  1.0000
  H   H127      1.0  0.38360  0.06318  0.74186  1.0000
  H   H128      1.0  0.33107  0.07524  0.65821  1.0000
  H   H129      1.0  0.31289  0.13571  0.72169  1.0000
  C   C167      1.0  0.17728  0.28225  0.70715  1.0000
  C   C168      1.0  0.17459  0.22846  0.97320  1.0000
  H   H130      1.0  0.30636  0.09137  0.73703  1.0000
  H   H131      1.0  0.28648  0.08856  0.79737  1.0000
  H   H132      1.0  0.29422  0.21646  0.58958  1.0000
  H   H133      1.0  0.47992  0.26656  0.65631  1.0000
  H   H134      1.0  0.37049  0.10916  0.79172  1.0000
  H   H135      1.0  0.22257  0.25238  0.74894  1.0000
  H   H136      1.0  0.27098  0.26803  0.83721  1.0000
  C   C169      1.0  0.34441  0.22180  0.89879  1.0000
  C   C170      1.0  0.19284  0.26355  0.71651  1.0000
  H   H137      1.0  0.22541  0.29256  0.55147  1.0000
  H   H138      1.0  0.39290  0.20571  0.97367  1.0000
  H   H139      1.0  0.27929  0.24121  0.91607  1.0000
  H   H140      1.0  0.47297  0.21810  0.59087  1.0000
  C   C171      1.0  0.40206  0.25924  0.83860  1.0000
  C   C172      1.0  0.27517  0.26452  0.80877  1.0000
  C   C173      1.0  0.26934  0.22141  0.54559  1.0000
  C   C174      1.0  0.21234  0.26320  0.88507  1.0000
  C   C175      1.0  0.21341  0.28949  0.75754  1.0000
  H   H141      1.0  0.31896  0.24906  0.56989  1.0000
  H   H142      1.0  0.43543  0.20217  0.61206  1.0000
  H   H143      1.0  0.23188  0.25176  0.83761  1.0000
  H   H144      1.0  0.19113  0.24641  0.70383  1.0000
  C   C176      1.0  0.29750  0.23586  0.91121  1.0000
  P   P7        1.0  0.35678  0.26518  0.86805  1.0000
  C   C177      1.0  0.29981  0.31102  0.52255  1.0000
  H   H145      1.0  0.38789  0.20271  0.78435  1.0000
  C   C178      1.0  0.19862  0.30415  0.88509  1.0000
  H   H146      1.0  0.40638  0.27530  0.85269  1.0000
  C   C179      1.0  0.26197  0.30744  0.64431  1.0000
  C   C180      1.0  0.17938  0.17938  0.98583  1.0000
  H   H147      1.0  0.34134  0.13838  0.59293  1.0000
  H   H148      1.0  0.29366  0.20083  0.93415  1.0000
  C   C181      1.0  0.46158  0.21000  0.57111  1.0000
  C   C182      1.0  0.37228  0.27053  0.94030  1.0000
  C   C183      1.0  0.24809  0.20200  0.87409  1.0000
  C   C184      1.0  0.26147  0.20491  0.84225  1.0000
  C   C185      1.0  0.25042  0.20628  0.80806  1.0000
  C   C186      1.0  0.22601  0.20434  0.80573  1.0000
  C   C187      1.0  0.21261  0.20056  0.83764  1.0000
  C   C188      1.0  0.22375  0.20029  0.87181  1.0000
  P   P8        1.0  0.18115  0.19796  0.83563  1.0000
  C   C189      1.0  0.16873  0.22731  0.84348  1.0000
  C   C190      1.0  0.17239  0.18673  0.79175  1.0000
  C   C191      1.0  0.15173  0.19540  0.77476  1.0000
  C   C192      1.0  0.14479  0.18618  0.74113  1.0000
  C   C193      1.0  0.15820  0.16801  0.72455  1.0000
  C   C194      1.0  0.17848  0.15891  0.74174  1.0000
  C   C195      1.0  0.18547  0.16810  0.77537  1.0000
  C   C196      1.0  0.15908  0.23349  0.87777  1.0000
  C   C197      1.0  0.14877  0.25599  0.88311  1.0000
  C   C198      1.0  0.14858  0.27267  0.85460  1.0000
  C   C199      1.0  0.15915  0.26707  0.82094  1.0000
  C   C200      1.0  0.16928  0.24447  0.81540  1.0000
  C   C201      1.0  0.17079  0.17656  0.86868  1.0000
  C   C202      1.0  0.18595  0.15856  0.88264  1.0000
  C   C203      1.0  0.17782  0.14239  0.90863  1.0000
  C   C204      1.0  0.15440  0.14370  0.92031  1.0000
  C   C205      1.0  0.13901  0.16102  0.90565  1.0000
  C   C206      1.0  0.14707  0.17719  0.87958  1.0000
  H   H149      1.0  0.25644  0.20055  0.90068  1.0000
  H   H150      1.0  0.28041  0.20581  0.84402  1.0000
  H   H151      1.0  0.26091  0.20850  0.78337  1.0000
  H   H152      1.0  0.21772  0.20559  0.77910  1.0000
  H   H153      1.0  0.21359  0.19837  0.89676  1.0000
  H   H154      1.0  0.14076  0.20904  0.78762  1.0000
  H   H155      1.0  0.12884  0.19295  0.72813  1.0000
  H   H156      1.0  0.15270  0.16077  0.69861  1.0000
  H   H157      1.0  0.18867  0.14455  0.72920  1.0000
  H   H158      1.0  0.20097  0.16055  0.78874  1.0000
  H   H159      1.0  0.15936  0.22104  0.90049  1.0000
  H   H160      1.0  0.14096  0.26052  0.90947  1.0000
  H   H161      1.0  0.14038  0.28999  0.85872  1.0000
  H   H162      1.0  0.15933  0.28030  0.79921  1.0000
  H   H163      1.0  0.17729  0.24033  0.78914  1.0000
  H   H164      1.0  0.20413  0.15702  0.87395  1.0000
  H   H165      1.0  0.18983  0.12908  0.92021  1.0000
  H   H166      1.0  0.40393  0.28001  0.57846  1.0000
  H   H167      1.0  0.12088  0.16214  0.91490  1.0000
  H   H168      1.0  0.13483  0.19042  0.86846  1.0000
  C   C207      1.0  0.42344  0.11923  0.70236  1.0000
  C   C208      1.0  0.37958  0.24978  0.84184  1.0000
  C   C209      1.0  0.34101  0.28599  0.83843  1.0000
  H   H169      1.0  0.36089  0.17682  0.97421  1.0000
  H   H170      1.0  0.43902  0.11179  0.68899  1.0000
  C   C210      1.0  0.20956  0.30771  0.85116  1.0000
  C   C211      1.0  0.30751  0.15039  0.66803  1.0000
  C   C212      1.0  0.26833  0.98981  0.96208  1.0000
  C   C213      1.0  0.19736  0.30801  0.74866  1.0000
  C   C214      1.0  0.00057  0.30203  0.98547  1.0000
  C   C215      1.0  0.28795  0.25637  0.73566  1.0000
  H   H171      1.0  0.18848  0.31849  0.89785  1.0000
  C   C216      1.0  0.27768  0.25280  0.50229  1.0000
  H   H172      1.0  0.47614  0.18350  0.69972  1.0000
  C   C217      1.0  0.30553  0.21314  0.92146  1.0000
  H   H173      1.0  0.46783  0.25885  0.55122  1.0000
  C   C218      1.0  0.31547  0.15126  0.63175  1.0000
  C   C219      1.0  0.40419  0.15125  0.73586  1.0000
  H   H174      1.0  0.26979  0.02683  0.94558  1.0000
  C   C220      1.0  0.38705  0.28096  0.56482  1.0000
  H   H175      1.0  0.00878  0.26460  0.98350  1.0000
  C   C221      1.0  0.34599  0.12183  0.64612  1.0000
  C   C222      1.0  0.31295  0.25164  0.89489  1.0000
  C   C223      1.0  0.21076  0.26708  0.74184  1.0000
  H   H176      1.0  0.36734  0.14770  0.74672  1.0000
  C   C224      1.0  0.37016  0.28091  0.90521  1.0000
  H   H177      1.0  0.40485  0.16868  0.74796  1.0000
  P   P9        1.0  0.23642  0.29413  0.79028  1.0000
  C   C225      1.0  0.19652  0.21640  0.96847  1.0000
  H   H178      1.0  0.21165  0.22625  0.96012  1.0000
  S   S26       1.0  0.22679  0.17733  0.96468  1.0000
  H   H179      1.0  0.30726  0.16355  0.61235  1.0000
  C   C226      1.0  0.47686  0.20157  0.68981  1.0000
  H   H180      1.0  0.33568  0.03348  0.63956  1.0000
  Fe  Fe14      1.0  0.11702  0.31510  0.93699  1.0000
  C   C227      1.0  0.32817  0.30526  0.85356  1.0000
  S   S27       1.0  0.12611  0.22977  0.98665  1.0000
  C   C228      1.0  0.33470  0.13698  0.62079  1.0000
  H   H181      1.0  0.44054  0.15090  0.71925  1.0000
  C   C229      1.0  0.26887  0.01462  0.96849  1.0000
  C   C230      1.0  0.38269  0.28282  0.96884  1.0000
  Fe  Fe15      1.0  0.07105  0.30323  0.98014  1.0000
  H   H182      1.0  0.36599  0.25296  0.94581  1.0000
  C   C231      1.0  0.34086  0.10279  0.82630  1.0000
  H   H183      1.0  0.36139  0.11151  0.63753  1.0000
  C   C232      1.0  0.15470  0.21593  0.98328  1.0000
  C   C233      1.0  0.30077  0.24536  0.76385  1.0000
  H   H184      1.0  0.31584  0.23393  0.75733  1.0000
  C   C234      1.0  0.36712  0.28939  0.58371  1.0000
  H   H185      1.0  0.30465  0.24094  0.82192  1.0000
  H   H186      1.0  0.25908  0.27987  0.72144  1.0000
  C   C235      1.0  0.26857  0.27124  0.74383  1.0000
  H   H187      1.0  0.21274  0.24585  0.89788  1.0000
  H   H188      1.0  0.29320  0.25347  0.70742  1.0000
  C   C236      1.0  0.19906  0.19175  0.97445  1.0000
  H   H189      1.0  0.43644  0.25576  0.81346  1.0000
  C   C237      1.0  0.26163  0.27493  0.78046  1.0000
  C   C238      1.0  0.22330  0.26669  0.85105  1.0000
  C   C239      1.0  0.41922  0.24824  0.81632  1.0000
  C   C240      1.0  0.29443  0.24944  0.80036  1.0000
  C   C241      1.0  0.20015  0.28196  0.90218  1.0000
  H   H190      1.0  0.38424  0.27478  0.99584  1.0000
  C   C242      1.0  0.22266  0.28922  0.83440  1.0000
  C   C243      1.0  0.36257  0.18920  0.99662  1.0000
  H   H191      1.0  0.35705  0.22221  0.82249  1.0000
  H   H192      1.0  0.19121  0.27919  0.92815  1.0000
  H   H193      1.0  0.36254  0.21599  0.89459  1.0000
  C   C244      1.0  0.29755  0.25864  0.52262  1.0000
  C   C245      1.0  0.32895  0.20621  0.91539  1.0000
  C   C246      1.0  0.34309  0.28270  0.53000  1.0000
  C   C247      1.0  0.37889  0.30362  0.89913  1.0000
  C   C248      1.0  0.32613  0.02616  0.98618  1.0000
  C   C249      1.0  0.42436  0.14123  0.71950  1.0000
  H   H194      1.0  0.29659  0.24351  0.99058  1.0000
  C   C250      1.0  0.28936  0.22682  0.56547  1.0000
  H   H195      1.0  0.35035  0.10603  0.85142  1.0000
  H   H196      1.0  0.35075  0.26830  0.78750  1.0000
  C   C251      1.0  0.34101  0.99029  0.95692  1.0000
  C   C252      1.0  0.42570  0.18958  0.55879  1.0000
  C   C253      1.0  0.34520  0.29014  0.56652  1.0000
  Fe  Fe16      1.0  0.25046  0.14523  0.98179  1.0000
  H   H197      1.0  0.99736  0.29981  0.89967  1.0000
  C   C254      1.0  0.21524  0.30003  0.52887  1.0000
  S   S28       1.0  0.14013  0.29855  0.98085  1.0000
  C   C255      1.0  0.33328  0.01403  0.95456  1.0000
  H   H198      1.0  0.14825  0.13142  0.94096  1.0000
  H   H199      1.0  0.25849  0.20706  0.55466  1.0000
  C   C256      1.0  0.27775  0.31100  0.54002  1.0000
  C   C257      1.0  0.17946  0.30439  0.72341  1.0000
  C   C258      1.0  0.47912  0.24830  0.66528  1.0000
  C   C259      1.0  0.38512  0.27343  0.52858  1.0000
  C   C260      1.0  0.98672  0.31564  0.89363  1.0000
  H   H200      1.0  0.18090  0.16045  0.99032  1.0000
  H   H201      1.0  0.36858  0.29504  0.61195  1.0000
  H   H202      1.0  0.26913  0.29462  0.54594  1.0000
  H   H203      1.0  0.40923  0.18255  0.56835  1.0000
  C   C261      1.0  0.15735  0.19137  0.98989  1.0000
  H   H204      1.0  0.40053  0.26669  0.51400  1.0000
  C   C262      1.0  0.29958  0.31732  0.67041  1.0000
  S   S29       1.0  0.23200  0.31361  0.63539  1.0000
  C   C263      1.0  0.36326  0.27429  0.51117  1.0000
  H   H205      1.0  0.18843  0.31509  0.56442  1.0000
  S   S30       1.0  0.03041  0.31189  0.98029  1.0000
  C   C264      1.0  0.46804  0.20845  0.53388  1.0000
  H   H206      1.0  0.31950  0.04437  0.98434  1.0000
  H   H207      1.0  0.39930  0.31495  0.98467  1.0000
  H   H208      1.0  0.47871  0.29275  0.58935  1.0000
  P   P10       1.0  0.31448  0.28362  0.50854  1.0000
  C   C265      1.0  0.43235  0.18730  0.52197  1.0000
  C   C266      1.0  0.38931  0.31583  0.92773  1.0000
  C   C267      1.0  0.31525  0.31759  0.79292  1.0000
  H   H209      1.0  0.16731  0.31884  0.71622  1.0000
  H   H210      1.0  0.42099  0.17849  0.50296  1.0000
  C   C268      1.0  0.45358  0.19641  0.50962  1.0000
  H   H211      1.0  0.24798  0.23028  0.49851  1.0000
  H   H212      1.0  0.16751  0.62631  0.44993  1.0000
  Fe  Fe17      1.0  0.18476  0.62554  0.29453  1.0000
  S   S31       1.0  0.21966  0.62456  0.26577  1.0000
  H   H213      1.0  0.27177  0.35552  0.33933  1.0000
  Fe  Fe18      1.0  0.20705  0.61472  0.37114  1.0000
  S   S32       1.0  0.24306  0.61340  0.34573  1.0000
  S   S33       1.0  0.21420  0.60577  0.43127  1.0000
  H   H214      1.0  0.34574  0.61314  0.38211  1.0000
  H   H215      1.0  0.16195  0.35301  0.34820  1.0000
  Fe  Fe19      1.0  0.22708  0.59202  0.30110  1.0000
  S   S34       1.0  0.24624  0.55756  0.28542  1.0000
  S   S35       1.0  0.13501  0.34077  0.06335  1.0000
  S   S36       1.0  0.19157  0.59173  0.32760  1.0000
  Fe  Fe20      1.0  0.20669  0.38897  0.33526  1.0000
  S   S37       1.0  0.23295  0.41134  0.30615  1.0000
  S   S38       1.0  0.21625  0.38761  0.39600  1.0000
  Fe  Fe21      1.0  0.18548  0.37346  0.26059  1.0000
  S   S39       1.0  0.21088  0.39499  0.22796  1.0000
  S   S40       1.0  0.15903  0.34851  0.23485  1.0000
  Fe  Fe22      1.0  0.23804  0.38045  0.26801  1.0000
  S   S41       1.0  0.27516  0.36607  0.25628  1.0000
  Fe  Fe23      1.0  0.20330  0.42362  0.27005  1.0000
  S   S42       1.0  0.19191  0.46220  0.25862  1.0000
  S   S43       1.0  0.21318  0.35762  0.29843  1.0000
  S   S44       1.0  0.17631  0.40275  0.30101  1.0000
  C   C269      1.0  0.23078  0.53078  0.28205  1.0000
  C   C270      1.0  0.24344  0.50903  0.27942  1.0000
  C   C271      1.0  0.23175  0.48764  0.27417  1.0000
  C   C272      1.0  0.20726  0.48789  0.27087  1.0000
  C   C273      1.0  0.19459  0.50955  0.27456  1.0000
  C   C274      1.0  0.20624  0.53085  0.28025  1.0000
  H   H216      1.0  0.26242  0.50878  0.28070  1.0000
  H   H217      1.0  0.24173  0.47113  0.27118  1.0000
  H   H218      1.0  0.17564  0.50996  0.27235  1.0000
  H   H219      1.0  0.19626  0.54741  0.28191  1.0000
  H   H220      1.0  0.24730  0.54005  0.19967  1.0000
  C   C275      1.0  0.15644  0.35967  0.12351  1.0000
  C   C276      1.0  0.16217  0.36169  0.16100  1.0000
  C   C277      1.0  0.15283  0.34618  0.18697  1.0000
  H   H221      1.0  0.32013  0.34125  0.25881  1.0000
  H   H222      1.0  0.16368  0.37195  0.10387  1.0000
  H   H223      1.0  0.17363  0.37544  0.16983  1.0000
  H   H224      1.0  0.24267  0.42828  0.38420  1.0000
  C   C278      1.0  0.19946  0.38608  0.43680  1.0000
  C   C279      1.0  0.17489  0.38738  0.43697  1.0000
  C   C280      1.0  0.25230  0.50732  0.38904  1.0000
  H   H225      1.0  0.16550  0.38943  0.41136  1.0000
  H   H226      1.0  0.20731  0.52654  0.19116  1.0000
  C   C281      1.0  0.19949  0.61171  0.47325  1.0000
  H   H227      1.0  0.24926  0.33480  0.46704  1.0000
  C   C282      1.0  0.23823  0.44015  0.49530  1.0000
  C   C283      1.0  0.19673  0.58605  0.18078  1.0000
  H   H228      1.0  0.25565  0.58276  0.19617  1.0000
  C   C284      1.0  0.21036  0.54525  0.18869  1.0000
  C   C285      1.0  0.25422  0.33873  0.43904  1.0000
  C   C286      1.0  0.14918  0.64507  0.21626  1.0000
  C   C287      1.0  0.11412  0.60254  0.13884  1.0000
  H   H229      1.0  0.09772  0.61080  0.14807  1.0000
  S   S45       1.0  0.15102  0.63439  0.26247  1.0000
  C   C288      1.0  0.15715  0.58232  0.11594  1.0000
  C   C289      1.0  0.14670  0.57433  0.14861  1.0000
  C   C290      1.0  0.12496  0.58444  0.15973  1.0000
  P   P11       1.0  0.16199  0.55234  0.17682  1.0000
  C   C291      1.0  0.19185  0.56179  0.18229  1.0000
  C   C292      1.0  0.14844  0.55197  0.22179  1.0000
  C   C293      1.0  0.13301  0.53404  0.23187  1.0000
  C   C294      1.0  0.12210  0.53435  0.26635  1.0000
  C   C295      1.0  0.12594  0.55288  0.29059  1.0000
  C   C296      1.0  0.14070  0.57110  0.28034  1.0000
  C   C297      1.0  0.15206  0.57058  0.24623  1.0000
  C   C298      1.0  0.03247  0.32322  0.08718  1.0000
  C   C299      1.0  0.17233  0.55278  0.47602  1.0000
  C   C300      1.0  0.23094  0.54190  0.43358  1.0000
  H   H230      1.0  0.18638  0.64416  0.20567  1.0000
  S   S46       1.0  0.19650  0.64834  0.34123  1.0000
  C   C301      1.0  0.16160  0.52314  0.15649  1.0000
  C   C302      1.0  0.16842  0.50302  0.17727  1.0000
  C   C303      1.0  0.16809  0.48041  0.16199  1.0000
  C   C304      1.0  0.16083  0.47760  0.12579  1.0000
  C   C305      1.0  0.15387  0.49745  0.10488  1.0000
  C   C306      1.0  0.15421  0.52014  0.12013  1.0000
  H   H231      1.0  0.24776  0.32479  0.27521  1.0000
  C   C307      1.0  0.28696  0.46095  0.41781  1.0000
  H   H232      1.0  0.08514  0.34696  0.06520  1.0000
  H   H233      1.0  0.18276  0.45660  0.33482  1.0000
  H   H234      1.0  0.11655  0.57887  0.18491  1.0000
  H   H235      1.0  0.12919  0.51989  0.21318  1.0000
  H   H236      1.0  0.11049  0.52031  0.27413  1.0000
  H   H237      1.0  0.11728  0.55331  0.31712  1.0000
  H   H238      1.0  0.14316  0.58588  0.29860  1.0000
  H   H239      1.0  0.16328  0.58500  0.23881  1.0000
  H   H240      1.0  0.19609  0.45202  0.46901  1.0000
  H   H241      1.0  0.17065  0.54086  0.38465  1.0000
  H   H242      1.0  0.18276  0.59930  0.17698  1.0000
  C   C308      1.0  0.24138  0.50054  0.42201  1.0000
  C   C309      1.0  0.14628  0.60047  0.09521  1.0000
  H   H243      1.0  0.17389  0.50469  0.20549  1.0000
  H   H244      1.0  0.17345  0.46507  0.17845  1.0000
  H   H245      1.0  0.16055  0.46001  0.11405  1.0000
  H   H246      1.0  0.14815  0.49523  0.07685  1.0000
  H   H247      1.0  0.14858  0.53516  0.10347  1.0000
  C   C310      1.0  0.21165  0.46074  0.41619  1.0000
  C   C311      1.0  0.18581  0.45564  0.36412  1.0000
  C   C312      1.0  0.25281  0.53121  0.37885  1.0000
  C   C313      1.0  0.30590  0.44945  0.40002  1.0000
  H   H248      1.0  0.22327  0.61224  0.18391  1.0000
  H   H249      1.0  0.15465  0.60712  0.07060  1.0000
  C   C314      1.0  0.24267  0.46308  0.48236  1.0000
  C   C315      1.0  0.17174  0.55679  0.43812  1.0000
  C   C316      1.0  0.24216  0.54849  0.40111  1.0000
  H   H250      1.0  0.22236  0.55545  0.45023  1.0000
  C   C317      1.0  0.14146  0.34204  0.11122  1.0000
  H   H251      1.0  0.29020  0.47570  0.43575  1.0000
  H   H252      1.0  0.30513  0.61300  0.35750  1.0000
  Fe  Fe24      1.0  0.23188  0.64569  0.31383  1.0000
  H   H253      1.0  0.05899  0.37441  0.02990  1.0000
  C   C318      1.0  0.21973  0.59352  0.18488  1.0000
  H   H254      1.0  0.15196  0.44151  0.37624  1.0000
  H   H255      1.0  0.01590  0.36893  0.03031  1.0000
  C   C319      1.0  0.02727  0.35733  0.04659  1.0000
  C   C320      1.0  0.16919  0.64830  0.19452  1.0000
  C   C321      1.0  0.16840  0.44724  0.38751  1.0000
  C   C322      1.0  0.23022  0.51799  0.44381  1.0000
  C   C323      1.0  0.34115  0.64748  0.40723  1.0000
  C   C324      1.0  0.20730  0.46249  0.37833  1.0000
  C   C325      1.0  0.33372  0.62802  0.38723  1.0000
  C   C326      1.0  0.26392  0.45373  0.41189  1.0000
  C   C327      1.0  0.17228  0.44612  0.42530  1.0000
  H   H256      1.0  0.24220  0.56698  0.39282  1.0000
  H   H257      1.0  0.22060  0.46881  0.35959  1.0000
  C   C328      1.0  0.23328  0.55284  0.19328  1.0000
  C   C329      1.0  0.27130  0.35558  0.43270  1.0000
  P   P12       1.0  0.23969  0.46950  0.43386  1.0000
  H   H258      1.0  0.27596  0.40858  0.35239  1.0000
  C   C330      1.0  0.31090  0.62792  0.37334  1.0000
  H   H259      1.0  0.26000  0.49424  0.37059  1.0000
  C   C331      1.0  0.16987  0.51059  0.46589  1.0000
  H   H260      1.0  0.23043  0.38196  0.47019  1.0000
  H   H261      1.0  0.29105  0.37443  0.39196  1.0000
  C   C332      1.0  0.17657  0.62129  0.47495  1.0000
  C   C333      1.0  0.30196  0.43062  0.37636  1.0000
  H   H262      1.0  0.32362  0.45530  0.40425  1.0000
  C   C334      1.0  0.16948  0.51466  0.42794  1.0000
  C   C335      1.0  0.27911  0.42313  0.37084  1.0000
  C   C336      1.0  0.17056  0.53773  0.41406  1.0000
  C   C337      1.0  0.26712  0.35060  0.36721  1.0000
  H   H263      1.0  0.16895  0.49256  0.47582  1.0000
  C   C338      1.0  0.26017  0.43449  0.38876  1.0000
  H   H264      1.0  0.22072  0.51315  0.46838  1.0000
  C   C339      1.0  0.23798  0.57695  0.19145  1.0000
  H   H265      1.0  0.27916  0.36444  0.45558  1.0000
  C   C340      1.0  0.12482  0.61063  0.10673  1.0000
  C   C341      1.0  0.12697  0.65089  0.20120  1.0000
  H   H266      1.0  0.17400  0.57492  0.10702  1.0000
  C   C342      1.0  0.19375  0.45294  0.43967  1.0000
  H   H267      1.0  0.31654  0.42189  0.36211  1.0000
  H   H268      1.0  0.16851  0.49992  0.40918  1.0000
  C   C343      1.0  0.27788  0.36136  0.39684  1.0000
  H   H269      1.0  0.26107  0.53631  0.35326  1.0000
  H   H270      1.0  0.17267  0.57471  0.42735  1.0000
  C   C344      1.0  0.29559  0.64733  0.37920  1.0000
  H   H271      1.0  0.14350  0.38736  0.47056  1.0000
  C   C345      1.0  0.05154  0.36033  0.04613  1.0000
  C   C346      1.0  0.16250  0.38626  0.47051  1.0000
  H   H272      1.0  0.19175  0.34622  0.39616  1.0000
  C   C347      1.0  0.18899  0.32010  0.47122  1.0000
  H   H273      1.0  0.15879  0.43954  0.44347  1.0000
  C   C348      1.0  0.13786  0.32845  0.17470  1.0000
  C   C349      1.0  0.06631  0.34474  0.06585  1.0000
  C   C350      1.0  0.04205  0.32415  0.21327  1.0000
  C   C351      1.0  0.28307  0.33608  0.26648  1.0000
  H   H274      1.0  0.99898  0.33650  0.06591  1.0000
  C   C352      1.0  0.21145  0.38325  0.47018  1.0000
  H   H275      1.0  0.11676  0.62518  0.09116  1.0000
  C   C353      1.0  0.17163  0.52961  0.49034  1.0000
  C   C354      1.0  0.03958  0.32087  0.17550  1.0000
  C   C355      1.0  0.01773  0.33885  0.06699  1.0000
  C   C356      1.0  0.30688  0.32861  0.26568  1.0000
  C   C357      1.0  0.05689  0.32605  0.08584  1.0000
  H   H276      1.0  0.04974  0.33163  0.15709  1.0000
  H   H277      1.0  0.11136  0.64854  0.21771  1.0000
  H   H278      1.0  0.05409  0.33712  0.22329  1.0000
  C   C358      1.0  0.18741  0.33179  0.37855  1.0000
  C   C359      1.0  0.24991  0.33390  0.37342  1.0000
  C   C360      1.0  0.13227  0.32630  0.13708  1.0000
  C   C361      1.0  0.17047  0.33566  0.35134  1.0000
  H   H279      1.0  0.17853  0.32835  0.44981  1.0000
  H   H280      1.0  0.24167  0.32584  0.35010  1.0000
  C   C362      1.0  0.26612  0.31953  0.27528  1.0000
  H   H281      1.0  0.17351  0.56785  0.49414  1.0000
  H   H282      1.0  0.23291  0.42662  0.47640  1.0000
  H   H283      1.0  0.25775  0.63955  0.43473  1.0000
  H   H284      1.0  0.27811  0.64767  0.36754  1.0000
  H   H285      1.0  0.15280  0.32086  0.30517  1.0000
  H   H286      1.0  0.34312  0.64713  0.48048  1.0000
  C   C363      1.0  0.24343  0.32768  0.40939  1.0000
  H   H287      1.0  0.35903  0.64749  0.41724  1.0000
  H   H288      1.0  0.38285  0.32309  0.06579  1.0000
  Fe  Fe25      1.0  0.18472  0.57149  0.69620  1.0000
  S   S47       1.0  0.15566  0.59875  0.68537  1.0000
  S   S48       1.0  0.17214  0.53378  0.70458  1.0000
  Fe  Fe26      1.0  0.22212  0.60857  0.68770  1.0000
  H   H289      1.0  0.30559  0.33585  0.84265  1.0000
  S   S49       1.0  0.26126  0.61549  0.68795  1.0000
  Fe  Fe27      1.0  0.17508  0.62289  0.72251  1.0000
  C   C364      1.0  0.24666  0.32400  0.78627  1.0000
  Fe  Fe28      1.0  0.17871  0.61108  0.63922  1.0000
  S   S50       1.0  0.16166  0.62049  0.58437  1.0000
  S   S51       1.0  0.20256  0.59483  0.73712  1.0000
  S   S52       1.0  0.20663  0.58270  0.64808  1.0000
  Fe  Fe29      1.0  0.21285  0.34892  0.64476  1.0000
  S   S53       1.0  0.17422  0.34551  0.63483  1.0000
  C   C365      1.0  0.25748  0.35754  0.74826  1.0000
  Fe  Fe30      1.0  0.20675  0.40224  0.65741  1.0000
  S   S54       1.0  0.16792  0.40206  0.64793  1.0000
  S   S55       1.0  0.22627  0.43625  0.66656  1.0000
  Fe  Fe31      1.0  0.16876  0.36919  0.68364  1.0000
  S   S56       1.0  0.13875  0.36113  0.72348  1.0000
  Fe  Fe32      1.0  0.17715  0.37833  0.60036  1.0000
  S   S57       1.0  0.15850  0.38209  0.54554  1.0000
  S   S58       1.0  0.20732  0.37055  0.69605  1.0000
  S   S59       1.0  0.21606  0.38049  0.60739  1.0000
  C   C366      1.0  0.11949  0.33681  0.82473  1.0000
  S   S60       1.0  0.09450  0.33511  0.97798  1.0000
  H   H290      1.0  0.23964  0.51548  0.62692  1.0000
  H   H291      1.0  0.20859  0.37970  0.52894  1.0000
  H   H292      1.0  0.20064  0.50620  0.60302  1.0000
  C   C367      1.0  0.13985  0.35239  0.77051  1.0000
  H   H293      1.0  0.26426  0.54455  0.59508  1.0000
  C   C368      1.0  0.21723  0.54607  0.53782  1.0000
  C   C369      1.0  0.15990  0.35513  0.79188  1.0000
  H   H294      1.0  0.23161  0.63329  0.58903  1.0000
  H   H295      1.0  0.08353  0.64501  0.88575  1.0000
  C   C370      1.0  0.17660  0.61705  0.54193  1.0000
  C   C371      1.0  0.28911  0.64413  0.57057  1.0000
  C   C372      1.0  0.19954  0.60759  0.54012  1.0000
  C   C373      1.0  0.31538  0.32099  0.83086  1.0000
  H   H296      1.0  0.20832  0.60187  0.56501  1.0000
  C   C374      1.0  0.18745  0.50735  0.69127  1.0000
  C   C375      1.0  0.17469  0.48683  0.68525  1.0000
  C   C376      1.0  0.18627  0.46508  0.67704  1.0000
  C   C377      1.0  0.21082  0.46354  0.67494  1.0000
  C   C378      1.0  0.22358  0.48410  0.68073  1.0000
  C   C379      1.0  0.21197  0.50592  0.68878  1.0000
  H   H297      1.0  0.15571  0.48768  0.68723  1.0000
  H   H298      1.0  0.17616  0.44947  0.67306  1.0000
  H   H299      1.0  0.24257  0.48306  0.67956  1.0000
  H   H300      1.0  0.22199  0.52152  0.69388  1.0000
  C   C380      1.0  0.23145  0.62444  0.86005  1.0000
  C   C381      1.0  0.20301  0.52962  0.55566  1.0000
  H   H301      1.0  0.25895  0.36580  0.72142  1.0000
  S   S61       1.0  0.13996  0.33385  0.89424  1.0000
  H   H302      1.0  0.10848  0.58431  0.55460  1.0000
  C   C382      1.0  0.30003  0.35390  0.52865  1.0000
  C   C383      1.0  0.29911  0.62242  0.58219  1.0000
  C   C384      1.0  0.99646  0.33788  0.89719  1.0000
  H   H303      1.0  0.16643  0.53122  0.61819  1.0000
  C   C385      1.0  0.21099  0.60520  0.50599  1.0000
  H   H304      1.0  0.26724  0.36885  0.83829  1.0000
  C   C386      1.0  0.19911  0.38209  0.50357  1.0000
  H   H305      1.0  0.31796  0.61944  0.58130  1.0000
  H   H306      1.0  0.13482  0.55848  0.51813  1.0000
  C   C387      1.0  0.27612  0.32368  0.66175  1.0000
  H   H307      1.0  0.12175  0.46091  0.58243  1.0000
  C   C388      1.0  0.24898  0.33463  0.75153  1.0000
  C   C389      1.0  0.15408  0.63036  0.82836  1.0000
  C   C390      1.0  0.26678  0.33233  0.55107  1.0000
  H   H308      1.0  0.23719  0.59522  0.82281  1.0000
  H   H309      1.0  0.25613  0.49719  0.49761  1.0000
  H   H310      1.0  0.31037  0.32976  0.68449  1.0000
  C   C391      1.0  0.24725  0.45184  0.55733  1.0000
  C   C392      1.0  0.23931  0.55124  0.55173  1.0000
  C   C393      1.0  0.23594  0.61432  0.82570  1.0000
  C   C394      1.0  0.12094  0.57238  0.56826  1.0000
  H   H311      1.0  0.25914  0.48738  0.56341  1.0000
  H   H312      1.0  0.24282  0.62113  0.76835  1.0000
  C   C395      1.0  0.26218  0.35925  0.81408  1.0000
  C   C396      1.0  0.21131  0.51860  0.58802  1.0000
  H   H313      1.0  0.24839  0.44768  0.58644  1.0000
  H   H314      1.0  0.26936  0.37021  0.55425  1.0000
  H   H315      1.0  0.01460  0.33914  0.90580  1.0000
  C   C397      1.0  0.23890  0.62886  0.79496  1.0000
  C   C398      1.0  0.09885  0.46569  0.70252  1.0000
  C   C399      1.0  0.10174  0.44573  0.68031  1.0000
  C   C400      1.0  0.11766  0.42754  0.69035  1.0000
  C   C401      1.0  0.13118  0.42953  0.72203  1.0000
  C   C402      1.0  0.12863  0.44965  0.74434  1.0000
  C   C403      1.0  0.11190  0.46747  0.73475  1.0000
  P   P13       1.0  0.14465  0.45090  0.78698  1.0000
  C   C404      1.0  0.13298  0.42946  0.81882  1.0000
  C   C405      1.0  0.17504  0.44232  0.77794  1.0000
  C   C406      1.0  0.18182  0.41816  0.77741  1.0000
  C   C407      1.0  0.20519  0.41114  0.77052  1.0000
  C   C408      1.0  0.22193  0.42815  0.76347  1.0000
  C   C409      1.0  0.21542  0.45220  0.76413  1.0000
  C   C410      1.0  0.19211  0.45930  0.77130  1.0000
  C   C411      1.0  0.14626  0.42207  0.84948  1.0000
  C   C412      1.0  0.13801  0.40451  0.87310  1.0000
  C   C413      1.0  0.11647  0.39425  0.86638  1.0000
  C   C414      1.0  0.10313  0.40152  0.83603  1.0000
  C   C415      1.0  0.11127  0.41912  0.81236  1.0000
  C   C416      1.0  0.14283  0.48052  0.80594  1.0000
  C   C417      1.0  0.14707  0.50027  0.78345  1.0000
  C   C418      1.0  0.14583  0.52317  0.79779  1.0000
  C   C419      1.0  0.14018  0.52664  0.83473  1.0000
  C   C420      1.0  0.13575  0.50715  0.85734  1.0000
  C   C421      1.0  0.13706  0.48417  0.84307  1.0000
  H   H316      1.0  0.08629  0.47969  0.69502  1.0000
  H   H317      1.0  0.09144  0.44418  0.65558  1.0000
  H   H318      1.0  0.11939  0.41168  0.67381  1.0000
  H   H319      1.0  0.14321  0.41506  0.72939  1.0000
  H   H320      1.0  0.10867  0.48269  0.75210  1.0000
  H   H321      1.0  0.16897  0.40472  0.78196  1.0000
  H   H322      1.0  0.21019  0.39249  0.76995  1.0000
  H   H323      1.0  0.23981  0.42277  0.75650  1.0000
  H   H324      1.0  0.22829  0.46539  0.75782  1.0000
  H   H325      1.0  0.18766  0.47802  0.77074  1.0000
  H   H326      1.0  0.16316  0.42962  0.85476  1.0000
  H   H327      1.0  0.14848  0.39840  0.89629  1.0000
  C   C422      1.0  0.13935  0.34015  0.84628  1.0000
  H   H328      1.0  0.08668  0.39314  0.83046  1.0000
  H   H329      1.0  0.10075  0.42422  0.78878  1.0000
  H   H330      1.0  0.15139  0.49802  0.75469  1.0000
  H   H331      1.0  0.14934  0.53823  0.78010  1.0000
  H   H332      1.0  0.13922  0.54444  0.84576  1.0000
  H   H333      1.0  0.13130  0.50988  0.88598  1.0000
  H   H334      1.0  0.13347  0.46944  0.86112  1.0000
  C   C423      1.0  0.24737  0.54020  0.58383  1.0000
  H   H335      1.0  0.29248  0.58809  0.60567  1.0000
  C   C424      1.0  0.27785  0.35377  0.54527  1.0000
  C   C425      1.0  0.26388  0.36992  0.77950  1.0000
  C   C426      1.0  0.25044  0.63042  0.58644  1.0000
  C   C427      1.0  0.14756  0.63058  0.86579  1.0000
  H   H336      1.0  0.24942  0.59503  0.60853  1.0000
  C   C428      1.0  0.23341  0.52385  0.60187  1.0000
  C   C429      1.0  0.18350  0.47561  0.54472  1.0000
  C   C430      1.0  0.25304  0.47430  0.54438  1.0000
  H   H337      1.0  0.23600  0.41712  0.54257  1.0000
  C   C431      1.0  0.14418  0.48849  0.56316  1.0000
  H   H338      1.0  0.13827  0.55548  0.65386  1.0000
  H   H339      1.0  0.15182  0.42881  0.57370  1.0000
  C   C432      1.0  0.11968  0.34318  0.78717  1.0000
  C   C433      1.0  0.16520  0.62399  0.50923  1.0000
  H   H340      1.0  0.26894  0.34101  0.66879  1.0000
  H   H341      1.0  0.24984  0.33224  0.56484  1.0000
  H   H342      1.0  0.22924  0.61315  0.88390  1.0000
  H   H343      1.0  0.30880  0.37050  0.52475  1.0000
  H   H344      1.0  0.10999  0.58301  0.62255  1.0000
  C   C434      1.0  0.15394  0.54266  0.60371  1.0000
  C   C435      1.0  0.17812  0.45217  0.55320  1.0000
  C   C436      1.0  0.15350  0.54348  0.56518  1.0000
  H   H345      1.0  0.17550  0.36220  0.77954  1.0000
  C   C437      1.0  0.13791  0.55642  0.62418  1.0000
  H   H346      1.0  0.17473  0.35256  0.84620  1.0000
  H   H347      1.0  0.30694  0.63604  0.68214  1.0000
  H   H348      1.0  0.27025  0.38776  0.77683  1.0000
  C   C438      1.0  0.25402  0.33621  0.81743  1.0000
  H   H349      1.0  0.20080  0.47943  0.53427  1.0000
  P   P14       1.0  0.17357  0.52436  0.53948  1.0000
  H   H350      1.0  0.19108  0.43793  0.54937  1.0000
  C   C439      1.0  0.16659  0.49398  0.54988  1.0000
  C   C440      1.0  0.28477  0.60467  0.59566  1.0000
  C   C441      1.0  0.15948  0.34942  0.82962  1.0000
  C   C442      1.0  0.26045  0.60858  0.59729  1.0000
  H   H351      1.0  0.16174  0.61445  0.81625  1.0000
  C   C443      1.0  0.12174  0.57164  0.60654  1.0000
  C   C444      1.0  0.15591  0.44694  0.56691  1.0000
  C   C445      1.0  0.13642  0.55803  0.54761  1.0000
  H   H352      1.0  0.98574  0.33759  0.98822  1.0000
  C   C446      1.0  0.24019  0.43466  0.53267  1.0000
  H   H353      1.0  0.15026  0.61470  0.88224  1.0000
  C   C447      1.0  0.13895  0.46506  0.57183  1.0000
  H   H354      1.0  0.16504  0.33265  0.51336  1.0000
  H   H355      1.0  0.11038  0.38026  0.88431  1.0000
  C   C448      1.0  0.31104  0.33261  0.51749  1.0000
  H   H356      1.0  0.10404  0.34105  0.77094  1.0000
  H   H357      1.0  0.24994  0.56423  0.53799  1.0000
  H   H358      1.0  0.13071  0.50223  0.56705  1.0000
  H   H359      1.0  0.35154  0.63880  0.54541  1.0000
  S   S62       1.0  0.12879  0.64986  0.92902  1.0000
  H   H360      1.0  0.30525  0.32963  0.77519  1.0000
  H   H361      1.0  0.24408  0.32530  0.72692  1.0000
  H   H362      1.0  0.20755  0.32485  0.83786  1.0000
  S   S63       1.0  0.19574  0.63767  0.67509  1.0000
  H   H363      1.0  0.10382  0.32986  0.83714  1.0000
  H   H364      1.0  0.21129  0.55536  0.51356  1.0000
  H   H365      1.0  0.25335  0.32803  0.84435  1.0000
  C   C449      1.0  0.17457  0.38370  0.50395  1.0000
  H   H366      1.0  0.19868  0.32529  0.76100  1.0000
  H   H367      1.0  0.26675  0.64201  0.50037  1.0000
  H   H368      1.0  0.22877  0.59793  0.50487  1.0000
  H   H369      1.0  0.14742  0.63131  0.51042  1.0000
  H   H370      1.0  0.39602  0.33334  0.92281  1.0000
  C   C450      1.0  0.25102  0.47988  0.50700  1.0000
  C   C451      1.0  0.27042  0.64503  0.69236  1.0000
  C   C452      1.0  0.26473  0.64839  0.57310  1.0000
  S   S64       1.0  0.15734  0.65123  0.75899  1.0000
  C   C453      1.0  0.22983  0.64911  0.86364  1.0000
  H   H371      1.0  0.99015  0.37560  0.89419  1.0000
  H   H372      1.0  0.32835  0.33292  0.50500  1.0000
  C   C454      1.0  0.29435  0.65015  0.68870  1.0000
  C   C455      1.0  0.18115  0.32257  0.50748  1.0000
  H   H373      1.0  0.05443  0.65109  0.93602  1.0000
  C   C456      1.0  0.13741  0.65104  0.88203  1.0000
  C   C457      1.0  0.15030  0.65061  0.80661  1.0000
  C   C458      1.0  0.98262  0.35837  0.89082  1.0000
  Fe  Fe33      1.0  0.29676  0.86077  0.03885  1.0000
  S   S65       1.0  0.26148  0.87941  0.04723  1.0000
  S   S66       1.0  0.32515  0.84509  0.07709  1.0000
  C   C459      1.0  0.43211  0.76234  0.14265  1.0000
  C   C460      1.0  0.41036  0.86597  0.07222  1.0000
  C   C461      1.0  0.46364  0.83539  0.19381  1.0000
  H   H374      1.0  0.47543  0.79840  0.19177  1.0000
  C   C462      1.0  0.32569  0.66692  0.41381  1.0000
  C   C463      1.0  0.98999  0.72464  0.02722  1.0000
  H   H375      1.0  0.35467  0.81661  0.12394  1.0000
  H   H376      1.0  0.28900  0.92786  0.08096  1.0000
  Fe  Fe34      1.0  0.11827  0.68793  0.05194  1.0000
  H   H377      1.0  0.38525  0.85218  0.18202  1.0000
  S   S67       1.0  0.09495  0.72125  0.04791  1.0000
  Fe  Fe35      1.0  0.35269  0.79311  0.36976  1.0000
  S   S68       1.0  0.38059  0.76493  0.36012  1.0000
  S   S69       1.0  0.33667  0.80420  0.42468  1.0000
  Fe  Fe36      1.0  0.34931  0.80593  0.28669  1.0000
  S   S70       1.0  0.37723  0.77859  0.27133  1.0000
  S   S71       1.0  0.32622  0.83025  0.25050  1.0000
  Fe  Fe37      1.0  0.35868  0.75488  0.31165  1.0000
  S   S72       1.0  0.35204  0.71633  0.29888  1.0000
  Fe  Fe38      1.0  0.39685  0.79091  0.32109  1.0000
  S   S73       1.0  0.43463  0.80223  0.32911  1.0000
  S   S74       1.0  0.32973  0.78146  0.32375  1.0000
  S   S75       1.0  0.36997  0.81992  0.33389  1.0000
  H   H378      1.0  0.21613  0.70408  0.44087  1.0000
  S   S76       1.0  0.09397  0.66644  0.01783  1.0000
  H   H379      1.0  0.40443  0.87459  0.04711  1.0000
  C   C464      1.0  0.32328  0.70603  0.30547  1.0000
  C   C465      1.0  0.30549  0.72084  0.31986  1.0000
  C   C466      1.0  0.28254  0.71286  0.32354  1.0000
  H   H380      1.0  0.23400  0.68657  0.12686  1.0000
  H   H381      1.0  0.00209  0.73806  0.03505  1.0000
  H   H382      1.0  0.30924  0.73856  0.32801  1.0000
  H   H383      1.0  0.26889  0.72472  0.33417  1.0000
  H   H384      1.0  0.39433  0.82300  0.13211  1.0000
  S   S77       1.0  0.24731  0.68217  0.31446  1.0000
  C   C467      1.0  0.46223  0.79190  0.31167  1.0000
  C   C468      1.0  0.46426  0.77461  0.28447  1.0000
  H   H385      1.0  0.41854  0.75065  0.23187  1.0000
  Fe  Fe39      1.0  0.07133  0.70006  0.01074  1.0000
  H   H386      1.0  0.44869  0.76650  0.27440  1.0000
  C   C469      1.0  0.17365  0.77137  0.01445  1.0000
  H   H387      1.0  0.10757  0.66432  0.15395  1.0000
  S   S78       1.0  0.14333  0.67383  0.09712  1.0000
  H   H388      1.0  0.37081  0.76680  0.44502  1.0000
  C   C470      1.0  0.25115  0.65460  0.45046  1.0000
  H   H389      1.0  0.33521  0.98242  0.04939  1.0000
  H   H390      1.0  0.48136  0.81525  0.34634  1.0000
  H   H391      1.0  0.44123  0.88679  0.07701  1.0000
  C   C471      1.0  0.40187  0.71844  0.42958  1.0000
  C   C472      1.0  0.34418  0.79057  0.46716  1.0000
  H   H392      1.0  0.46662  0.75579  0.47856  1.0000
  H   H393      1.0  0.04404  0.76016  0.01041  1.0000
  C   C473      1.0  0.39721  0.84796  0.08778  1.0000
  C   C474      1.0  0.23211  0.69219  0.49164  1.0000
  C   C475      1.0  0.25605  0.65602  0.48793  1.0000
  C   C476      1.0  0.99892  0.70254  0.01515  1.0000
  C   C477      1.0  0.43847  0.86189  0.12188  1.0000
  C   C478      1.0  0.23700  0.67205  0.43344  1.0000
  H   H394      1.0  0.42406  0.71990  0.38157  1.0000
  C   C479      1.0  0.32346  0.83906  0.12487  1.0000
  C   C480      1.0  0.30579  0.84909  0.14717  1.0000
  C   C481      1.0  0.30667  0.84578  0.18555  1.0000
  C   C482      1.0  0.32503  0.83227  0.20195  1.0000
  C   C483      1.0  0.34224  0.82157  0.17953  1.0000
  C   C484      1.0  0.34136  0.82491  0.14118  1.0000
  H   H395      1.0  0.29181  0.85986  0.13499  1.0000
  H   H396      1.0  0.29325  0.85408  0.20270  1.0000
  H   H397      1.0  0.35645  0.81120  0.19186  1.0000
  C   C485      1.0  0.42263  0.76079  0.20738  1.0000
  H   H398      1.0  0.29081  0.68180  0.40180  1.0000
  S   S79       1.0  0.22096  0.82375  0.02722  1.0000
  H   H399      1.0  0.39805  0.81035  0.45597  1.0000
  C   C486      1.0  0.29490  0.67465  0.29944  1.0000
  C   C487      1.0  0.30320  0.75502  0.40824  1.0000
  C   C488      1.0  0.26675  0.98219  0.02710  1.0000
  C   C489      1.0  0.40896  0.85250  0.28140  1.0000
  C   C490      1.0  0.38672  0.86226  0.27334  1.0000
  C   C491      1.0  0.37841  0.86200  0.23741  1.0000
  H   H400      1.0  0.41516  0.85200  0.30950  1.0000
  H   H401      1.0  0.37620  0.71526  0.47217  1.0000
  H   H402      1.0  0.36082  0.86888  0.23145  1.0000
  C   C492      1.0  0.22713  0.73683  0.07225  1.0000
  C   C493      1.0  0.21838  0.71580  0.05854  1.0000
  C   C494      1.0  0.19913  0.70551  0.07558  1.0000
  C   C495      1.0  0.18855  0.71635  0.10607  1.0000
  C   C496      1.0  0.19672  0.73779  0.11933  1.0000
  C   C497      1.0  0.21636  0.74784  0.10259  1.0000
  P   P15       1.0  0.18080  0.75228  0.15625  1.0000
  C   C498      1.0  0.15199  0.76219  0.14088  1.0000
  C   C499      1.0  0.17898  0.73065  0.19289  1.0000
  C   C500      1.0  0.19961  0.72197  0.20990  1.0000
  C   C501      1.0  0.19852  0.70514  0.23820  1.0000
  C   C502      1.0  0.17689  0.69628  0.24885  1.0000
  C   C503      1.0  0.15635  0.70417  0.23115  1.0000
  C   C504      1.0  0.15736  0.72117  0.20310  1.0000
  C   C505      1.0  0.14538  0.76009  0.10402  1.0000
  C   C506      1.0  0.12366  0.76932  0.09205  1.0000
  C   C507      1.0  0.10818  0.78039  0.11688  1.0000
  C   C508      1.0  0.11458  0.78254  0.15367  1.0000
  C   C509      1.0  0.13650  0.77367  0.16559  1.0000
  C   C510      1.0  0.19475  0.77908  0.17018  1.0000
  C   C511      1.0  0.20323  0.78190  0.20599  1.0000
  C   C512      1.0  0.21300  0.80328  0.21634  1.0000
  C   C513      1.0  0.21406  0.82209  0.19127  1.0000
  C   C514      1.0  0.20525  0.81957  0.15583  1.0000
  C   C515      1.0  0.19564  0.79819  0.14532  1.0000
  H   H403      1.0  0.24194  0.74495  0.05892  1.0000
  H   H404      1.0  0.23306  0.67072  0.40442  1.0000
  H   H405      1.0  0.19204  0.68930  0.06499  1.0000
  H   H406      1.0  0.17349  0.70838  0.11885  1.0000
  H   H407      1.0  0.22325  0.76426  0.11231  1.0000
  H   H408      1.0  0.21649  0.72824  0.20114  1.0000
  H   H409      1.0  0.21441  0.69870  0.25176  1.0000
  H   H410      1.0  0.17605  0.68281  0.27019  1.0000
  H   H411      1.0  0.13971  0.69659  0.23862  1.0000
  H   H412      1.0  0.14129  0.72633  0.18902  1.0000
  H   H413      1.0  0.15693  0.75156  0.08427  1.0000
  H   H414      1.0  0.11891  0.76793  0.06336  1.0000
  H   H415      1.0  0.09128  0.78735  0.10753  1.0000
  H   H416      1.0  0.10261  0.79121  0.17289  1.0000
  H   H417      1.0  0.14141  0.77577  0.19403  1.0000
  H   H418      1.0  0.20204  0.76793  0.22626  1.0000
  H   H419      1.0  0.21972  0.80531  0.24388  1.0000
  H   H420      1.0  0.22167  0.83863  0.19929  1.0000
  H   H421      1.0  0.20597  0.83413  0.13629  1.0000
  H   H422      1.0  0.18881  0.79661  0.11772  1.0000
  C   C516      1.0  0.36413  0.70013  0.42145  1.0000
  H   H423      1.0  0.22636  0.70754  0.03458  1.0000
  C   C517      1.0  0.44463  0.77294  0.43807  1.0000
  H   H424      1.0  0.20552  0.77736  0.04436  1.0000
  C   C518      1.0  0.36174  0.77278  0.46957  1.0000
  H   H425      1.0  0.43863  0.79678  0.12029  1.0000
  C   C519      1.0  0.27585  0.73406  0.44636  1.0000
  C   C520      1.0  0.28120  0.75378  0.42498  1.0000
  H   H426      1.0  0.43990  0.83458  0.26071  1.0000
  C   C521      1.0  0.22747  0.69083  0.45403  1.0000
  H   H427      1.0  0.37138  0.91040  0.04241  1.0000
  C   C522      1.0  0.30293  0.66681  0.39905  1.0000
  C   C523      1.0  0.33889  0.68517  0.48739  1.0000
  C   C524      1.0  0.45189  0.76806  0.47406  1.0000
  C   C525      1.0  0.39238  0.85222  0.20937  1.0000
  C   C526      1.0  0.36982  0.69625  0.38443  1.0000
  C   C527      1.0  0.42522  0.84394  0.13790  1.0000
  C   C528      1.0  0.42536  0.78831  0.43161  1.0000
  C   C529      1.0  0.34033  0.93284  0.03334  1.0000
  H   H428      1.0  0.45743  0.87296  0.20273  1.0000
  C   C530      1.0  0.28423  0.77292  0.08829  1.0000
  C   C531      1.0  0.27111  0.79412  0.09183  1.0000
  C   C532      1.0  0.26120  0.80028  0.12567  1.0000
  C   C533      1.0  0.26406  0.78513  0.15599  1.0000
  C   C534      1.0  0.27722  0.76378  0.15272  1.0000
  C   C535      1.0  0.28735  0.75782  0.11862  1.0000
  P   P16       1.0  0.28239  0.74454  0.19200  1.0000
  C   C536      1.0  0.31393  0.73956  0.19444  1.0000
  C   C537      1.0  0.27314  0.75966  0.23368  1.0000
  C   C538      1.0  0.28477  0.77993  0.24494  1.0000
  C   C539      1.0  0.27759  0.79197  0.27669  1.0000
  C   C540      1.0  0.25900  0.78374  0.29783  1.0000
  C   C541      1.0  0.24717  0.76374  0.28678  1.0000
  C   C542      1.0  0.25402  0.75189  0.25471  1.0000
  C   C543      1.0  0.32377  0.71763  0.20598  1.0000
  C   C544      1.0  0.34813  0.71416  0.20789  1.0000
  C   C545      1.0  0.36293  0.73251  0.19858  1.0000
  C   C546      1.0  0.35340  0.75432  0.18673  1.0000
  C   C547      1.0  0.32901  0.75786  0.18464  1.0000
  C   C548      1.0  0.26748  0.71678  0.18711  1.0000
  C   C549      1.0  0.25577  0.71137  0.15455  1.0000
  C   C550      1.0  0.24335  0.69045  0.15181  1.0000
  S   S80       1.0  0.03027  0.69581  0.01111  1.0000
  C   C551      1.0  0.25476  0.67955  0.21357  1.0000
  C   C552      1.0  0.26696  0.70056  0.21646  1.0000
  H   H429      1.0  0.29233  0.76849  0.06218  1.0000
  H   H430      1.0  0.26884  0.80601  0.06852  1.0000
  H   H431      1.0  0.25160  0.81705  0.12833  1.0000
  H   H432      1.0  0.25639  0.79041  0.18195  1.0000
  H   H433      1.0  0.29791  0.74164  0.11567  1.0000
  H   H434      1.0  0.29936  0.78662  0.22929  1.0000
  H   H435      1.0  0.28678  0.80753  0.28520  1.0000
  H   H436      1.0  0.25390  0.79282  0.32288  1.0000
  H   H437      1.0  0.23286  0.75716  0.30331  1.0000
  H   H438      1.0  0.24440  0.73659  0.24703  1.0000
  H   H439      1.0  0.31296  0.70320  0.21430  1.0000
  H   H440      1.0  0.35550  0.69748  0.21821  1.0000
  H   H441      1.0  0.38171  0.72992  0.20140  1.0000
  H   H442      1.0  0.36488  0.76864  0.17986  1.0000
  H   H443      1.0  0.32199  0.77500  0.17573  1.0000
  H   H444      1.0  0.25590  0.72332  0.13138  1.0000
  C   C553      1.0  0.24274  0.67460  0.18138  1.0000
  C   C554      1.0  0.39153  0.70296  0.37033  1.0000
  H   H445      1.0  0.41396  0.72773  0.44674  1.0000
  H   H446      1.0  0.27566  0.70443  0.24192  1.0000
  C   C555      1.0  0.40476  0.83684  0.12023  1.0000
  C   C556      1.0  0.42425  0.78542  0.20947  1.0000
  C   C557      1.0  0.30724  0.92462  0.07333  1.0000
  C   C558      1.0  0.31799  0.68275  0.29568  1.0000
  H   H447      1.0  0.38097  0.84278  0.07496  1.0000
  H   H448      1.0  0.33168  0.67109  0.28468  1.0000
  H   H449      1.0  0.42176  0.79397  0.23579  1.0000
  C   C559      1.0  0.42651  0.74925  0.17401  1.0000
  H   H450      1.0  0.45393  0.76494  0.41501  1.0000
  C   C560      1.0  0.29267  0.71573  0.45147  1.0000
  H   H451      1.0  0.28828  0.70042  0.46792  1.0000
  H   H452      1.0  0.17153  0.75372  0.02538  1.0000
  C   C561      1.0  0.42295  0.84255  0.25352  1.0000
  C   C562      1.0  0.32082  0.90732  0.09177  1.0000
  C   C563      1.0  0.31694  0.93723  0.04413  1.0000
  H   H453      1.0  0.33680  0.73795  0.39896  1.0000
  C   C564      1.0  0.41887  0.95592  0.03129  1.0000
  C   C565      1.0  0.19314  0.78467  0.02480  1.0000
  H   H454      1.0  0.26585  0.97000  0.05005  1.0000
  C   C566      1.0  0.41488  0.84250  0.21713  1.0000
  H   H455      1.0  0.37562  0.86940  0.29513  1.0000
  H   H456      1.0  0.30601  0.95003  0.02938  1.0000
  S   S81       1.0  0.14034  0.69787  0.00291  1.0000
  C   C567      1.0  0.19680  0.80745  0.01030  1.0000
  H   H457      1.0  0.25859  0.73300  0.45867  1.0000
  C   C568      1.0  0.34404  0.90252  0.08082  1.0000
  H   H458      1.0  0.43519  0.75337  0.11680  1.0000
  P   P17       1.0  0.43355  0.83022  0.18120  1.0000
  C   C569      1.0  0.27708  0.68985  0.31314  1.0000
  H   H459      1.0  0.30727  0.77043  0.39190  1.0000
  C   C570      1.0  0.43104  0.87283  0.08913  1.0000
  P   P18       1.0  0.33566  0.69222  0.43910  1.0000
  S   S82       1.0  0.28245  0.83322  0.00236  1.0000
  C   C571      1.0  0.38029  0.71146  0.44385  1.0000
  C   C572      1.0  0.31478  0.71677  0.43432  1.0000
  H   H460      1.0  0.45444  0.86758  0.13451  1.0000
  C   C573      1.0  0.41330  0.79878  0.46106  1.0000
  H   H461      1.0  0.26835  0.76816  0.42130  1.0000
  C   C574      1.0  0.14476  0.66300  0.14325  1.0000
  H   H462      1.0  0.31316  0.89710  0.11382  1.0000
  H   H463      1.0  0.35732  0.68844  0.36614  1.0000
  H   H464      1.0  0.35414  0.88842  0.09434  1.0000
  H   H465      1.0  0.39550  0.70030  0.34150  1.0000
  C   C575      1.0  0.42949  0.79872  0.17802  1.0000
  H   H466      1.0  0.42531  0.73015  0.17257  1.0000
  C   C576      1.0  0.43383  0.78696  0.14468  1.0000
  C   C577      1.0  0.12475  0.65992  0.16504  1.0000
  H   H467      1.0  0.25425  0.66736  0.23669  1.0000
  C   C578      1.0  0.39446  0.95406  0.02958  1.0000
  C   C579      1.0  0.35372  0.91505  0.05146  1.0000
  C   C580      1.0  0.40756  0.71405  0.39287  1.0000
  C   C581      1.0  0.31997  0.73660  0.41266  1.0000
  H   H468      1.0  0.41970  0.79210  0.40376  1.0000
  H   H469      1.0  0.23280  0.65859  0.17949  1.0000
  H   H470      1.0  0.38404  0.95644  0.05435  1.0000
  H   H471      1.0  0.42718  0.95951  0.05727  1.0000
  C   C582      1.0  0.47015  0.85827  0.20370  1.0000
  Fe  Fe40      1.0  0.24733  0.85187  0.00836  1.0000
  C   C583      1.0  0.16696  0.65714  0.15830  1.0000
  C   C584      1.0  0.48013  0.81643  0.19730  1.0000
  H   H472      1.0  0.29081  0.65691  0.29106  1.0000
  H   H473      1.0  0.18258  0.65951  0.14183  1.0000
  C   C585      1.0  0.43251  0.95353  0.99943  1.0000
  H   H474      1.0  0.45140  0.95517  0.00071  1.0000
  Fe  Fe41      1.0  0.28989  0.85697  0.95451  1.0000
  S   S83       1.0  0.25369  0.87442  0.95776  1.0000
  S   S84       1.0  0.31120  0.83662  0.91041  1.0000
  H   H475      1.0  0.18810  0.68423  0.79697  1.0000
  H   H476      1.0  0.24428  0.73301  0.78381  1.0000
  C   C586      1.0  0.46148  0.80186  0.78573  1.0000
  H   H477      1.0  0.33616  0.80074  0.86978  1.0000
  Fe  Fe42      1.0  0.11474  0.67847  0.96858  1.0000
  C   C587      1.0  0.41883  0.72328  0.61696  1.0000
  S   S85       1.0  0.09124  0.71072  0.95923  1.0000
  Fe  Fe43      1.0  0.34448  0.78845  0.71211  1.0000
  S   S86       1.0  0.35014  0.75511  0.74500  1.0000
  S   S87       1.0  0.33105  0.82293  0.73860  1.0000
  Fe  Fe44      1.0  0.35557  0.76294  0.63850  1.0000
  S   S88       1.0  0.36067  0.72785  0.66760  1.0000
  S   S89       1.0  0.36572  0.75790  0.57840  1.0000
  Fe  Fe45      1.0  0.32880  0.73815  0.70102  1.0000
  S   S90       1.0  0.29467  0.72029  0.71556  1.0000
  Fe  Fe46      1.0  0.38167  0.74840  0.70797  1.0000
  S   S91       1.0  0.41763  0.73361  0.72597  1.0000
  S   S92       1.0  0.32206  0.77184  0.66904  1.0000
  S   S93       1.0  0.37761  0.78309  0.67810  1.0000
  C   C588      1.0  0.35669  0.77091  0.53626  1.0000
  C   C589      1.0  0.18208  0.67744  0.58559  1.0000
  C   C590      1.0  0.33879  0.78836  0.53388  1.0000
  H   H478      1.0  0.13752  0.68699  0.80642  1.0000
  H   H479      1.0  0.32989  0.79447  0.55852  1.0000
  C   C591      1.0  0.28600  0.69146  0.70411  1.0000
  C   C592      1.0  0.26208  0.68640  0.70678  1.0000
  C   C593      1.0  0.25431  0.66339  0.70079  1.0000
  H   H480      1.0  0.43862  0.75455  0.62383  1.0000
  C   C594      1.0  0.21432  0.72783  0.89003  1.0000
  C   C595      1.0  0.30215  0.67333  0.69443  1.0000
  H   H481      1.0  0.24946  0.70030  0.71401  1.0000
  C   C596      1.0  0.19921  0.73571  0.91814  1.0000
  H   H482      1.0  0.32065  0.67699  0.69243  1.0000
  P   P19       1.0  0.44942  0.77245  0.55051  1.0000
  C   C597      1.0  0.44453  0.76837  0.69356  1.0000
  C   C598      1.0  0.44422  0.74589  0.70994  1.0000
  C   C599      1.0  0.46563  0.73311  0.71465  1.0000
  H   H483      1.0  0.35217  0.67169  0.59035  1.0000
  H   H484      1.0  0.42831  0.77846  0.68963  1.0000
  H   H485      1.0  0.46563  0.71570  0.72721  1.0000
  C   C600      1.0  0.30769  0.71691  0.84820  1.0000
  C   C601      1.0  0.30191  0.73634  0.58687  1.0000
  C   C602      1.0  0.01758  0.77754  0.80602  1.0000
  H   H486      1.0  0.37029  0.90380  0.96130  1.0000
  H   H487      1.0  0.02349  0.77809  0.86412  1.0000
  H   H488      1.0  0.31119  0.70715  0.79127  1.0000
  C   C603      1.0  0.48094  0.76718  0.55307  1.0000
  H   H489      1.0  0.47517  0.70822  0.83619  1.0000
  H   H490      1.0  0.22825  0.73914  0.88107  1.0000
  C   C604      1.0  0.36810  0.76322  0.50400  1.0000
  H   H491      1.0  0.41066  0.80218  0.51926  1.0000
  C   C605      1.0  0.01646  0.72824  0.81349  1.0000
  C   C606      1.0  0.22417  0.69071  0.61748  1.0000
  H   H492      1.0  0.23591  0.65977  0.70389  1.0000
  C   C607      1.0  0.31513  0.83282  0.86222  1.0000
  C   C608      1.0  0.30567  0.84871  0.83614  1.0000
  C   C609      1.0  0.31053  0.84537  0.79843  1.0000
  C   C610      1.0  0.32437  0.82581  0.78623  1.0000
  C   C611      1.0  0.33318  0.80955  0.81225  1.0000
  C   C612      1.0  0.32879  0.81319  0.84995  1.0000
  H   H493      1.0  0.29500  0.86380  0.84493  1.0000
  H   H494      1.0  0.30357  0.85803  0.77856  1.0000
  H   H495      1.0  0.34390  0.79449  0.80342  1.0000
  C   C613      1.0  0.17653  0.70054  0.91180  1.0000
  C   C614      1.0  0.42171  0.94945  0.96580  1.0000
  H   H496      1.0  0.46536  0.84282  0.62593  1.0000
  C   C615      1.0  0.33899  0.70357  0.51318  1.0000
  C   C616      1.0  0.48032  0.80820  0.93287  1.0000
  C   C617      1.0  0.38356  0.94945  0.99604  1.0000
  C   C618      1.0  0.34399  0.69864  0.55001  1.0000
  P   P20       1.0  0.02457  0.72836  0.88871  1.0000
  C   C619      1.0  0.04074  0.74655  0.91963  1.0000
  H   H497      1.0  0.29168  0.75218  0.53531  1.0000
  C   C620      1.0  0.98466  0.70139  0.89845  1.0000
  C   C621      1.0  0.35486  0.90963  0.94611  1.0000
  C   C622      1.0  0.04207  0.70119  0.88599  1.0000
  H   H498      1.0  0.06124  0.71126  0.83701  1.0000
  C   C623      1.0  0.05892  0.69790  0.85802  1.0000
  C   C624      1.0  0.03482  0.74749  0.95701  1.0000
  C   C625      1.0  0.04844  0.76012  0.98144  1.0000
  C   C626      1.0  0.06821  0.77178  0.96876  1.0000
  C   C627      1.0  0.07444  0.77069  0.93165  1.0000
  C   C628      1.0  0.06088  0.75797  0.90717  1.0000
  C   C629      1.0  0.02094  0.74217  0.84428  1.0000
  H   H499      1.0  0.29697  0.92721  0.89573  1.0000
  H   H500      1.0  0.25844  0.71129  0.89994  1.0000
  P   P21       1.0  0.25194  0.67637  0.55778  1.0000
  H   H501      1.0  0.08639  0.67485  0.83592  1.0000
  C   C630      1.0  0.02102  0.76693  0.84048  1.0000
  H   H502      1.0  0.07917  0.78103  0.98784  1.0000
  H   H503      1.0  0.29918  0.72418  0.90472  1.0000
  H   H504      1.0  0.31373  0.75034  0.59361  1.0000
  C   C631      1.0  0.44308  0.78608  0.78167  1.0000
  H   H505      1.0  0.31122  0.95246  0.94492  1.0000
  H   H506      1.0  0.16174  0.69006  0.92011  1.0000
  C   C632      1.0  0.21758  0.70743  0.79475  1.0000
  C   C633      1.0  0.34317  0.66172  0.49942  1.0000
  C   C634      1.0  0.29928  0.71718  0.61087  1.0000
  H   H507      1.0  0.98925  0.75866  0.92599  1.0000
  H   H508      1.0  0.02015  0.73784  0.96762  1.0000
  C   C635      1.0  0.48106  0.74504  0.82443  1.0000
  C   C636      1.0  0.01305  0.73888  0.77907  1.0000
  H   H509      1.0  0.09032  0.77900  0.92229  1.0000
  H   H510      1.0  0.06646  0.75651  0.87882  1.0000
  S   S94       1.0  0.30649  0.88378  0.99071  1.0000
  H   H511      1.0  0.34662  0.98119  0.93218  1.0000
  H   H512      1.0  0.30879  0.71650  0.63656  1.0000
  H   H513      1.0  0.22414  0.70656  0.50740  1.0000
  H   H514      1.0  0.18283  0.83435  0.97370  1.0000
  C   C637      1.0  0.24938  0.78176  0.96351  1.0000
  C   C638      1.0  0.18567  0.70789  0.75069  1.0000
  C   C639      1.0  0.29952  0.70842  0.81487  1.0000
  C   C640      1.0  0.27167  0.69981  0.56887  1.0000
  H   H515      1.0  0.40472  0.78812  0.58384  1.0000
  Fe  Fe47      1.0  0.11619  0.72967  0.99679  1.0000
  H   H516      1.0  0.26880  0.98341  0.93419  1.0000
  C   C641      1.0  0.41866  0.81715  0.75388  1.0000
  C   C642      1.0  0.29269  0.71808  0.87866  1.0000
  H   H517      1.0  0.12634  0.68734  0.87254  1.0000
  H   H518      1.0  0.18786  0.67606  0.87017  1.0000
  H   H519      1.0  0.45310  0.83359  0.91700  1.0000
  C   C643      1.0  0.19634  0.69855  0.78233  1.0000
  C   C644      1.0  0.46597  0.77813  0.68285  1.0000
  C   C645      1.0  0.18195  0.68701  0.62081  1.0000
  H   H520      1.0  0.27023  0.69534  0.78545  1.0000
  H   H521      1.0  0.16840  0.72846  0.95032  1.0000
  C   C646      1.0  0.45210  0.83104  0.61632  1.0000
  H   H522      1.0  0.47662  0.81036  0.58420  1.0000
  C   C647      1.0  0.22445  0.68122  0.58196  1.0000
  C   C648      1.0  0.34660  0.89529  0.91810  1.0000
  H   H523      1.0  0.42623  0.73351  0.51232  1.0000
  H   H524      1.0  0.20297  0.66573  0.53983  1.0000
  C   C649      1.0  0.07173  0.66049  0.88549  1.0000
  C   C650      1.0  0.32597  0.90182  0.89953  1.0000
  C   C651      1.0  0.31350  0.92262  0.90900  1.0000
  C   C652      1.0  0.24653  0.67483  0.50891  1.0000
  C   C653      1.0  0.18032  0.72209  0.92899  1.0000
  C   C654      1.0  0.42175  0.79378  0.76610  1.0000
  C   C655      1.0  0.19603  0.72635  0.73139  1.0000
  C   C656      1.0  0.41809  0.80007  0.59254  1.0000
  H   H525      1.0  0.38915  0.94499  0.93761  1.0000
  C   C657      1.0  0.32173  0.93701  0.93691  1.0000
  H   H526      1.0  0.18775  0.73355  0.70685  1.0000
  C   C658      1.0  0.16051  0.80383  0.97556  1.0000
  H   H527      1.0  0.43447  0.85109  0.74799  1.0000
  H   H528      1.0  0.24027  0.69539  0.63085  1.0000
  C   C659      1.0  0.22793  0.72587  0.77509  1.0000
  H   H529      1.0  0.40775  0.78138  0.76273  1.0000
  H   H530      1.0  0.14761  0.81171  0.95712  1.0000
  H   H531      1.0  0.35558  0.87860  0.91165  1.0000
  H   H532      1.0  0.31929  0.89031  0.87865  1.0000
  H   H533      1.0  0.28370  0.77386  0.98583  1.0000
  C   C660      1.0  0.41180  0.81870  0.61605  1.0000
  H   H534      1.0  0.45729  0.82575  0.85095  1.0000
  C   C661      1.0  0.27377  0.77871  0.96150  1.0000
  C   C662      1.0  0.28547  0.78327  0.92859  1.0000
  C   C663      1.0  0.27278  0.79060  0.89759  1.0000
  C   C664      1.0  0.24814  0.79308  0.89893  1.0000
  C   C665      1.0  0.23664  0.78916  0.93256  1.0000
  P   P22       1.0  0.23192  0.80290  0.85855  1.0000
  C   C666      1.0  0.22717  0.83462  0.86044  1.0000
  C   C667      1.0  0.24978  0.79616  0.81839  1.0000
  C   C668      1.0  0.25323  0.81342  0.79102  1.0000
  C   C669      1.0  0.26825  0.80855  0.76134  1.0000
  C   C670      1.0  0.27986  0.78648  0.75862  1.0000
  C   C671      1.0  0.27641  0.76918  0.78544  1.0000
  C   C672      1.0  0.26137  0.77390  0.81516  1.0000
  C   C673      1.0  0.24566  0.84895  0.87070  1.0000
  C   C674      1.0  0.24302  0.87365  0.86881  1.0000
  C   C675      1.0  0.22172  0.88421  0.85753  1.0000
  C   C676      1.0  0.20320  0.87005  0.84721  1.0000
  C   C677      1.0  0.20599  0.84534  0.84818  1.0000
  C   C678      1.0  0.20410  0.78820  0.85627  1.0000
  C   C679      1.0  0.18601  0.79373  0.88151  1.0000
  C   C680      1.0  0.16509  0.78136  0.88115  1.0000
  C   C681      1.0  0.16181  0.76379  0.85507  1.0000
  C   C682      1.0  0.17925  0.75888  0.82887  1.0000
  C   C683      1.0  0.20026  0.77109  0.82935  1.0000
  H   H535      1.0  0.23899  0.66438  0.77415  1.0000
  S   S95       1.0  0.26709  0.94173  0.98126  1.0000
  H   H536      1.0  0.30450  0.78224  0.92741  1.0000
  H   H537      1.0  0.28246  0.79503  0.87299  1.0000
  H   H538      1.0  0.21798  0.79227  0.93559  1.0000
  H   H539      1.0  0.24484  0.83083  0.79274  1.0000
  H   H540      1.0  0.27155  0.82212  0.74091  1.0000
  H   H541      1.0  0.29189  0.78294  0.73603  1.0000
  H   H542      1.0  0.28567  0.75219  0.78311  1.0000
  H   H543      1.0  0.25917  0.76037  0.83600  1.0000
  H   H544      1.0  0.26226  0.84107  0.87974  1.0000
  H   H545      1.0  0.25745  0.88460  0.87661  1.0000
  H   H546      1.0  0.21961  0.90336  0.85679  1.0000
  H   H547      1.0  0.18675  0.87825  0.83816  1.0000
  H   H548      1.0  0.19171  0.83474  0.83888  1.0000
  H   H549      1.0  0.18802  0.80754  0.90165  1.0000
  H   H550      1.0  0.15150  0.78513  0.90145  1.0000
  H   H551      1.0  0.14577  0.75392  0.85527  1.0000
  H   H552      1.0  0.17659  0.74537  0.80849  1.0000
  H   H553      1.0  0.21343  0.76704  0.80880  1.0000
  H   H554      1.0  0.42391  0.84836  0.64665  1.0000
  H   H555      1.0  0.33598  0.72188  0.50471  1.0000
  C   C684      1.0  0.26064  0.70394  0.84161  1.0000
  H   H556      1.0  0.20173  0.75259  0.93118  1.0000
  H   H557      1.0  0.16942  0.70058  0.74109  1.0000
  C   C685      1.0  0.26939  0.71117  0.87561  1.0000
  C   C686      1.0  0.27616  0.70185  0.81161  1.0000
  C   C687      1.0  0.43431  0.74655  0.56643  1.0000
  H   H558      1.0  0.47191  0.83804  0.77677  1.0000
  C   C688      1.0  0.13410  0.67146  0.86045  1.0000
  H   H559      1.0  0.34479  0.71299  0.56950  1.0000
  C   C689      1.0  0.40881  0.70791  0.59205  1.0000
  H   H560      1.0  0.02810  0.68659  0.93628  1.0000
  C   C690      1.0  0.42452  0.73078  0.54154  1.0000
  C   C691      1.0  0.19163  0.69252  0.88378  1.0000
  C   C692      1.0  0.21722  0.73528  0.74352  1.0000
  C   C693      1.0  0.34840  0.67534  0.56169  1.0000
  C   C694      1.0  0.20301  0.69356  0.63679  1.0000
  P   P23       1.0  0.23037  0.69563  0.83657  1.0000
  H   H561      1.0  0.41642  0.72063  0.64623  1.0000
  C   C695      1.0  0.45842  0.81252  0.59255  1.0000
  C   C696      1.0  0.43143  0.74254  0.60420  1.0000
  C   C697      1.0  0.34263  0.93079  0.95537  1.0000
  C   C698      1.0  0.21109  0.70579  0.87334  1.0000
  C   C699      1.0  0.27424  0.71928  0.54520  1.0000
  H   H562      1.0  0.39370  0.82105  0.62503  1.0000
  H   H563      1.0  0.40357  0.69993  0.53507  1.0000
  H   H564      1.0  0.16562  0.68854  0.63618  1.0000
  H   H565      1.0  0.39851  0.69340  0.60206  1.0000
  H   H566      1.0  0.40212  0.82291  0.74148  1.0000
  C   C700      1.0  0.41171  0.71160  0.55435  1.0000
  H   H567      1.0  0.16585  0.67159  0.57369  1.0000
  C   C701      1.0  0.39729  0.94759  0.96401  1.0000
  C   C702      1.0  0.20324  0.67425  0.56636  1.0000
  C   C703      1.0  0.42880  0.83411  0.62810  1.0000
  C   C704      1.0  0.44143  0.79687  0.58044  1.0000
  C   C705      1.0  0.28433  0.69893  0.60189  1.0000
  H   H568      1.0  0.28244  0.68429  0.62098  1.0000
  S   S96       1.0  0.13057  0.76599  0.97900  1.0000
  H   H569      1.0  0.20308  0.70006  0.66463  1.0000
  H   H570      1.0  0.22556  0.74931  0.72827  1.0000
  H   H571      1.0  0.32574  0.72229  0.85044  1.0000
  C   C706      1.0  0.23196  0.66378  0.83260  1.0000
  C   C707      1.0  0.14044  0.67120  0.82296  1.0000
  C   C708      1.0  0.34798  0.65688  0.53639  1.0000
  C   C709      1.0  0.26728  0.97322  0.99123  1.0000
  C   C710      1.0  0.43689  0.83296  0.75750  1.0000
  C   C711      1.0  0.28949  0.73733  0.55394  1.0000
  H   H572      1.0  0.01774  0.79666  0.80321  1.0000
  H   H573      1.0  0.99431  0.68716  0.88475  1.0000
  H   H574      1.0  0.22683  0.65664  0.89056  1.0000
  H   H575      1.0  0.46596  0.79572  0.67096  1.0000
  C   C712      1.0  0.45816  0.82542  0.77357  1.0000
  C   C713      1.0  0.04046  0.68407  0.91390  1.0000
  H   H576      1.0  0.01553  0.70915  0.81614  1.0000
  C   C714      1.0  0.07341  0.67741  0.85751  1.0000
  H   H577      1.0  0.46673  0.75120  0.84194  1.0000
  H   H578      1.0  0.47962  0.74536  0.60228  1.0000
  H   H579      1.0  0.44502  0.76772  0.78995  1.0000
  C   C715      1.0  0.05530  0.66386  0.91373  1.0000
  C   C716      1.0  0.46853  0.81601  0.87002  1.0000
  H   H580      1.0  0.26440  0.72072  0.52015  1.0000
  C   C717      1.0  0.01371  0.76352  0.77530  1.0000
  H   H581      1.0  0.38220  0.75003  0.50578  1.0000
  C   C718      1.0  0.18053  0.81677  0.98492  1.0000
  H   H582      1.0  0.24039  0.77929  0.98948  1.0000
  P   P24       1.0  0.35202  0.94800  0.99384  1.0000
  C   C719      1.0  0.46610  0.82054  0.90756  1.0000
  H   H583      1.0  0.01098  0.77175  0.74864  1.0000
  H   H584      1.0  0.43223  0.94799  0.94099  1.0000
  C   C720      1.0  0.44018  0.77894  0.50389  1.0000
  H   H585      1.0  0.30032  0.65771  0.55993  1.0000
  C   C721      1.0  0.99519  0.72310  0.90516  1.0000
  H   H586      1.0  0.00976  0.72801  0.75536  1.0000
  C   C722      1.0  0.33264  0.79821  0.49943  1.0000
  C   C723      1.0  0.23676  0.65346  0.79834  1.0000
  H   H587      1.0  0.47837  0.81173  0.96193  1.0000
  C   C724      1.0  0.34113  0.97836  0.99088  1.0000
  Fe  Fe48      1.0  0.27020  0.90112  0.99605  1.0000
  C   C725      1.0  0.15675  0.78112  0.99054  1.0000
  H   H588      1.0  0.31903  0.81199  0.49777  1.0000
  H   H589      1.0  0.98882  0.66840  0.99562  1.0000
  C   C726      1.0  0.42060  0.79411  0.49704  1.0000
  Fe  Fe49      1.0  0.66802  0.13660  0.03407  1.0000
  S   S97       1.0  0.64483  0.15256  0.08025  1.0000
  S   S98       1.0  0.70238  0.11545  0.02877  1.0000
  H   H590      1.0  0.54664  0.15145  0.48052  1.0000
  H   H591      1.0  0.60521  0.01652  0.08812  1.0000
  S   S99       1.0  0.86131  0.27967  0.05534  1.0000
  Fe  Fe50      1.0  0.59343  0.22495  0.34878  1.0000
  S   S100      1.0  0.57855  0.25492  0.31362  1.0000
  S   S101      1.0  0.58671  0.23416  0.40891  1.0000
  Fe  Fe51      1.0  0.61341  0.19844  0.27983  1.0000
  S   S102      1.0  0.59917  0.22673  0.24251  1.0000
  S   S103      1.0  0.63665  0.16913  0.25355  1.0000
  Fe  Fe52      1.0  0.61324  0.25229  0.28348  1.0000
  S   S104      1.0  0.64046  0.27761  0.26163  1.0000
  Fe  Fe53      1.0  0.56619  0.22591  0.27695  1.0000
  S   S105      1.0  0.53123  0.21772  0.25011  1.0000
  S   S106      1.0  0.62848  0.22391  0.32014  1.0000
  S   S107      1.0  0.57980  0.19606  0.31302  1.0000
  C   C727      1.0  0.50274  0.22934  0.26102  1.0000
  H   H592      1.0  0.67571  0.23794  0.28507  1.0000
  H   H593      1.0  0.60797  0.16587  0.48952  1.0000
  H   H594      1.0  0.51333  0.26495  0.27107  1.0000
  C   C728      1.0  0.65244  0.30114  0.28657  1.0000
  C   C729      1.0  0.67698  0.30254  0.28940  1.0000
  H   H595      1.0  0.77200  0.24627  0.17581  1.0000
  C   C730      1.0  0.64668  0.01777  0.13021  1.0000
  C   C731      1.0  0.68611  0.24744  0.05047  1.0000
  C   C732      1.0  0.74659  0.29331  0.40843  1.0000
  H   H596      1.0  0.68821  0.28798  0.28028  1.0000
  H   H597      1.0  0.65243  0.00495  0.07478  1.0000
  C   C733      1.0  0.66818  0.21568  0.44596  1.0000
  H   H598      1.0  0.71930  0.25353  0.26889  1.0000
  H   H599      1.0  0.73352  0.08154  0.09808  1.0000
  H   H600      1.0  0.63327  0.30207  0.15841  1.0000
  C   C734      1.0  0.63042  0.24245  0.14976  1.0000
  C   C735      1.0  0.71579  0.07540  0.10156  1.0000
  C   C736      1.0  0.54130  0.11562  0.13038  1.0000
  C   C737      1.0  0.62594  0.06671  0.04852  1.0000
  H   H601      1.0  0.72772  0.21171  0.00960  1.0000
  Fe  Fe54      1.0  0.84176  0.31436  0.04492  1.0000
  C   C738      1.0  0.64063  0.21125  0.02911  1.0000
  C   C739      1.0  0.59064  0.21883  0.45117  1.0000
  H   H602      1.0  0.77208  0.31835  0.09723  1.0000
  C   C740      1.0  0.72488  0.25449  0.07482  1.0000
  S   S108      1.0  0.81437  0.29808  0.01033  1.0000
  C   C741      1.0  0.59111  0.06762  0.19235  1.0000
  H   H603      1.0  0.94983  0.26048  0.06635  1.0000
  C   C742      1.0  0.73649  0.26066  0.27160  1.0000
  H   H604      1.0  0.79730  0.28845  0.28452  1.0000
  C   C743      1.0  0.64438  0.15765  0.12840  1.0000
  C   C744      1.0  0.65941  0.14556  0.15297  1.0000
  C   C745      1.0  0.65700  0.14932  0.19119  1.0000
  C   C746      1.0  0.63984  0.16542  0.20521  1.0000
  C   C747      1.0  0.62524  0.17779  0.18046  1.0000
  C   C748      1.0  0.62738  0.17382  0.14246  1.0000
  H   H605      1.0  0.67253  0.13299  0.14264  1.0000
  H   H606      1.0  0.66842  0.13961  0.21002  1.0000
  H   H607      1.0  0.61178  0.18995  0.19067  1.0000
  H   H608      1.0  0.61563  0.18328  0.12383  1.0000
  H   H609      1.0  0.64548  0.02506  0.18846  1.0000
  C   C749      1.0  0.70421  0.21568  0.15694  1.0000
  H   H610      1.0  0.76209  0.28123  0.03290  1.0000
  H   H611      1.0  0.65276  0.20438  0.04969  1.0000
  C   C750      1.0  0.57834  0.23113  0.11156  1.0000
  C   C751      1.0  0.76956  0.26912  0.31044  1.0000
  C   C752      1.0  0.56386  0.20653  0.16097  1.0000
  H   H612      1.0  0.58190  0.01688  0.03134  1.0000
  H   H613      1.0  0.55720  0.18008  0.07805  1.0000
  H   H614      1.0  0.63826  0.08065  0.05285  1.0000
  H   H615      1.0  0.58615  0.24740  0.10235  1.0000
  C   C753      1.0  0.57375  0.22757  0.14887  1.0000
  C   C754      1.0  0.51235  0.17053  0.14213  1.0000
  C   C755      1.0  0.58421  0.11537  0.09261  1.0000
  H   H616      1.0  0.57770  0.24116  0.16856  1.0000
  H   H617      1.0  0.58654  0.15149  0.10874  1.0000
  C   C756      1.0  0.49865  0.25335  0.26884  1.0000
  H   H618      1.0  0.78515  0.19564  0.06878  1.0000
  H   H619      1.0  0.53437  0.23922  0.40063  1.0000
  C   C757      1.0  0.75400  0.29996  0.14061  1.0000
  C   C758      1.0  0.63459  0.29981  0.02427  1.0000
  H   H620      1.0  0.62160  0.26667  0.19336  1.0000
  C   C759      1.0  0.68035  0.24711  0.34159  1.0000
  H   H621      1.0  0.75730  0.16826  0.04015  1.0000
  C   C760      1.0  0.55378  0.13661  0.12754  1.0000
  H   H622      1.0  0.52494  0.11532  0.14571  1.0000
  H   H623      1.0  0.73491  0.23544  0.14751  1.0000
  C   C761      1.0  0.57449  0.14887  0.24912  1.0000
  C   C762      1.0  0.55556  0.14662  0.27329  1.0000
  C   C763      1.0  0.53258  0.14925  0.26032  1.0000
  C   C764      1.0  0.52850  0.15419  0.22319  1.0000
  C   C765      1.0  0.54748  0.15718  0.19893  1.0000
  C   C766      1.0  0.57045  0.15408  0.21209  1.0000
  C   C767      1.0  0.95654  0.27528  0.08146  1.0000
  H   H624      1.0  0.67217  0.19883  0.17228  1.0000
  H   H625      1.0  0.67127  0.26800  0.49125  1.0000
  H   H626      1.0  0.59232  0.14692  0.25923  1.0000
  H   H627      1.0  0.55873  0.14320  0.30217  1.0000
  H   H628      1.0  0.51791  0.14788  0.27919  1.0000
  C   C768      1.0  0.71509  0.30399  0.20364  1.0000
  H   H629      1.0  0.58523  0.15566  0.19367  1.0000
  H   H630      1.0  0.71763  0.28607  0.37318  1.0000
  C   C769      1.0  0.98072  0.27701  0.08690  1.0000
  C   C770      1.0  0.70552  0.06243  0.07373  1.0000
  H   H631      1.0  0.61937  0.29456  0.04000  1.0000
  C   C771      1.0  0.68474  0.23342  0.31036  1.0000
  H   H632      1.0  0.67041  0.20781  0.41917  1.0000
  C   C772      1.0  0.71893  0.23458  0.16337  1.0000
  H   H633      1.0  0.70897  0.20250  0.13646  1.0000
  C   C773      1.0  0.71145  0.20778  0.34488  1.0000
  C   C774      1.0  0.70007  0.21364  0.31200  1.0000
  C   C775      1.0  0.69106  0.24085  0.37500  1.0000
  C   C776      1.0  0.70712  0.22145  0.37624  1.0000
  P   P25       1.0  0.68516  0.25785  0.41596  1.0000
  C   C777      1.0  0.64449  0.26002  0.09302  1.0000
  C   C778      1.0  0.71273  0.27095  0.42748  1.0000
  C   C779      1.0  0.62390  0.04828  0.07425  1.0000
  C   C780      1.0  0.66236  0.28011  0.40718  1.0000
  C   C781      1.0  0.63912  0.27305  0.40278  1.0000
  C   C782      1.0  0.62121  0.28981  0.39503  1.0000
  C   C783      1.0  0.57273  0.21377  0.08621  1.0000
  H   H634      1.0  0.51093  0.19859  0.18249  1.0000
  C   C784      1.0  0.65380  0.98831  0.17816  1.0000
  H   H635      1.0  0.72343  0.19249  0.34613  1.0000
  H   H636      1.0  0.70300  0.20283  0.28782  1.0000
  C   C785      1.0  0.54998  0.09481  0.11378  1.0000
  C   C786      1.0  0.69605  0.23015  0.02713  1.0000
  S   S109      1.0  0.81344  0.23273  0.04039  1.0000
  H   H637      1.0  0.63482  0.25450  0.40479  1.0000
  H   H638      1.0  0.60340  0.28406  0.39105  1.0000
  C   C787      1.0  0.65218  0.00044  0.10373  1.0000
  C   C788      1.0  0.57134  0.09474  0.09467  1.0000
  H   H639      1.0  0.60109  0.11527  0.07858  1.0000
  C   C789      1.0  0.59867  0.19519  0.45335  1.0000
  C   C790      1.0  0.50128  0.18899  0.16208  1.0000
  H   H640      1.0  0.74133  0.31442  0.14456  1.0000
  C   C791      1.0  0.68345  0.21359  0.17709  1.0000
  H   H641      1.0  0.77797  0.26853  0.33705  1.0000
  H   H642      1.0  0.73891  0.25102  0.32882  1.0000
  C   C792      1.0  0.66961  0.06007  0.10963  1.0000
  C   C793      1.0  0.68031  0.07244  0.13806  1.0000
  C   C794      1.0  0.70319  0.08040  0.13375  1.0000
  C   C795      1.0  0.76664  0.18072  0.02327  1.0000
  C   C796      1.0  0.68250  0.05486  0.07768  1.0000
  C   C797      1.0  0.69185  0.30640  0.19094  1.0000
  H   H643      1.0  0.67493  0.04468  0.05591  1.0000
  C   C798      1.0  0.65888  0.20192  0.47428  1.0000
  C   C799      1.0  0.78250  0.19626  0.03941  1.0000
  H   H644      1.0  0.71436  0.25750  0.48341  1.0000
  H   H645      1.0  0.77285  0.29846  0.44966  1.0000
  H   H646      1.0  0.75341  0.23361  0.05185  1.0000
  H   H647      1.0  0.67119  0.07576  0.16372  1.0000
  H   H648      1.0  0.71124  0.09029  0.15545  1.0000
  H   H649      1.0  0.66817  0.26218  0.33951  1.0000
  H   H650      1.0  0.71530  0.05840  0.04878  1.0000
  C   C800      1.0  0.58537  0.23112  0.48374  1.0000
  P   P26       1.0  0.65562  0.25670  0.04668  1.0000
  H   H651      1.0  0.51687  0.18337  0.46975  1.0000
  C   C801      1.0  0.51775  0.23846  0.41527  1.0000
  C   C802      1.0  0.72495  0.28356  0.40042  1.0000
  H   H652      1.0  0.60266  0.18550  0.42848  1.0000
  C   C803      1.0  0.62296  0.06511  0.14773  1.0000
  H   H653      1.0  0.62955  0.17630  0.01481  1.0000
  H   H654      1.0  0.50795  0.14540  0.09818  1.0000
  C   C804      1.0  0.74734  0.27180  0.24173  1.0000
  H   H655      1.0  0.75579  0.30344  0.38776  1.0000
  H   H656      1.0  0.63754  0.09890  0.13248  1.0000
  H   H657      1.0  0.77803  0.29089  0.22460  1.0000
  C   C805      1.0  0.59399  0.03093  0.03634  1.0000
  C   C806      1.0  0.63853  0.23567  0.02143  1.0000
  C   C807      1.0  0.61218  0.06705  0.01675  1.0000
  C   C808      1.0  0.78055  0.28014  0.28085  1.0000
  P   P27       1.0  0.64089  0.04805  0.11587  1.0000
  Fe  Fe55      1.0  0.83442  0.26373  0.01798  1.0000
  H   H658      1.0  0.60281  0.03535  0.16620  1.0000
  H   H659      1.0  0.66111  0.22893  0.21910  1.0000
  C   C809      1.0  0.71285  0.25187  0.18967  1.0000
  C   C810      1.0  0.62507  0.08980  0.14972  1.0000
  C   C811      1.0  0.74757  0.25930  0.30578  1.0000
  C   C812      1.0  0.61086  0.10313  0.17382  1.0000
  H   H660      1.0  0.83106  0.30689  0.13941  1.0000
  C   C813      1.0  0.77123  0.30219  0.11337  1.0000
  C   C814      1.0  0.57568  0.13611  0.10946  1.0000
  C   C815      1.0  0.77131  0.26176  0.15807  1.0000
  C   C816      1.0  0.76954  0.28143  0.24667  1.0000
  C   C817      1.0  0.62633  0.31378  0.39184  1.0000
  C   C818      1.0  0.60747  0.03066  0.06831  1.0000
  C   C819      1.0  0.62760  0.19514  0.00925  1.0000
  H   H661      1.0  0.56033  0.20417  0.18996  1.0000
  H   H662      1.0  0.68502  0.31032  0.40707  1.0000
  C   C820      1.0  0.70071  0.25952  0.07449  1.0000
  H   H663      1.0  0.65433  0.18373  0.46926  1.0000
  C   C821      1.0  0.60547  0.05419  0.16853  1.0000
  C   C822      1.0  0.69180  0.24959  0.20957  1.0000
  H   H664      1.0  0.58287  0.10243  0.21374  1.0000
  H   H665      1.0  0.53390  0.22664  0.46544  1.0000
  C   C823      1.0  0.55808  0.18905  0.13572  1.0000
  C   C824      1.0  0.67727  0.23051  0.20345  1.0000
  H   H666      1.0  0.69354  0.27317  0.09243  1.0000
  H   H667      1.0  0.80154  0.24995  0.12618  1.0000
  H   H668      1.0  0.57778  0.05910  0.20864  1.0000
  C   C825      1.0  0.59392  0.09205  0.19518  1.0000
  P   P28       1.0  0.73191  0.27642  0.19883  1.0000
  C   C826      1.0  0.72283  0.26776  0.46235  1.0000
  H   H669      1.0  0.71593  0.21666  0.40163  1.0000
  C   C827      1.0  0.63464  0.28481  0.14564  1.0000
  C   C828      1.0  0.75374  0.27955  0.16294  1.0000
  C   C829      1.0  0.63851  0.23998  0.11370  1.0000
  H   H670      1.0  0.68646  0.26266  0.22974  1.0000
  C   C830      1.0  0.51739  0.23120  0.45204  1.0000
  H   H671      1.0  0.81674  0.30583  0.20385  1.0000
  C   C831      1.0  0.74443  0.27768  0.47030  1.0000
  H   H672      1.0  0.73619  0.26409  0.09282  1.0000
  S   S110      1.0  0.92272  0.27812  0.99882  1.0000
  C   C832      1.0  0.75624  0.29051  0.44341  1.0000
  C   C833      1.0  0.78814  0.26382  0.13024  1.0000
  C   C834      1.0  0.67366  0.23942  0.45224  1.0000
  H   H673      1.0  0.51053  0.15587  0.21393  1.0000
  C   C835      1.0  0.78811  0.28402  0.10795  1.0000
  H   H674      1.0  0.54024  0.07868  0.11594  1.0000
  P   P29       1.0  0.54295  0.16305  0.15065  1.0000
  H   H675      1.0  0.61290  0.12211  0.17561  1.0000
  H   H676      1.0  0.80170  0.28589  0.08728  1.0000
  H   H677      1.0  0.61335  0.29547  0.47714  1.0000
  H   H678      1.0  0.48638  0.19608  0.25115  1.0000
  C   C836      1.0  0.60163  0.18411  0.48796  1.0000
  H   H679      1.0  0.68365  0.29209  0.17683  1.0000
  H   H680      1.0  0.57810  0.07863  0.08192  1.0000
  H   H681      1.0  0.57886  0.24931  0.48222  1.0000
  H   H682      1.0  0.64026  0.22235  0.10251  1.0000
  H   H683      1.0  0.49706  0.25007  0.36875  1.0000
  H   H684      1.0  0.63600  0.98714  0.00613  1.0000
  C   C837      1.0  0.49963  0.15897  0.11504  1.0000
  C   C838      1.0  0.64314  0.28243  0.10974  1.0000
  C   C839      1.0  0.56218  0.19301  0.09814  1.0000
  C   C840      1.0  0.49676  0.24466  0.39738  1.0000
  H   H685      1.0  0.64885  0.29810  0.09547  1.0000
  C   C841      1.0  0.59640  0.04909  0.01051  1.0000
  C   C842      1.0  0.72021  0.22503  0.02783  1.0000
  H   H686      1.0  0.57632  0.21648  0.05727  1.0000
  C   C843      1.0  0.79464  0.21283  0.01802  1.0000
  C   C844      1.0  0.66846  0.24941  0.48660  1.0000
  C   C845      1.0  0.64826  0.01172  0.16756  1.0000
  C   C846      1.0  0.66736  0.30426  0.40416  1.0000
  C   C847      1.0  0.73463  0.23724  0.05162  1.0000
  H   H687      1.0  0.68540  0.22077  0.00800  1.0000
  H   H688      1.0  0.62597  0.22696  0.16566  1.0000
  C   C848      1.0  0.62814  0.26484  0.16552  1.0000
  C   C849      1.0  0.97369  0.31397  0.11917  1.0000
  C   C850      1.0  0.65482  0.28492  0.02264  1.0000
  C   C851      1.0  0.94954  0.31232  0.11323  1.0000
  C   C852      1.0  0.49594  0.22966  0.47108  1.0000
  Fe  Fe56      1.0  0.88236  0.28729  0.00360  1.0000
  C   C853      1.0  0.75487  0.28977  0.00852  1.0000
  C   C854      1.0  0.75184  0.31441  0.00711  1.0000
  C   C855      1.0  0.94098  0.29302  0.09421  1.0000
  H   H689      1.0  0.92232  0.29187  0.08890  1.0000
  C   C856      1.0  0.48340  0.21463  0.25744  1.0000
  C   C857      1.0  0.65349  0.99173  0.99753  1.0000
  C   C858      1.0  0.67416  0.29201  0.00151  1.0000
  H   H690      1.0  0.68994  0.28086  0.99928  1.0000
  H   H691      1.0  0.64603  0.02961  0.00070  1.0000
  C   C859      1.0  0.52400  0.18085  0.49702  1.0000
  C   C860      1.0  0.72554  0.16385  0.86251  1.0000
  H   H692      1.0  0.64725  0.20113  0.53066  1.0000
  C   C861      1.0  0.73643  0.24669  0.78368  1.0000
  H   H693      1.0  0.73812  0.23880  0.81051  1.0000
  H   H694      1.0  0.70179  0.24710  0.70762  1.0000
  C   C862      1.0  0.70651  0.17950  0.67601  1.0000
  Fe  Fe57      1.0  0.66230  0.14099  0.94951  1.0000
  S   S111      1.0  0.64068  0.16645  0.91255  1.0000
  S   S112      1.0  0.69551  0.11939  0.93913  1.0000
  Fe  Fe58      1.0  0.59960  0.19586  0.70266  1.0000
  S   S113      1.0  0.59134  0.23463  0.71239  1.0000
  S   S114      1.0  0.61026  0.16661  0.74384  1.0000
  Fe  Fe59      1.0  0.59605  0.20183  0.61790  1.0000
  S   S115      1.0  0.58784  0.24068  0.62232  1.0000
  S   S116      1.0  0.60200  0.18257  0.56361  1.0000
  Fe  Fe60      1.0  0.61615  0.24128  0.66509  1.0000
  S   S117      1.0  0.64898  0.26275  0.65661  1.0000
  Fe  Fe61      1.0  0.56354  0.23057  0.66861  1.0000
  S   S118      1.0  0.52745  0.24947  0.66767  1.0000
  S   S119      1.0  0.62574  0.20276  0.65787  1.0000
  S   S120      1.0  0.57022  0.19136  0.66180  1.0000
  H   H695      1.0  0.65289  0.15999  0.70166  1.0000
  C   C863      1.0  0.77592  0.19719  0.96378  1.0000
  C   C864      1.0  0.70985  0.19560  0.80743  1.0000
  H   H696      1.0  0.91388  0.29596  0.81343  1.0000
  H   H697      1.0  0.75823  0.27239  0.59905  1.0000
  Fe  Fe62      1.0  0.71186  0.14124  0.98335  1.0000
  C   C865      1.0  0.53335  0.26895  0.57308  1.0000
  C   C866      1.0  0.91035  0.30133  0.87212  1.0000
  S   S121      1.0  0.85630  0.26877  0.96684  1.0000
  C   C867      1.0  0.74845  0.27658  0.74002  1.0000
  C   C868      1.0  0.95813  0.31215  0.99263  1.0000
  H   H698      1.0  0.76487  0.27040  0.79241  1.0000
  H   H699      1.0  0.65987  0.18655  0.75348  1.0000
  H   H700      1.0  0.60039  0.27105  0.52983  1.0000
  H   H701      1.0  0.58627  0.04913  0.98541  1.0000
  H   H702      1.0  0.65782  0.29465  0.59379  1.0000
  C   C869      1.0  0.66904  0.16966  0.70268  1.0000
  C   C870      1.0  0.48616  0.26146  0.55725  1.0000
  C   C871      1.0  0.91045  0.28784  0.83983  1.0000
  C   C872      1.0  0.96311  0.31378  0.88401  1.0000
  C   C873      1.0  0.52579  0.19145  0.56128  1.0000
  Fe  Fe63      1.0  0.83775  0.30461  0.96178  1.0000
  C   C874      1.0  0.50015  0.23528  0.67226  1.0000
  H   H703      1.0  0.75974  0.29102  0.73261  1.0000
  H   H704      1.0  0.51490  0.20151  0.68958  1.0000
  C   C875      1.0  0.49889  0.21172  0.68402  1.0000
  C   C876      1.0  0.67301  0.18483  0.73199  1.0000
  C   C877      1.0  0.74178  0.17506  0.83993  1.0000
  H   H705      1.0  0.71945  0.17738  0.65431  1.0000
  C   C878      1.0  0.65893  0.28868  0.67754  1.0000
  H   H706      1.0  0.80053  0.22572  0.96318  1.0000
  C   C879      1.0  0.66721  0.23458  0.82394  1.0000
  C   C880      1.0  0.70150  0.16765  0.85662  1.0000
  H   H707      1.0  0.56318  0.14483  0.54276  1.0000
  H   H708      1.0  0.68225  0.15563  0.65162  1.0000
  P   P30       1.0  0.69932  0.21609  0.77229  1.0000
  C   C881      1.0  0.73812  0.31189  0.94441  1.0000
  C   C882      1.0  0.69824  0.00431  0.97508  1.0000
  C   C883      1.0  0.71698  0.31219  0.80152  1.0000
  C   C884      1.0  0.71581  0.25162  0.72611  1.0000
  H   H709      1.0  0.95599  0.29627  0.88273  1.0000
  C   C885      1.0  0.63400  0.16653  0.86489  1.0000
  C   C886      1.0  0.62441  0.18741  0.84875  1.0000
  C   C887      1.0  0.61775  0.18806  0.81146  1.0000
  C   C888      1.0  0.62016  0.16762  0.79007  1.0000
  C   C889      1.0  0.63019  0.14691  0.80605  1.0000
  C   C890      1.0  0.63726  0.14639  0.84312  1.0000
  H   H710      1.0  0.62182  0.20309  0.86531  1.0000
  H   H711      1.0  0.61014  0.20413  0.79955  1.0000
  H   H712      1.0  0.63221  0.13103  0.78974  1.0000
  H   H713      1.0  0.64460  0.13020  0.85506  1.0000
  C   C891      1.0  0.65499  0.31036  0.53950  1.0000
  C   C892      1.0  0.73400  0.19063  0.81211  1.0000
  S   S122      1.0  0.64918  0.11519  0.99196  1.0000
  H   H714      1.0  0.66084  0.23895  0.73103  1.0000
  H   H715      1.0  0.67893  0.22769  0.84502  1.0000
  H   H716      1.0  0.67496  0.18526  0.82415  1.0000
  C   C893      1.0  0.67234  0.23104  0.78656  1.0000
  H   H717      1.0  0.60332  0.19037  0.96512  1.0000
  C   C894      1.0  0.64791  0.29571  0.56853  1.0000
  H   H718      1.0  0.71570  0.00892  0.96631  1.0000
  H   H719      1.0  0.61542  0.26599  0.81606  1.0000
  H   H720      1.0  0.75839  0.31632  0.60252  1.0000
  C   C895      1.0  0.69376  0.19753  0.73345  1.0000
  H   H721      1.0  0.76039  0.17138  0.84390  1.0000
  C   C896      1.0  0.59681  0.19662  0.52056  1.0000
  C   C897      1.0  0.90381  0.26556  0.90758  1.0000
  C   C898      1.0  0.74362  0.30763  0.59042  1.0000
  H   H722      1.0  0.74680  0.19850  0.79413  1.0000
  H   H723      1.0  0.77390  0.19721  0.93432  1.0000
  C   C899      1.0  0.63684  0.25373  0.77085  1.0000
  C   C900      1.0  0.63144  0.25651  0.80800  1.0000
  H   H724      1.0  0.73155  0.15186  0.88417  1.0000
  C   C901      1.0  0.61263  0.20309  0.98132  1.0000
  H   H725      1.0  0.72431  0.25271  0.57112  1.0000
  H   H726      1.0  0.52024  0.20245  0.58422  1.0000
  C   C902      1.0  0.62284  0.29587  0.50285  1.0000
  H   H727      1.0  0.62891  0.29498  0.71263  1.0000
  H   H728      1.0  0.90091  0.23340  0.87686  1.0000
  H   H729      1.0  0.62282  0.27080  0.58791  1.0000
  H   H730      1.0  0.84135  0.30014  0.85488  1.0000
  P   P31       1.0  0.73700  0.26900  0.90571  1.0000
  C   C903      1.0  0.76507  0.25498  0.89426  1.0000
  C   C904      1.0  0.71391  0.24917  0.91850  1.0000
  C   C905      1.0  0.71838  0.22483  0.92427  1.0000
  C   C906      1.0  0.69984  0.20974  0.93104  1.0000
  C   C907      1.0  0.67683  0.21892  0.93375  1.0000
  C   C908      1.0  0.67241  0.24331  0.93050  1.0000
  C   C909      1.0  0.69088  0.25840  0.92317  1.0000
  C   C910      1.0  0.76641  0.23382  0.87425  1.0000
  C   C911      1.0  0.78827  0.22362  0.86451  1.0000
  C   C912      1.0  0.80894  0.23473  0.87404  1.0000
  C   C913      1.0  0.80776  0.25610  0.89310  1.0000
  C   C914      1.0  0.78598  0.26619  0.90318  1.0000
  C   C915      1.0  0.72866  0.28632  0.86547  1.0000
  C   C916      1.0  0.90663  0.26349  0.84147  1.0000
  C   C917      1.0  0.90339  0.25234  0.87538  1.0000
  H   H731      1.0  0.69093  0.27655  0.54698  1.0000
  H   H732      1.0  0.52052  0.29888  0.60439  1.0000
  C   C918      1.0  0.70843  0.28122  0.84532  1.0000
  C   C919      1.0  0.90697  0.29003  0.90600  1.0000
  C   C920      1.0  0.70546  0.28551  0.55898  1.0000
  C   C921      1.0  0.69369  0.18313  0.82885  1.0000
  H   H733      1.0  0.58471  0.22989  0.54303  1.0000
  H   H734      1.0  0.90667  0.25318  0.81652  1.0000
  H   H735      1.0  0.73602  0.21724  0.92385  1.0000
  H   H736      1.0  0.70338  0.19085  0.93433  1.0000
  H   H737      1.0  0.66252  0.20714  0.93916  1.0000
  H   H738      1.0  0.65462  0.25041  0.93321  1.0000
  H   H739      1.0  0.68713  0.27724  0.92017  1.0000
  H   H740      1.0  0.75065  0.22503  0.86642  1.0000
  H   H741      1.0  0.78923  0.20703  0.84976  1.0000
  H   H742      1.0  0.82589  0.22680  0.86668  1.0000
  H   H743      1.0  0.82373  0.26496  0.90014  1.0000
  H   H744      1.0  0.78562  0.28287  0.91771  1.0000
  C   C922      1.0  0.65472  0.21176  0.50885  1.0000
  C   C923      1.0  0.70518  0.31035  0.56162  1.0000
  H   H745      1.0  0.62064  0.26208  0.98695  1.0000
  H   H746      1.0  0.69067  0.28802  0.64501  1.0000
  H   H747      1.0  0.69747  0.26681  0.85305  1.0000
  C   C924      1.0  0.68164  0.02268  0.98329  1.0000
  H   H748      1.0  0.62521  0.26131  0.75025  1.0000
  H   H749      1.0  0.54953  0.16994  0.59433  1.0000
  C   C925      1.0  0.75138  0.26489  0.77368  1.0000
  S   S123      1.0  0.68992  0.05342  0.97962  1.0000
  C   C926      1.0  0.82798  0.31231  0.84411  1.0000
  H   H750      1.0  0.68708  0.29004  0.79800  1.0000
  C   C927      1.0  0.76329  0.18105  0.98528  1.0000
  C   C928      1.0  0.73741  0.31701  0.82073  1.0000
  C   C929      1.0  0.74354  0.28293  0.58836  1.0000
  H   H751      1.0  0.90752  0.29995  0.93130  1.0000
  C   C930      1.0  0.72447  0.27188  0.57257  1.0000
  H   H752      1.0  0.72715  0.20351  0.70664  1.0000
  C   C931      1.0  0.65712  0.24100  0.76007  1.0000
  H   H753      1.0  0.83641  0.30509  0.78718  1.0000
  C   C932      1.0  0.71898  0.23941  0.75959  1.0000
  C   C933      1.0  0.73056  0.27005  0.71637  1.0000
  C   C934      1.0  0.71070  0.19446  0.70556  1.0000
  H   H754      1.0  0.59859  0.23335  0.95182  1.0000
  C   C935      1.0  0.67332  0.31374  0.98280  1.0000
  C   C936      1.0  0.68563  0.16716  0.67451  1.0000
  C   C937      1.0  0.79117  0.21327  0.98004  1.0000
  S   S124      1.0  0.67912  0.16331  0.99209  1.0000
  C   C938      1.0  0.62812  0.28191  0.56517  1.0000
  C   C939      1.0  0.70253  0.29424  0.81372  1.0000
  Fe  Fe64      1.0  0.68376  0.09460  0.98475  1.0000
  H   H755      1.0  0.65562  0.24314  0.54162  1.0000
  C   C940      1.0  0.64601  0.30097  0.70450  1.0000
  C   C941      1.0  0.74977  0.27617  0.97786  1.0000
  C   C942      1.0  0.49226  0.28081  0.57856  1.0000
  H   H756      1.0  0.75301  0.25712  0.97901  1.0000
  H   H757      1.0  0.68833  0.31913  0.96678  1.0000
  C   C943      1.0  0.74336  0.30408  0.85244  1.0000
  C   C944      1.0  0.64666  0.24697  0.83456  1.0000
  H   H758      1.0  0.68886  0.15845  0.87343  1.0000
  C   C945      1.0  0.74153  0.28713  0.94549  1.0000
  H   H759      1.0  0.64240  0.24894  0.86335  1.0000
  C   C946      1.0  0.54218  0.17289  0.56728  1.0000
  C   C947      1.0  0.54978  0.15859  0.53816  1.0000
  H   H760      1.0  0.90212  0.25677  0.93397  1.0000
  S   S125      1.0  0.74385  0.16165  0.96318  1.0000
  C   C948      1.0  0.68070  0.29721  0.66622  1.0000
  H   H761      1.0  0.75953  0.30778  0.86655  1.0000
  C   C949      1.0  0.68970  0.31763  0.68195  1.0000
  C   C950      1.0  0.61016  0.22729  0.97371  1.0000
  C   C951      1.0  0.64241  0.31005  0.50632  1.0000
  H   H762      1.0  0.72793  0.27948  0.69063  1.0000
  P   P32       1.0  0.49574  0.21982  0.51843  1.0000
  C   C952      1.0  0.61556  0.28199  0.53240  1.0000
  C   C953      1.0  0.62285  0.24353  0.99383  1.0000
  H   H763      1.0  0.55157  0.27163  0.57980  1.0000
  C   C954      1.0  0.58856  0.22015  0.51822  1.0000
  C   C955      1.0  0.52732  0.24958  0.55180  1.0000
  C   C956      1.0  0.51582  0.28440  0.58681  1.0000
  C   C957      1.0  0.82520  0.31522  0.80576  1.0000
  C   C958      1.0  0.65941  0.23552  0.51497  1.0000
  C   C959      1.0  0.65915  0.01602  0.99454  1.0000
  C   C960      1.0  0.51707  0.19596  0.52585  1.0000
  H   H764      1.0  0.54112  0.23771  0.54161  1.0000
  C   C961      1.0  0.50363  0.24536  0.54456  1.0000
  C   C962      1.0  0.95247  0.28813  0.99313  1.0000
  C   C963      1.0  0.97117  0.27121  0.98974  1.0000
  C   C964      1.0  0.54060  0.16247  0.50308  1.0000
  C   C965      1.0  0.98185  0.31897  0.98865  1.0000
  H   H765      1.0  0.61403  0.08096  0.99644  1.0000
  H   H766      1.0  0.96729  0.25257  0.99015  1.0000
  H   H767      1.0  0.75202  0.27553  0.49737  1.0000
  Fe  Fe65      1.0  0.78466  0.60783  0.38321  1.0000
  S   S126      1.0  0.74573  0.60500  0.38474  1.0000
  S   S127      1.0  0.80710  0.59993  0.43352  1.0000
  Fe  Fe66      1.0  0.78491  0.62307  0.30026  1.0000
  S   S128      1.0  0.74548  0.62087  0.29760  1.0000
  H   H768      1.0  0.67831  0.36210  0.22163  1.0000
  Fe  Fe67      1.0  0.74477  0.63904  0.35236  1.0000
  H   H769      1.0  0.76509  0.44283  0.41460  1.0000
  Fe  Fe68      1.0  0.75060  0.58675  0.33040  1.0000
  S   S129      1.0  0.73007  0.55336  0.32017  1.0000
  C   C966      1.0  0.64938  0.32099  0.39654  1.0000
  S   S130      1.0  0.79003  0.58790  0.33009  1.0000
  Fe  Fe69      1.0  0.76678  0.36604  0.37519  1.0000
  S   S131      1.0  0.73976  0.39568  0.37257  1.0000
  S   S132      1.0  0.77986  0.34806  0.42772  1.0000
  Fe  Fe70      1.0  0.77242  0.36412  0.29033  1.0000
  S   S133      1.0  0.74557  0.39404  0.28200  1.0000
  S   S134      1.0  0.79124  0.33916  0.24924  1.0000
  Fe  Fe71      1.0  0.76296  0.41193  0.32978  1.0000
  S   S135      1.0  0.77682  0.44926  0.33726  1.0000
  Fe  Fe72      1.0  0.72459  0.37527  0.32576  1.0000
  S   S136      1.0  0.68516  0.36992  0.32587  1.0000
  S   S137      1.0  0.79126  0.38308  0.33518  1.0000
  S   S138      1.0  0.75013  0.34459  0.33133  1.0000
  C   C967      1.0  0.74292  0.52443  0.32635  1.0000
  C   C968      1.0  0.72938  0.50441  0.32018  1.0000
  C   C969      1.0  0.73928  0.48123  0.32384  1.0000
  C   C970      1.0  0.76288  0.47785  0.33379  1.0000
  C   C971      1.0  0.77621  0.49788  0.34081  1.0000
  C   C972      1.0  0.76635  0.52099  0.33702  1.0000
  H   H770      1.0  0.71123  0.50682  0.31194  1.0000
  H   H771      1.0  0.72879  0.46602  0.31839  1.0000
  H   H772      1.0  0.79446  0.49551  0.34857  1.0000
  H   H773      1.0  0.77703  0.53614  0.34173  1.0000
  C   C973      1.0  0.80512  0.36184  0.14420  1.0000
  C   C974      1.0  0.79690  0.36129  0.18087  1.0000
  C   C975      1.0  0.80100  0.34110  0.20271  1.0000
  H   H774      1.0  0.80202  0.37763  0.12773  1.0000
  H   H775      1.0  0.78758  0.37654  0.19231  1.0000
  C   C976      1.0  0.67304  0.34280  0.31244  1.0000
  C   C977      1.0  0.77071  0.35830  0.47144  1.0000
  H   H776      1.0  0.98010  0.32905  0.13390  1.0000
  C   C978      1.0  0.75566  0.45408  0.43404  1.0000
  H   H777      1.0  0.76493  0.60818  0.48198  1.0000
  H   H778      1.0  0.83062  0.46458  0.41853  1.0000
  C   C979      1.0  0.80252  0.60225  0.48172  1.0000
  H   H779      1.0  0.73451  0.64876  0.01332  1.0000
  C   C980      1.0  0.65055  0.59152  0.49189  1.0000
  C   C981      1.0  0.89692  0.63138  0.07702  1.0000
  C   C982      1.0  0.79256  0.53556  0.42492  1.0000
  C   C983      1.0  0.88503  0.65198  0.08946  1.0000
  H   H780      1.0  0.71993  0.32046  0.49184  1.0000
  H   H781      1.0  0.63738  0.35632  0.31795  1.0000
  P   P33       1.0  0.88088  0.60472  0.06982  1.0000
  H   H782      1.0  0.65552  0.56036  0.35756  1.0000
  H   H783      1.0  0.65346  0.33952  0.39314  1.0000
  C   C984      1.0  0.81397  0.43094  0.41721  1.0000
  C   C985      1.0  0.81742  0.34222  0.12878  1.0000
  C   C986      1.0  0.72055  0.46300  0.46946  1.0000
  C   C987      1.0  0.71246  0.34347  0.44610  1.0000
  C   C988      1.0  0.68870  0.34617  0.21555  1.0000
  H   H784      1.0  0.78224  0.47999  0.43455  1.0000
  C   C989      1.0  0.84161  0.61358  0.02504  1.0000
  C   C990      1.0  0.79493  0.63377  0.18393  1.0000
  H   H785      1.0  0.78246  0.62135  0.19443  1.0000
  H   H786      1.0  0.75659  0.32496  0.03051  1.0000
  C   C991      1.0  0.72130  0.57820  0.46937  1.0000
  H   H787      1.0  0.81428  0.42988  0.38746  1.0000
  C   C992      1.0  0.80411  0.41282  0.43792  1.0000
  S   S139      1.0  0.82762  0.34403  0.08245  1.0000
  C   C993      1.0  0.89811  0.56191  0.04036  1.0000
  H   H788      1.0  0.61254  0.32669  0.38500  1.0000
  C   C994      1.0  0.71975  0.64429  0.47778  1.0000
  C   C995      1.0  0.63381  0.32151  0.00549  1.0000
  C   C996      1.0  0.70092  0.63858  0.45530  1.0000
  C   C997      1.0  0.83198  0.58679  0.16684  1.0000
  H   H789      1.0  0.85042  0.51313  0.47112  1.0000
  H   H790      1.0  0.60308  0.61833  0.45034  1.0000
  C   C998      1.0  0.67770  0.36900  0.45113  1.0000
  C   C999      1.0  0.73013  0.48421  0.48096  1.0000
  H   H791      1.0  0.83009  0.46701  0.48616  1.0000
  C   C1000     1.0  0.74236  0.54034  0.46455  1.0000
  C   C1001     1.0  0.91776  0.57558  0.09474  1.0000
  C   C1002     1.0  0.71399  0.55259  0.41804  1.0000
  C   C1003     1.0  0.61323  0.60637  0.46793  1.0000
  C   C1004     1.0  0.82314  0.45051  0.43479  1.0000
  C   C1005     1.0  0.81420  0.53931  0.40789  1.0000
  H   H792      1.0  0.93035  0.61701  0.05691  1.0000
  H   H793      1.0  0.81482  0.54903  0.38216  1.0000
  H   H794      1.0  0.73427  0.52004  0.41598  1.0000
  H   H795      1.0  0.71983  0.35885  0.24098  1.0000
  C   C1006     1.0  0.90069  0.57920  0.06745  1.0000
  C   C1007     1.0  0.75287  0.49025  0.46982  1.0000
  C   C1008     1.0  0.84958  0.60316  0.17144  1.0000
  H   H796      1.0  0.83954  0.59668  0.49109  1.0000
  H   H797      1.0  0.68311  0.57867  0.31386  1.0000
  C   C1009     1.0  0.73339  0.44786  0.44617  1.0000
  H   H798      1.0  0.66603  0.38255  0.43942  1.0000
  H   H799      1.0  0.72591  0.43157  0.43671  1.0000
  C   C1010     1.0  0.91313  0.54180  0.03970  1.0000
  H   H800      1.0  0.70485  0.63407  0.42724  1.0000
  H   H801      1.0  0.82048  0.58264  0.18966  1.0000
  C   C1011     1.0  0.63770  0.60821  0.47067  1.0000
  C   C1012     1.0  0.81262  0.51539  0.47517  1.0000
  P   P34       1.0  0.65321  0.62897  0.44226  1.0000
  H   H802      1.0  0.78599  0.62815  0.12716  1.0000
  C   C1013     1.0  0.67792  0.63824  0.46954  1.0000
  C   C1014     1.0  0.93050  0.53863  0.06642  1.0000
  C   C1015     1.0  0.86116  0.59856  0.10748  1.0000
  C   C1016     1.0  0.69729  0.36086  0.43115  1.0000
  H   H803      1.0  0.82264  0.42706  0.00689  1.0000
  H   H804      1.0  0.83100  0.61330  0.04969  1.0000
  C   C1017     1.0  0.86604  0.60953  0.02654  1.0000
  H   H805      1.0  0.82365  0.38500  0.02755  1.0000
  C   C1018     1.0  0.66131  0.61373  0.40005  1.0000
  C   C1019     1.0  0.65343  0.59074  0.39327  1.0000
  C   C1020     1.0  0.66118  0.57824  0.36224  1.0000
  C   C1021     1.0  0.67664  0.58856  0.33748  1.0000
  C   C1022     1.0  0.68395  0.61157  0.34330  1.0000
  C   C1023     1.0  0.67619  0.62418  0.37419  1.0000
  H   H806      1.0  0.87792  0.62142  0.14651  1.0000
  C   C1024     1.0  0.70785  0.33380  0.48075  1.0000
  C   C1025     1.0  0.75419  0.37699  0.47509  1.0000
  C   C1026     1.0  0.83425  0.51919  0.45811  1.0000
  H   H807      1.0  0.88447  0.56380  0.01987  1.0000
  C   C1027     1.0  0.81327  0.32149  0.18725  1.0000
  H   H808      1.0  0.69749  0.58689  0.42553  1.0000
  H   H809      1.0  0.94602  0.55287  0.11501  1.0000
  H   H810      1.0  0.86634  0.65194  0.09509  1.0000
  C   C1028     1.0  0.93274  0.55546  0.09402  1.0000
  C   C1029     1.0  0.64850  0.34120  0.31048  1.0000
  H   H811      1.0  0.71833  0.59484  0.48331  1.0000
  C   C1030     1.0  0.79162  0.52360  0.45880  1.0000
  H   H812      1.0  0.69592  0.61946  0.32399  1.0000
  C   C1031     1.0  0.71209  0.34430  0.22672  1.0000
  H   H813      1.0  0.77677  0.54238  0.41167  1.0000
  C   C1032     1.0  0.70940  0.57365  0.43694  1.0000
  H   H814      1.0  0.91946  0.58833  0.11660  1.0000
  H   H815      1.0  0.93742  0.32604  0.12314  1.0000
  H   H816      1.0  0.69778  0.61792  0.20235  1.0000
  C   C1033     1.0  0.83503  0.53121  0.42448  1.0000
  H   H817      1.0  0.74048  0.62062  0.21352  1.0000
  H   H818      1.0  0.70548  0.54947  0.39202  1.0000
  H   H819      1.0  0.85175  0.53456  0.41143  1.0000
  H   H820      1.0  0.61818  0.33295  0.00698  1.0000
  C   C1034     1.0  0.92094  0.63226  0.06813  1.0000
  C   C1035     1.0  0.82915  0.57595  0.13286  1.0000
  H   H821      1.0  0.81558  0.56315  0.12943  1.0000
  C   C1036     1.0  0.63823  0.32043  0.29782  1.0000
  H   H822      1.0  0.85166  0.61159  0.19783  1.0000
  H   H823      1.0  0.66037  0.32870  0.18945  1.0000
  C   C1037     1.0  0.80965  0.64521  0.20831  1.0000
  H   H824      1.0  0.91120  0.52860  0.01858  1.0000
  H   H825      1.0  0.94210  0.52303  0.06593  1.0000
  H   H826      1.0  0.61935  0.31979  0.29505  1.0000
  H   H827      1.0  0.70072  0.36803  0.40404  1.0000
  P   P35       1.0  0.76388  0.51894  0.48157  1.0000
  S   S140      1.0  0.80913  0.63978  0.25675  1.0000
  H   H828      1.0  0.79704  0.39761  0.42427  1.0000
  C   C1038     1.0  0.82250  0.45196  0.47312  1.0000
  S   S141      1.0  0.78379  0.64285  0.35384  1.0000
  H   H829      1.0  0.64169  0.58203  0.41201  1.0000
  C   C1039     1.0  0.84385  0.58161  0.10338  1.0000
  C   C1040     1.0  0.70532  0.63506  0.20664  1.0000
  H   H830      1.0  0.74665  0.38534  0.45095  1.0000
  C   C1041     1.0  0.67862  0.32730  0.19746  1.0000
  H   H831      1.0  0.68207  0.64198  0.37808  1.0000
  C   C1042     1.0  0.79710  0.63758  0.14568  1.0000
  H   H832      1.0  0.84170  0.57280  0.07738  1.0000
  C   C1043     1.0  0.86422  0.60895  0.14200  1.0000
  C   C1044     1.0  0.76539  0.47517  0.44568  1.0000
  C   C1045     1.0  0.73042  0.53595  0.43173  1.0000
  C   C1046     1.0  0.73784  0.56171  0.48305  1.0000
  C   C1047     1.0  0.60176  0.58847  0.48702  1.0000
  H   H833      1.0  0.58288  0.58704  0.48467  1.0000
  H   H834      1.0  0.64770  0.32033  0.48276  1.0000
  C   C1048     1.0  0.72524  0.32333  0.22092  1.0000
  H   H835      1.0  0.79863  0.65205  0.43928  1.0000
  H   H836      1.0  0.74323  0.32227  0.23043  1.0000
  H   H837      1.0  0.72798  0.33771  0.43087  1.0000
  C   C1049     1.0  0.81514  0.39011  0.00195  1.0000
  C   C1050     1.0  0.80334  0.41430  0.47619  1.0000
  C   C1051     1.0  0.68722  0.32311  0.30277  1.0000
  C   C1052     1.0  0.72938  0.63659  0.21298  1.0000
  H   H838      1.0  0.73741  0.64442  0.46641  1.0000
  H   H839      1.0  0.66954  0.59193  0.49316  1.0000
  C   C1053     1.0  0.67309  0.35950  0.48588  1.0000
  H   H840      1.0  0.70299  0.45847  0.47798  1.0000
  H   H841      1.0  0.70612  0.32406  0.30408  1.0000
  C   C1054     1.0  0.82145  0.32203  0.15061  1.0000
  H   H842      1.0  0.79596  0.39996  0.49192  1.0000
  C   C1055     1.0  0.81253  0.43385  0.49410  1.0000
  C   C1056     1.0  0.81353  0.32535  0.86830  1.0000
  Fe  Fe73      1.0  0.75885  0.62342  0.73283  1.0000
  S   S142      1.0  0.72113  0.61383  0.72241  1.0000
  C   C1057     1.0  0.92244  0.35943  0.80602  1.0000
  Fe  Fe74      1.0  0.77182  0.61292  0.65183  1.0000
  S   S143      1.0  0.73553  0.60316  0.63739  1.0000
  S   S144      1.0  0.80010  0.61131  0.60757  1.0000
  Fe  Fe75      1.0  0.72410  0.63485  0.67039  1.0000
  H   H843      1.0  0.65153  0.64019  0.61957  1.0000
  Fe  Fe76      1.0  0.73605  0.58273  0.69053  1.0000
  S   S145      1.0  0.71849  0.54700  0.68814  1.0000
  C   C1058     1.0  0.82271  0.48030  0.56549  1.0000
  S   S146      1.0  0.77350  0.59061  0.70384  1.0000
  Fe  Fe77      1.0  0.77679  0.35963  0.71750  1.0000
  S   S147      1.0  0.75057  0.38000  0.75195  1.0000
  C   C1059     1.0  0.60665  0.61213  0.57832  1.0000
  Fe  Fe78      1.0  0.75473  0.37878  0.64535  1.0000
  S   S148      1.0  0.72725  0.40039  0.67616  1.0000
  S   S149      1.0  0.74826  0.38619  0.58479  1.0000
  Fe  Fe79      1.0  0.75642  0.41053  0.71311  1.0000
  S   S150      1.0  0.76594  0.44715  0.73293  1.0000
  Fe  Fe80      1.0  0.72393  0.36786  0.71131  1.0000
  S   S151      1.0  0.68839  0.35515  0.73029  1.0000
  S   S152      1.0  0.78438  0.39089  0.68063  1.0000
  S   S153      1.0  0.74971  0.34556  0.67872  1.0000
  C   C1060     1.0  0.75720  0.37456  0.54186  1.0000
  C   C1061     1.0  0.90814  0.34437  0.82658  1.0000
  H   H844      1.0  0.72508  0.34036  0.57896  1.0000
  H   H845      1.0  0.73453  0.43769  0.91008  1.0000
  C   C1062     1.0  0.78127  0.54144  0.54329  1.0000
  P   P36       1.0  0.68068  0.32829  0.54442  1.0000
  C   C1063     1.0  0.79379  0.34419  0.81567  1.0000
  H   H846      1.0  0.65770  0.36580  0.50097  1.0000
  H   H847      1.0  0.78104  0.35701  0.80519  1.0000
  C   C1064     1.0  0.63053  0.62269  0.72524  1.0000
  H   H848      1.0  0.67393  0.57598  0.68307  1.0000
  C   C1065     1.0  0.79938  0.60722  0.55917  1.0000
  C   C1066     1.0  0.82099  0.60266  0.54180  1.0000
  C   C1067     1.0  0.77889  0.60877  0.53758  1.0000
  C   C1068     1.0  0.59992  0.56752  0.65213  1.0000
  H   H849      1.0  0.76206  0.61226  0.55066  1.0000
  C   C1069     1.0  0.73261  0.51937  0.69885  1.0000
  C   C1070     1.0  0.75450  0.51794  0.71606  1.0000
  C   C1071     1.0  0.76453  0.49567  0.72597  1.0000
  C   C1072     1.0  0.75300  0.47462  0.71830  1.0000
  C   C1073     1.0  0.73135  0.47602  0.70025  1.0000
  C   C1074     1.0  0.72119  0.49832  0.69072  1.0000
  H   H850      1.0  0.76344  0.53399  0.72257  1.0000
  H   H851      1.0  0.78125  0.49477  0.73998  1.0000
  H   H852      1.0  0.72221  0.45997  0.69445  1.0000
  H   H853      1.0  0.70420  0.49927  0.67756  1.0000
  H   H854      1.0  0.72590  0.44261  0.54174  1.0000
  H   H855      1.0  0.86107  0.34390  0.76866  1.0000
  C   C1075     1.0  0.80476  0.37292  0.98061  1.0000
  H   H856      1.0  0.88948  0.46715  0.57788  1.0000
  H   H857      1.0  0.79003  0.55307  0.52409  1.0000
  H   H858      1.0  0.57385  0.51600  0.63058  1.0000
  H   H859      1.0  0.80415  0.48441  0.56198  1.0000
  C   C1076     1.0  0.66716  0.58009  0.60541  1.0000
  S   S154      1.0  0.80552  0.33547  0.74306  1.0000
  H   H860      1.0  0.79750  0.44605  0.61799  1.0000
  H   H861      1.0  0.83562  0.62576  0.93379  1.0000
  C   C1077     1.0  0.67699  0.55775  0.61497  1.0000
  H   H862      1.0  0.63537  0.54606  0.58357  1.0000
  C   C1078     1.0  0.67425  0.64401  0.50672  1.0000
  P   P37       1.0  0.81286  0.43442  0.54367  1.0000
  C   C1079     1.0  0.86142  0.49357  0.58098  1.0000
  H   H863      1.0  0.84646  0.34202  0.58621  1.0000
  H   H864      1.0  0.85048  0.40287  0.51554  1.0000
  C   C1080     1.0  0.62664  0.61500  0.60008  1.0000
  C   C1081     1.0  0.58375  0.54938  0.65323  1.0000
  H   H865      1.0  0.94425  0.32548  0.99575  1.0000
  C   C1082     1.0  0.65523  0.32128  0.72069  1.0000
  H   H866      1.0  0.74629  0.49360  0.54778  1.0000
  C   C1083     1.0  0.89246  0.36343  0.75914  1.0000
  C   C1084     1.0  0.76373  0.44018  0.54173  1.0000
  S   S155      1.0  0.76269  0.63664  0.79228  1.0000
  C   C1085     1.0  0.82177  0.37069  0.59787  1.0000
  H   H867      1.0  0.73189  0.32085  0.91986  1.0000
  C   C1086     1.0  0.78409  0.44065  0.56320  1.0000
  H   H868      1.0  0.74952  0.50164  0.61384  1.0000
  H   H869      1.0  0.75859  0.45258  0.64616  1.0000
  C   C1087     1.0  0.67192  0.38657  0.63220  1.0000
  H   H870      1.0  0.61451  0.62523  0.67237  1.0000
  C   C1088     1.0  0.61891  0.56651  0.62734  1.0000
  H   H871      1.0  0.80554  0.35450  0.98944  1.0000
  C   C1089     1.0  0.65921  0.36593  0.63547  1.0000
  H   H872      1.0  0.56928  0.55020  0.67268  1.0000
  H   H873      1.0  0.81225  0.50629  0.50130  1.0000
  H   H874      1.0  0.67122  0.39953  0.65402  1.0000
  H   H875      1.0  0.79859  0.40100  0.60229  1.0000
  H   H876      1.0  0.81342  0.36144  0.62036  1.0000
  C   C1090     1.0  0.75652  0.50827  0.55635  1.0000
  H   H877      1.0  0.77261  0.53513  0.63540  1.0000
  C   C1091     1.0  0.78204  0.44573  0.60080  1.0000
  C   C1092     1.0  0.60495  0.52911  0.60442  1.0000
  C   C1093     1.0  0.75996  0.44955  0.61690  1.0000
  C   C1094     1.0  0.66161  0.58903  0.69420  1.0000
  C   C1095     1.0  0.78050  0.60644  0.49874  1.0000
  H   H878      1.0  0.66845  0.54658  0.63498  1.0000
  C   C1096     1.0  0.58630  0.53014  0.62948  1.0000
  H   H879      1.0  0.70647  0.53321  0.60894  1.0000
  H   H880      1.0  0.72260  0.45096  0.60840  1.0000
  C   C1097     1.0  0.84252  0.39422  0.53891  1.0000
  H   H881      1.0  0.84764  0.36998  0.93065  1.0000
  C   C1098     1.0  0.62112  0.54725  0.60320  1.0000
  P   P38       1.0  0.63954  0.59029  0.62565  1.0000
  C   C1099     1.0  0.68793  0.34154  0.50069  1.0000
  C   C1100     1.0  0.71057  0.56448  0.57570  1.0000
  H   H882      1.0  0.64865  0.36294  0.65983  1.0000
  H   H883      1.0  0.71958  0.49621  0.49780  1.0000
  C   C1101     1.0  0.70097  0.58672  0.56597  1.0000
  H   H884      1.0  0.79321  0.56045  0.59050  1.0000
  C   C1102     1.0  0.68794  0.37279  0.57420  1.0000
  H   H885      1.0  0.83006  0.51596  0.58168  1.0000
  C   C1103     1.0  0.86644  0.36674  0.93192  1.0000
  H   H886      1.0  0.72365  0.48025  0.90738  1.0000
  H   H887      1.0  0.94824  0.37269  0.87809  1.0000
  C   C1104     1.0  0.84401  0.62069  0.95948  1.0000
  H   H888      1.0  0.83688  0.60136  0.55798  1.0000
  C   C1105     1.0  0.75839  0.51267  0.59397  1.0000
  C   C1106     1.0  0.67935  0.59450  0.58071  1.0000
  C   C1107     1.0  0.69853  0.54998  0.60004  1.0000
  H   H889      1.0  0.67263  0.61199  0.57353  1.0000
  C   C1108     1.0  0.68618  0.39006  0.60146  1.0000
  H   H890      1.0  0.76477  0.43607  0.51283  1.0000
  H   H891      1.0  0.74742  0.56605  0.50745  1.0000
  C   C1109     1.0  0.91432  0.35534  0.93839  1.0000
  H   H892      1.0  0.86477  0.36281  0.53362  1.0000
  H   H893      1.0  0.69672  0.40568  0.59944  1.0000
  C   C1110     1.0  0.94893  0.33429  0.87782  1.0000
  C   C1111     1.0  0.63907  0.57361  0.51076  1.0000
  H   H894      1.0  0.59880  0.59502  0.57593  1.0000
  S   S156      1.0  0.76072  0.64631  0.68189  1.0000
  C   C1112     1.0  0.80818  0.33137  0.79134  1.0000
  C   C1113     1.0  0.84032  0.35973  0.57856  1.0000
  H   H895      1.0  0.73447  0.39931  0.51252  1.0000
  H   H896      1.0  0.80340  0.43866  0.94869  1.0000
  H   H897      1.0  0.78468  0.35087  0.87198  1.0000
  C   C1114     1.0  0.74141  0.47431  0.90053  1.0000
  C   C1115     1.0  0.77362  0.35575  0.53838  1.0000
  H   H898      1.0  0.72781  0.55887  0.56575  1.0000
  H   H899      1.0  0.87275  0.50754  0.58962  1.0000
  C   C1116     1.0  0.64382  0.59962  0.67248  1.0000
  C   C1117     1.0  0.77152  0.53150  0.60623  1.0000
  C   C1118     1.0  0.83198  0.45731  0.55895  1.0000
  C   C1119     1.0  0.85065  0.37147  0.54903  1.0000
  H   H900      1.0  0.65018  0.61701  0.77505  1.0000
  C   C1120     1.0  0.87892  0.37478  0.96201  1.0000
  C   C1121     1.0  0.67548  0.35176  0.57745  1.0000
  H   H901      1.0  0.65683  0.64383  0.51868  1.0000
  C   C1122     1.0  0.78308  0.54577  0.58091  1.0000
  H   H902      1.0  0.59750  0.58226  0.67072  1.0000
  C   C1123     1.0  0.73972  0.44867  0.59556  1.0000
  C   C1124     1.0  0.95895  0.35662  0.88133  1.0000
  H   H903      1.0  0.78587  0.36568  0.93159  1.0000
  C   C1125     1.0  0.74161  0.44408  0.55798  1.0000
  H   H904      1.0  0.60697  0.51412  0.58610  1.0000
  C   C1126     1.0  0.66094  0.34858  0.60830  1.0000
  S   S157      1.0  0.81657  0.32401  0.91675  1.0000
  H   H905      1.0  0.67761  0.58691  0.74753  1.0000
  H   H906      1.0  0.80491  0.45347  0.87466  1.0000
  H   H907      1.0  0.61865  0.63600  0.73708  1.0000
  C   C1127     1.0  0.76778  0.52275  0.53058  1.0000
  H   H908      1.0  0.86386  0.43527  0.55839  1.0000
  H   H909      1.0  0.93262  0.35037  0.94247  1.0000
  H   H910      1.0  0.71080  0.59838  0.54838  1.0000
  C   C1128     1.0  0.62838  0.61666  0.68831  1.0000
  C   C1129     1.0  0.81350  0.39338  0.58769  1.0000
  C   C1130     1.0  0.82396  0.40547  0.55834  1.0000
  C   C1131     1.0  0.64827  0.61204  0.74660  1.0000
  C   C1132     1.0  0.67717  0.32963  0.70956  1.0000
  H   H911      1.0  0.69995  0.37545  0.55150  1.0000
  C   C1133     1.0  0.88599  0.33882  0.81267  1.0000
  H   H912      1.0  0.79315  0.33320  0.50062  1.0000
  C   C1134     1.0  0.66375  0.59519  0.73109  1.0000
  H   H913      1.0  0.65142  0.33259  0.61244  1.0000
  C   C1135     1.0  0.83361  0.38613  0.82919  1.0000
  C   C1136     1.0  0.82854  0.39599  0.79477  1.0000
  C   C1137     1.0  0.80880  0.41104  0.79035  1.0000
  C   C1138     1.0  0.79397  0.41604  0.82021  1.0000
  C   C1139     1.0  0.79869  0.40580  0.85480  1.0000
  C   C1140     1.0  0.81873  0.39094  0.85904  1.0000
  P   P39       1.0  0.77864  0.41109  0.89280  1.0000
  C   C1141     1.0  0.77057  0.44232  0.89258  1.0000
  C   C1142     1.0  0.75255  0.39387  0.88769  1.0000
  C   C1143     1.0  0.74500  0.38712  0.85280  1.0000
  C   C1144     1.0  0.72458  0.37425  0.84889  1.0000
  C   C1145     1.0  0.71151  0.36799  0.87978  1.0000
  C   C1146     1.0  0.71870  0.37485  0.91464  1.0000
  C   C1147     1.0  0.73911  0.38780  0.91862  1.0000
  C   C1148     1.0  0.74768  0.45015  0.90200  1.0000
  C   C1149     1.0  0.82251  0.60001  0.50372  1.0000
  C   C1150     1.0  0.75793  0.49081  0.88969  1.0000
  C   C1151     1.0  0.78079  0.48318  0.88056  1.0000
  C   C1152     1.0  0.78714  0.45906  0.88209  1.0000
  C   C1153     1.0  0.79289  0.40309  0.93571  1.0000
  C   C1154     1.0  0.80355  0.42027  0.95721  1.0000
  H   H914      1.0  0.65255  0.34535  0.97032  1.0000
  C   C1155     1.0  0.83066  0.61916  0.99165  1.0000
  C   C1156     1.0  0.80792  0.65132  0.80923  1.0000
  C   C1157     1.0  0.79365  0.37936  0.94772  1.0000
  H   H915      1.0  0.84866  0.37416  0.83255  1.0000
  H   H916      1.0  0.83967  0.39172  0.77139  1.0000
  H   H917      1.0  0.80477  0.41864  0.76361  1.0000
  H   H918      1.0  0.77862  0.42760  0.81597  1.0000
  H   H919      1.0  0.82248  0.38233  0.88495  1.0000
  H   H920      1.0  0.75467  0.39190  0.82849  1.0000
  H   H921      1.0  0.71879  0.36931  0.82173  1.0000
  H   H922      1.0  0.69568  0.35806  0.87650  1.0000
  H   H923      1.0  0.70835  0.37036  0.93856  1.0000
  H   H924      1.0  0.74426  0.39327  0.94576  1.0000
  H   H925      1.0  0.75298  0.50949  0.88807  1.0000
  C   C1158     1.0  0.87795  0.35347  0.90454  1.0000
  H   H926      1.0  0.79353  0.49597  0.87185  1.0000
  C   C1159     1.0  0.79614  0.34085  0.85374  1.0000
  C   C1160     1.0  0.83737  0.49831  0.57651  1.0000
  H   H927      1.0  0.78126  0.34761  0.56264  1.0000
  C   C1161     1.0  0.90279  0.36880  0.96548  1.0000
  H   H928      1.0  0.64928  0.56067  0.52655  1.0000
  C   C1162     1.0  0.87082  0.47080  0.57440  1.0000
  H   H929      1.0  0.86768  0.34700  0.88212  1.0000
  H   H930      1.0  0.81265  0.64741  0.78109  1.0000
  C   C1163     1.0  0.85619  0.45272  0.56339  1.0000
  H   H931      1.0  0.64525  0.33066  0.74167  1.0000
  H   H932      1.0  0.91224  0.37408  0.98966  1.0000
  C   C1164     1.0  0.72459  0.32128  0.57704  1.0000
  C   C1165     1.0  0.74342  0.32545  0.97512  1.0000
  C   C1166     1.0  0.90218  0.34817  0.90701  1.0000
  C   C1167     1.0  0.74737  0.38493  0.51010  1.0000
  C   C1168     1.0  0.59616  0.63161  0.56008  1.0000
  H   H933      1.0  0.88639  0.37075  0.73316  1.0000
  C   C1169     1.0  0.63619  0.63756  0.60273  1.0000
  C   C1170     1.0  0.65318  0.32849  0.98481  1.0000
  H   H934      1.0  0.58047  0.62939  0.54391  1.0000
  H   H935      1.0  0.87868  0.61857  0.93585  1.0000
  C   C1171     1.0  0.78503  0.64748  0.82156  1.0000
  C   C1172     1.0  0.78030  0.34762  0.50323  1.0000
  H   H936      1.0  0.93974  0.36373  0.81531  1.0000
  P   P40       1.0  0.91753  0.33223  0.87056  1.0000
  C   C1173     1.0  0.86833  0.61662  0.96067  1.0000
  H   H937      1.0  0.76184  0.64959  0.86850  1.0000
  H   H938      1.0  0.74164  0.34459  0.97393  1.0000
  C   C1174     1.0  0.71592  0.64949  0.51477  1.0000
  H   H939      1.0  0.92572  0.38051  0.75679  1.0000
  C   C1175     1.0  0.91458  0.36893  0.77251  1.0000
  C   C1176     1.0  0.87821  0.34830  0.77915  1.0000
  H   H940      1.0  0.87477  0.32692  0.82752  1.0000
  C   C1177     1.0  0.69314  0.64959  0.52917  1.0000
  H   H941      1.0  0.74877  0.33056  0.81050  1.0000
  H   H942      1.0  0.81192  0.62306  0.99095  1.0000
  C   C1178     1.0  0.61467  0.57206  0.50837  1.0000
  H   H943      1.0  0.70625  0.32412  0.67240  1.0000
  H   H944      1.0  0.71268  0.32195  0.77660  1.0000
  H   H945      1.0  0.79883  0.65265  0.50722  1.0000
  H   H946      1.0  0.86983  0.38461  0.98354  1.0000
  H   H947      1.0  0.60579  0.55799  0.52268  1.0000
  C   C1179     1.0  0.81456  0.41377  0.99024  1.0000
  C   C1180     1.0  0.87935  0.61121  0.99408  1.0000
  S   S158      1.0  0.86438  0.32320  0.99589  1.0000
  H   H948      1.0  0.89831  0.60900  0.99478  1.0000
  Fe  Fe81      1.0  0.83661  0.68043  0.04296  1.0000
  S   S159      1.0  0.84995  0.71631  0.05656  1.0000
  H   H949      1.0  0.59379  0.71075  0.41603  1.0000
  Fe  Fe82      1.0  0.66726  0.85513  0.03035  1.0000
  S   S160      1.0  0.65762  0.82921  0.07641  1.0000
  S   S161      1.0  0.69621  0.88130  0.02429  1.0000
  Fe  Fe83      1.0  0.61647  0.74802  0.30635  1.0000
  S   S162      1.0  0.63410  0.77993  0.32870  1.0000
  S   S163      1.0  0.63334  0.71227  0.29258  1.0000
  Fe  Fe84      1.0  0.56974  0.77490  0.29321  1.0000
  S   S164      1.0  0.58390  0.80889  0.31437  1.0000
  S   S165      1.0  0.53475  0.76931  0.26477  1.0000
  Fe  Fe85      1.0  0.61674  0.79992  0.28169  1.0000
  S   S166      1.0  0.63588  0.82835  0.24886  1.0000
  Fe  Fe86      1.0  0.60000  0.78615  0.35972  1.0000
  S   S167      1.0  0.59801  0.80124  0.41787  1.0000
  S   S168      1.0  0.60152  0.76758  0.25755  1.0000
  S   S169      1.0  0.58356  0.75264  0.34043  1.0000
  C   C1181     1.0  0.50711  0.77771  0.28418  1.0000
  H   H950      1.0  0.52071  0.80252  0.32258  1.0000
  C   C1182     1.0  0.68742  0.70314  0.36417  1.0000
  C   C1183     1.0  0.74899  0.86214  0.06286  1.0000
  H   H951      1.0  0.75957  0.75941  0.11944  1.0000
  C   C1184     1.0  0.67126  0.68187  0.30062  1.0000
  C   C1185     1.0  0.65889  0.70162  0.31504  1.0000
  C   C1186     1.0  0.66717  0.71244  0.34664  1.0000
  H   H952      1.0  0.76974  0.71089  0.04796  1.0000
  H   H953      1.0  0.74725  0.89994  0.07020  1.0000
  H   H954      1.0  0.66314  0.82649  0.43575  1.0000
  H   H955      1.0  0.65771  0.72767  0.35791  1.0000
  C   C1187     1.0  0.74713  0.88122  0.12207  1.0000
  H   H956      1.0  0.49770  0.87979  0.22437  1.0000
  C   C1188     1.0  0.59808  0.78611  0.46085  1.0000
  C   C1189     1.0  0.60329  0.76179  0.46380  1.0000
  H   H957      1.0  0.49044  0.73636  0.12854  1.0000
  H   H958      1.0  0.60651  0.75155  0.43923  1.0000
  C   C1190     1.0  0.72495  0.67939  0.21889  1.0000
  C   C1191     1.0  0.75269  0.67849  0.03460  1.0000
  C   C1192     1.0  0.65185  0.82980  0.12442  1.0000
  C   C1193     1.0  0.65478  0.84995  0.14584  1.0000
  C   C1194     1.0  0.64986  0.84923  0.18388  1.0000
  C   C1195     1.0  0.64151  0.82857  0.20075  1.0000
  C   C1196     1.0  0.63845  0.80855  0.17919  1.0000
  C   C1197     1.0  0.64405  0.80903  0.14150  1.0000
  H   H959      1.0  0.66090  0.86603  0.13316  1.0000
  H   H960      1.0  0.65233  0.86484  0.20029  1.0000
  H   H961      1.0  0.63176  0.79270  0.19162  1.0000
  H   H962      1.0  0.64203  0.79324  0.12539  1.0000
  H   H963      1.0  0.76138  0.78346  0.20836  1.0000
  H   H964      1.0  0.82425  0.77993  0.08236  1.0000
  H   H965      1.0  0.49099  0.78017  0.13293  1.0000
  H   H966      1.0  0.75051  0.82417  0.06356  1.0000
  H   H967      1.0  0.70844  0.83405  0.17011  1.0000
  C   C1198     1.0  0.60514  0.69526  0.42101  1.0000
  C   C1199     1.0  0.65873  0.77249  0.47649  1.0000
  S   S170      1.0  0.79561  0.75500  0.02563  1.0000
  H   H968      1.0  0.71380  0.79629  0.46561  1.0000
  H   H969      1.0  0.73535  0.73029  0.08895  1.0000
  H   H970      1.0  0.75461  0.72156  0.35762  1.0000
  H   H971      1.0  0.78190  0.78967  0.08359  1.0000
  H   H972      1.0  0.70387  0.81245  0.10668  1.0000
  H   H973      1.0  0.79453  0.70259  0.35457  1.0000
  C   C1200     1.0  0.74770  0.88278  0.08378  1.0000
  C   C1201     1.0  0.54869  0.74409  0.11230  1.0000
  H   H974      1.0  0.75365  0.80582  0.44317  1.0000
  H   H975      1.0  0.77214  0.68002  0.40491  1.0000
  C   C1202     1.0  0.82817  0.66489  0.15555  1.0000
  H   H976      1.0  0.66749  0.69348  0.45020  1.0000
  H   H977      1.0  0.70581  0.80742  0.28039  1.0000
  H   H978      1.0  0.69509  0.74168  0.06797  1.0000
  H   H979      1.0  0.68927  0.83294  0.23090  1.0000
  H   H980      1.0  0.93037  0.68987  0.08904  1.0000
  S   S171      1.0  0.72402  0.67117  0.37387  1.0000
  C   C1203     1.0  0.78707  0.66442  0.45393  1.0000
  C   C1204     1.0  0.69197  0.67313  0.31737  1.0000
  C   C1205     1.0  0.81989  0.80232  0.16874  1.0000
  H   H981      1.0  0.65472  0.78494  0.42077  1.0000
  H   H982      1.0  0.58968  0.81796  0.49114  1.0000
  C   C1206     1.0  0.75089  0.78930  0.45771  1.0000
  H   H983      1.0  0.66173  0.96385  0.09357  1.0000
  C   C1207     1.0  0.74829  0.83820  0.11845  1.0000
  C   C1208     1.0  0.98245  0.68551  0.00526  1.0000
  H   H984      1.0  0.52659  0.84618  0.22994  1.0000
  C   C1209     1.0  0.96537  0.72953  0.02930  1.0000
  C   C1210     1.0  0.72846  0.78398  0.47047  1.0000
  C   C1211     1.0  0.50509  0.79467  0.31186  1.0000
  H   H985      1.0  0.74794  0.85816  0.16909  1.0000
  C   C1212     1.0  0.48274  0.80187  0.32525  1.0000
  H   H986      1.0  0.80942  0.68592  0.29590  1.0000
  S   S172      1.0  0.81283  0.69403  0.99784  1.0000
  C   C1213     1.0  0.83016  0.79205  0.13748  1.0000
  C   C1214     1.0  0.69978  0.68338  0.34969  1.0000
  H   H987      1.0  0.69344  0.71119  0.38911  1.0000
  C   C1215     1.0  0.65836  0.97098  0.15156  1.0000
  H   H988      1.0  0.67942  0.78275  0.07762  1.0000
  H   H989      1.0  0.83768  0.66986  0.21226  1.0000
  H   H990      1.0  0.64332  0.65865  0.37556  1.0000
  C   C1216     1.0  0.50919  0.84326  0.21930  1.0000
  C   C1217     1.0  0.74922  0.83995  0.08011  1.0000
  H   H991      1.0  0.84109  0.67686  0.14499  1.0000
  Fe  Fe87      1.0  0.82660  0.72985  0.01051  1.0000
  H   H992      1.0  0.74187  0.78255  0.26898  1.0000
  C   C1218     1.0  0.76970  0.77320  0.46337  1.0000
  H   H993      1.0  0.56464  0.73369  0.10703  1.0000
  C   C1219     1.0  0.60613  0.68480  0.45583  1.0000
  C   C1220     1.0  0.78105  0.77920  0.00272  1.0000
  C   C1221     1.0  0.56855  0.81738  0.21050  1.0000
  C   C1222     1.0  0.57922  0.83901  0.20456  1.0000
  C   C1223     1.0  0.58814  0.84453  0.16987  1.0000
  C   C1224     1.0  0.58689  0.82823  0.14127  1.0000
  C   C1225     1.0  0.57644  0.80628  0.14710  1.0000
  C   C1226     1.0  0.56708  0.80112  0.18196  1.0000
  P   P41       1.0  0.57659  0.78398  0.11160  1.0000
  C   C1227     1.0  0.54918  0.76885  0.11524  1.0000
  C   C1228     1.0  0.57942  0.79761  0.06664  1.0000
  C   C1229     1.0  0.56023  0.79979  0.04260  1.0000
  C   C1230     1.0  0.74833  0.71506  0.99985  1.0000
  H   H994      1.0  0.74979  0.86333  0.03317  1.0000
  C   C1231     1.0  0.89714  0.67290  0.09421  1.0000
  C   C1232     1.0  0.60128  0.80590  0.05518  1.0000
  H   H995      1.0  0.61775  0.69370  0.36529  1.0000
  H   H996      1.0  0.78821  0.81631  0.19364  1.0000
  H   H997      1.0  0.95904  0.74673  0.03866  1.0000
  H   H998      1.0  0.70174  0.65837  0.30543  1.0000
  C   C1233     1.0  0.52818  0.78182  0.12235  1.0000
  C   C1234     1.0  0.60103  0.76325  0.11974  1.0000
  C   C1235     1.0  0.60696  0.75643  0.15572  1.0000
  C   C1236     1.0  0.62649  0.74139  0.16244  1.0000
  C   C1237     1.0  0.64009  0.73273  0.13320  1.0000
  C   C1238     1.0  0.63389  0.73873  0.09717  1.0000
  C   C1239     1.0  0.61431  0.75373  0.09040  1.0000
  H   H999      1.0  0.56185  0.81291  0.23750  1.0000
  H   H1000     1.0  0.58119  0.85119  0.22712  1.0000
  H   H1001     1.0  0.59699  0.86104  0.16554  1.0000
  H   H1002     1.0  0.59477  0.83269  0.11519  1.0000
  H   H1003     1.0  0.55915  0.78425  0.18761  1.0000
  H   H1004     1.0  0.54316  0.79356  0.05050  1.0000
  C   C1240     1.0  0.72483  0.76262  0.48901  1.0000
  C   C1241     1.0  0.79570  0.80760  0.16974  1.0000
  C   C1242     1.0  0.66374  0.81310  0.45722  1.0000
  H   H1005     1.0  0.61626  0.80440  0.07319  1.0000
  C   C1243     1.0  0.65905  0.78964  0.44870  1.0000
  H   H1006     1.0  0.74640  0.89726  0.13824  1.0000
  H   H1007     1.0  0.66499  0.67355  0.27605  1.0000
  H   H1008     1.0  0.52823  0.80093  0.12498  1.0000
  H   H1009     1.0  0.59673  0.76288  0.17877  1.0000
  H   H1010     1.0  0.63108  0.73658  0.19047  1.0000
  H   H1011     1.0  0.65533  0.72125  0.13853  1.0000
  H   H1012     1.0  0.64428  0.73182  0.07444  1.0000
  H   H1013     1.0  0.60974  0.75798  0.06227  1.0000
  C   C1244     1.0  0.69477  0.76461  0.19643  1.0000
  C   C1245     1.0  0.67838  0.76546  0.22508  1.0000
  C   C1246     1.0  0.67974  0.74866  0.25324  1.0000
  C   C1247     1.0  0.69773  0.73125  0.25319  1.0000
  C   C1248     1.0  0.71512  0.73099  0.22576  1.0000
  C   C1249     1.0  0.71316  0.74752  0.19684  1.0000
  P   P42       1.0  0.73801  0.70788  0.22542  1.0000
  C   C1250     1.0  0.75864  0.71326  0.18852  1.0000
  C   C1251     1.0  0.75560  0.70673  0.26691  1.0000
  C   C1252     1.0  0.74745  0.71639  0.30030  1.0000
  C   C1253     1.0  0.76141  0.71486  0.33176  1.0000
  C   C1254     1.0  0.78381  0.70409  0.33015  1.0000
  C   C1255     1.0  0.79222  0.69474  0.29711  1.0000
  C   C1256     1.0  0.77822  0.69597  0.26575  1.0000
  C   C1257     1.0  0.75962  0.69888  0.15721  1.0000
  C   C1258     1.0  0.77677  0.70240  0.13026  1.0000
  C   C1259     1.0  0.79280  0.72043  0.13396  1.0000
  C   C1260     1.0  0.79182  0.73494  0.16485  1.0000
  C   C1261     1.0  0.77482  0.73138  0.19205  1.0000
  H   H1014     1.0  0.70983  0.69806  0.45660  1.0000
  H   H1015     1.0  0.72749  0.80878  0.00463  1.0000
  C   C1262     1.0  0.50706  0.77013  0.12689  1.0000
  H   H1016     1.0  0.75778  0.65924  0.22484  1.0000
  C   C1263     1.0  0.92112  0.67349  0.08611  1.0000
  H   H1017     1.0  0.65486  0.98364  0.20700  1.0000
  H   H1018     1.0  0.69334  0.77745  0.17425  1.0000
  H   H1019     1.0  0.66460  0.77911  0.22562  1.0000
  H   H1020     1.0  0.66662  0.74893  0.27489  1.0000
  H   H1021     1.0  0.69771  0.71767  0.27417  1.0000
  H   H1022     1.0  0.72569  0.74725  0.17456  1.0000
  H   H1023     1.0  0.73041  0.72495  0.30285  1.0000
  H   H1024     1.0  0.78079  0.73924  0.48513  1.0000
  C   C1264     1.0  0.67437  0.70017  0.47566  1.0000
  C   C1265     1.0  0.70079  0.67773  0.21172  1.0000
  H   H1025     1.0  0.78519  0.68829  0.24063  1.0000
  H   H1026     1.0  0.74766  0.68456  0.15381  1.0000
  H   H1027     1.0  0.77818  0.69066  0.10696  1.0000
  H   H1028     1.0  0.80616  0.72291  0.11302  1.0000
  H   H1029     1.0  0.80449  0.74870  0.16788  1.0000
  H   H1030     1.0  0.77468  0.74230  0.21634  1.0000
  H   H1031     1.0  0.68928  0.69331  0.21056  1.0000
  H   H1032     1.0  0.76081  0.66838  0.05684  1.0000
  C   C1266     1.0  0.74773  0.85900  0.13943  1.0000
  C   C1267     1.0  0.61867  0.68564  0.39240  1.0000
  Fe  Fe88      1.0  0.87865  0.70933  0.01357  1.0000
  C   C1268     1.0  0.70542  0.82267  0.22613  1.0000
  C   C1269     1.0  0.71476  0.80824  0.25409  1.0000
  C   C1270     1.0  0.73508  0.79431  0.24764  1.0000
  C   C1271     1.0  0.74620  0.79500  0.21332  1.0000
  C   C1272     1.0  0.73736  0.81004  0.18543  1.0000
  C   C1273     1.0  0.71647  0.82337  0.19179  1.0000
  P   P43       1.0  0.75037  0.80941  0.14009  1.0000
  C   C1274     1.0  0.78152  0.80212  0.13973  1.0000
  C   C1275     1.0  0.73375  0.78830  0.11481  1.0000
  C   C1276     1.0  0.74233  0.76492  0.10986  1.0000
  C   C1277     1.0  0.72849  0.74821  0.09286  1.0000
  C   C1278     1.0  0.70584  0.75462  0.08110  1.0000
  C   C1279     1.0  0.69708  0.77775  0.08629  1.0000
  C   C1280     1.0  0.71101  0.79459  0.10281  1.0000
  H   H1033     1.0  0.51525  0.80563  0.21339  1.0000
  C   C1281     1.0  0.75737  0.69610  0.45340  1.0000
  H   H1034     1.0  0.52730  0.71330  0.11528  1.0000
  C   C1282     1.0  0.81630  0.78742  0.10701  1.0000
  C   C1283     1.0  0.79217  0.79274  0.10793  1.0000
  S   S173      1.0  0.81626  0.65622  0.08242  1.0000
  C   C1284     1.0  0.94888  0.71258  0.01932  1.0000
  C   C1285     1.0  0.52752  0.73245  0.11692  1.0000
  S   S174      1.0  0.86644  0.67232  0.00271  1.0000
  C   C1286     1.0  0.76606  0.75167  0.48144  1.0000
  C   C1287     1.0  0.63327  0.66560  0.39850  1.0000
  S   S175      1.0  0.91769  0.72032  0.02212  1.0000
  C   C1288     1.0  0.50282  0.82042  0.20982  1.0000
  C   C1289     1.0  0.77223  0.68017  0.43459  1.0000
  H   H1035     1.0  0.65443  0.75445  0.46994  1.0000
  H   H1036     1.0  0.74651  0.70850  0.43765  1.0000
  C   C1290     1.0  0.56301  0.81010  0.00779  1.0000
  H   H1037     1.0  0.68407  0.78211  0.00988  1.0000
  C   C1291     1.0  0.75766  0.70238  0.02971  1.0000
  H   H1038     1.0  0.66276  0.95288  0.15972  1.0000
  C   C1292     1.0  0.81385  0.65298  0.13114  1.0000
  H   H1039     1.0  0.48799  0.75466  0.24900  1.0000
  H   H1040     1.0  0.83078  0.80650  0.19196  1.0000
  C   C1293     1.0  0.74559  0.80483  0.99710  1.0000
  H   H1041     1.0  0.84891  0.78807  0.13652  1.0000
  H   H1042     1.0  0.88786  0.68882  0.10347  1.0000
  C   C1294     1.0  0.75738  0.78453  0.01157  1.0000
  C   C1295     1.0  0.73913  0.65858  0.21953  1.0000
  C   C1296     1.0  0.69103  0.65563  0.20602  1.0000
  C   C1297     1.0  0.62084  0.66485  0.46213  1.0000
  C   C1298     1.0  0.49288  0.86218  0.21619  1.0000
  C   C1299     1.0  0.60401  0.81621  0.02051  1.0000
  H   H1043     1.0  0.74820  0.77312  0.03030  1.0000
  H   H1044     1.0  0.59548  0.69226  0.47791  1.0000
  C   C1300     1.0  0.73800  0.66741  0.00987  1.0000
  H   H1045     1.0  0.67233  0.65447  0.20125  1.0000
  C   C1301     1.0  0.50674  0.74545  0.12436  1.0000
  H   H1046     1.0  0.78709  0.77726  0.45332  1.0000
  C   C1302     1.0  0.69856  0.70292  0.47942  1.0000
  C   C1303     1.0  0.48658  0.76782  0.27038  1.0000
  C   C1304     1.0  0.59390  0.79918  0.49314  1.0000
  C   C1305     1.0  0.82614  0.66091  0.19378  1.0000
  C   C1306     1.0  0.65770  0.97710  0.11435  1.0000
  C   C1307     1.0  0.63453  0.65500  0.43352  1.0000
  H   H1047     1.0  0.62139  0.65703  0.48926  1.0000
  C   C1308     1.0  0.93300  0.65321  0.07302  1.0000
  C   C1309     1.0  0.95777  0.69043  0.00730  1.0000
  H   H1048     1.0  0.94562  0.67712  0.99918  1.0000
  H   H1049     1.0  0.95149  0.65395  0.06595  1.0000
  H   H1050     1.0  0.62098  0.82276  0.01216  1.0000
  C   C1310     1.0  0.78702  0.66463  0.49223  1.0000
  C   C1311     1.0  0.74353  0.74613  0.49414  1.0000
  C   C1312     1.0  0.66827  0.81939  0.49351  1.0000
  C   C1313     1.0  0.75678  0.69607  0.49194  1.0000
  Fe  Fe89      1.0  0.84306  0.68925  0.95908  1.0000
  S   S176      1.0  0.85596  0.72619  0.96859  1.0000
  H   H1051     1.0  0.74254  0.88055  0.57212  1.0000
  C   C1314     1.0  0.72856  0.69426  0.86892  1.0000
  C   C1315     1.0  0.74741  0.76057  0.91030  1.0000
  H   H1052     1.0  0.71792  0.67081  0.96068  1.0000
  S   S177      1.0  0.69813  0.66076  0.64358  1.0000
  H   H1053     1.0  0.77313  0.70568  0.92290  1.0000
  H   H1054     1.0  0.58718  0.82635  0.96985  1.0000
  H   H1055     1.0  0.73080  0.77035  0.91239  1.0000
  C   C1316     1.0  0.78113  0.81503  0.96503  1.0000
  H   H1056     1.0  0.72522  0.68987  0.58091  1.0000
  C   C1317     1.0  0.98179  0.74153  0.92154  1.0000
  C   C1318     1.0  0.66356  0.76192  0.92896  1.0000
  Fe  Fe90      1.0  0.65595  0.85623  0.94657  1.0000
  S   S178      1.0  0.63177  0.83322  0.91169  1.0000
  S   S179      1.0  0.68400  0.88286  0.93497  1.0000
  Fe  Fe91      1.0  0.59512  0.76132  0.63145  1.0000
  S   S180      1.0  0.56923  0.73574  0.65411  1.0000
  S   S181      1.0  0.60804  0.75041  0.57404  1.0000
  Fe  Fe92      1.0  0.59897  0.78658  0.70805  1.0000
  S   S182      1.0  0.57291  0.76259  0.73425  1.0000
  S   S183      1.0  0.61999  0.81424  0.73904  1.0000
  Fe  Fe93      1.0  0.59266  0.73359  0.70341  1.0000
  S   S184      1.0  0.60777  0.69991  0.72895  1.0000
  Fe  Fe94      1.0  0.55206  0.76724  0.68189  1.0000
  S   S185      1.0  0.51374  0.77909  0.67429  1.0000
  S   S186      1.0  0.61950  0.75735  0.67977  1.0000
  S   S187      1.0  0.57702  0.79331  0.65695  1.0000
  C   C1319     1.0  0.60196  0.76421  0.53099  1.0000
  C   C1320     1.0  0.59552  0.78823  0.52801  1.0000
  S   S188      1.0  0.84169  0.67574  0.89966  1.0000
  H   H1057     1.0  0.59247  0.79848  0.55260  1.0000
  C   C1321     1.0  0.70027  0.74121  0.94522  1.0000
  H   H1058     1.0  0.94863  0.75174  0.94681  1.0000
  S   S189      1.0  0.67969  0.83355  0.98205  1.0000
  H   H1059     1.0  0.50335  0.73254  0.70612  1.0000
  H   H1060     1.0  0.64932  0.76531  0.90977  1.0000
  H   H1061     1.0  0.51246  0.77356  0.87409  1.0000
  C   C1322     1.0  0.63781  0.69645  0.66973  1.0000
  C   C1323     1.0  0.63377  0.69011  0.70633  1.0000
  C   C1324     1.0  0.65037  0.67544  0.72460  1.0000
  C   C1325     1.0  0.79278  0.79439  0.97887  1.0000
  H   H1062     1.0  0.52240  0.74106  0.60872  1.0000
  H   H1063     1.0  0.62503  0.70753  0.65522  1.0000
  C   C1326     1.0  0.77937  0.65271  0.85843  1.0000
  H   H1064     1.0  0.79171  0.66509  0.91096  1.0000
  H   H1065     1.0  0.71148  0.83299  0.90444  1.0000
  C   C1327     1.0  0.70771  0.71184  0.51213  1.0000
  H   H1066     1.0  0.53211  0.78530  0.51386  1.0000
  C   C1328     1.0  0.62981  0.82753  0.86355  1.0000
  C   C1329     1.0  0.61530  0.80937  0.85150  1.0000
  C   C1330     1.0  0.61241  0.80475  0.81371  1.0000
  C   C1331     1.0  0.62377  0.81846  0.78727  1.0000
  C   C1332     1.0  0.63849  0.83642  0.79933  1.0000
  C   C1333     1.0  0.64166  0.84081  0.83712  1.0000
  H   H1067     1.0  0.60605  0.79893  0.87157  1.0000
  H   H1068     1.0  0.60105  0.79086  0.80506  1.0000
  H   H1069     1.0  0.64737  0.84722  0.77929  1.0000
  H   H1070     1.0  0.65287  0.85483  0.84578  1.0000
  H   H1071     1.0  0.56645  0.82918  0.81548  1.0000
  C   C1334     1.0  0.69209  0.71824  0.54066  1.0000
  P   P44       1.0  0.73870  0.71786  0.51610  1.0000
  C   C1335     1.0  0.72106  0.67818  0.84278  1.0000
  C   C1336     1.0  0.79629  0.66153  0.88266  1.0000
  H   H1072     1.0  0.64749  0.67069  0.75303  1.0000
  H   H1073     1.0  0.74353  0.82882  0.85870  1.0000
  H   H1074     1.0  0.77220  0.67973  0.54091  1.0000
  H   H1075     1.0  0.68105  0.73626  0.89474  1.0000
  H   H1076     1.0  0.93073  0.71307  0.93641  1.0000
  C   C1337     1.0  0.81924  0.66523  0.87035  1.0000
  Fe  Fe95      1.0  0.67150  0.90232  0.98645  1.0000
  C   C1338     1.0  0.65915  0.70599  0.50463  1.0000
  C   C1339     1.0  0.73370  0.70408  0.97463  1.0000
  H   H1077     1.0  0.80502  0.77067  0.89216  1.0000
  H   H1078     1.0  0.53591  0.82526  0.70824  1.0000
  H   H1079     1.0  0.56918  0.83574  0.74841  1.0000
  H   H1080     1.0  0.73962  0.68854  0.64428  1.0000
  C   C1340     1.0  0.65810  0.68796  0.65143  1.0000
  C   C1341     1.0  0.79123  0.73669  0.90628  1.0000
  C   C1342     1.0  0.74916  0.73619  0.91824  1.0000
  C   C1343     1.0  0.62565  0.65698  0.58443  1.0000
  C   C1344     1.0  0.48591  0.72067  0.82149  1.0000
  P   P45       1.0  0.48833  0.79279  0.80914  1.0000
  H   H1081     1.0  0.66114  0.69301  0.62317  1.0000
  C   C1345     1.0  0.68159  0.74537  0.92066  1.0000
  C   C1346     1.0  0.60541  0.75099  0.49872  1.0000
  C   C1347     1.0  0.74789  0.71816  0.56355  1.0000
  C   C1348     1.0  0.76603  0.73279  0.57469  1.0000
  C   C1349     1.0  0.77457  0.73139  0.61063  1.0000
  C   C1350     1.0  0.76498  0.71553  0.63576  1.0000
  C   C1351     1.0  0.74691  0.70101  0.62493  1.0000
  C   C1352     1.0  0.73859  0.70204  0.58892  1.0000
  C   C1353     1.0  0.48735  0.76545  0.68772  1.0000
  H   H1082     1.0  0.95358  0.68087  0.90523  1.0000
  H   H1083     1.0  0.74550  0.70200  0.86515  1.0000
  C   C1354     1.0  0.78939  0.76097  0.89869  1.0000
  C   C1355     1.0  0.66432  0.77492  0.96134  1.0000
  H   H1084     1.0  0.59705  0.66931  0.55017  1.0000
  C   C1356     1.0  0.51804  0.72839  0.77985  1.0000
  C   C1357     1.0  0.69256  0.97998  0.97793  1.0000
  H   H1085     1.0  0.77403  0.74488  0.55558  1.0000
  H   H1086     1.0  0.78890  0.74234  0.61888  1.0000
  H   H1087     1.0  0.77177  0.71416  0.66348  1.0000
  C   C1358     1.0  0.52050  0.77626  0.53263  1.0000
  H   H1088     1.0  0.65601  0.72005  0.55924  1.0000
  C   C1359     1.0  0.63609  0.74682  0.77875  1.0000
  C   C1360     1.0  0.63556  0.72673  0.80121  1.0000
  C   C1361     1.0  0.65588  0.71874  0.81928  1.0000
  C   C1362     1.0  0.67675  0.73088  0.81495  1.0000
  C   C1363     1.0  0.67750  0.75099  0.79205  1.0000
  C   C1364     1.0  0.65693  0.75890  0.77402  1.0000
  P   P46       1.0  0.70458  0.76674  0.78811  1.0000
  C   C1365     1.0  0.72799  0.74431  0.78519  1.0000
  C   C1366     1.0  0.70454  0.78580  0.74803  1.0000
  C   C1367     1.0  0.68920  0.80578  0.74677  1.0000
  C   C1368     1.0  0.68908  0.82101  0.71638  1.0000
  C   C1369     1.0  0.70496  0.81698  0.68759  1.0000
  C   C1370     1.0  0.72090  0.79765  0.68920  1.0000
  C   C1371     1.0  0.72057  0.78194  0.71908  1.0000
  C   C1372     1.0  0.72580  0.72538  0.76066  1.0000
  C   C1373     1.0  0.74315  0.70729  0.75891  1.0000
  C   C1374     1.0  0.76285  0.70795  0.78155  1.0000
  C   C1375     1.0  0.76518  0.72667  0.80602  1.0000
  C   C1376     1.0  0.74775  0.74469  0.80812  1.0000
  C   C1377     1.0  0.70738  0.78652  0.82651  1.0000
  C   C1378     1.0  0.68913  0.78935  0.85238  1.0000
  C   C1379     1.0  0.69078  0.80594  0.88049  1.0000
  C   C1380     1.0  0.71045  0.81995  0.88286  1.0000
  C   C1381     1.0  0.72849  0.81757  0.85693  1.0000
  C   C1382     1.0  0.72689  0.80108  0.82863  1.0000
  H   H1089     1.0  0.62035  0.75292  0.76462  1.0000
  H   H1090     1.0  0.61941  0.71717  0.80403  1.0000
  H   H1091     1.0  0.65543  0.70302  0.83635  1.0000
  H   H1092     1.0  0.69235  0.72449  0.82921  1.0000
  H   H1093     1.0  0.65663  0.77421  0.75612  1.0000
  H   H1094     1.0  0.67713  0.80951  0.76925  1.0000
  H   H1095     1.0  0.67667  0.83599  0.71547  1.0000
  H   H1096     1.0  0.70507  0.82898  0.66429  1.0000
  H   H1097     1.0  0.73360  0.79489  0.66732  1.0000
  H   H1098     1.0  0.73308  0.76712  0.71969  1.0000
  H   H1099     1.0  0.71046  0.72440  0.74327  1.0000
  H   H1100     1.0  0.74116  0.69244  0.74054  1.0000
  H   H1101     1.0  0.77608  0.69366  0.78062  1.0000
  H   H1102     1.0  0.78031  0.72688  0.82398  1.0000
  H   H1103     1.0  0.74971  0.75853  0.82804  1.0000
  H   H1104     1.0  0.67328  0.77938  0.85046  1.0000
  H   H1105     1.0  0.67655  0.80841  0.90006  1.0000
  H   H1106     1.0  0.53225  0.72198  0.76224  1.0000
  H   H1107     1.0  0.66905  0.66348  0.88146  1.0000
  H   H1108     1.0  0.74071  0.79994  0.80813  1.0000
  C   C1383     1.0  0.67420  0.67257  0.66915  1.0000
  C   C1384     1.0  0.60735  0.84371  0.57902  1.0000
  C   C1385     1.0  0.60413  0.84456  0.61700  1.0000
  C   C1386     1.0  0.62135  0.83483  0.64025  1.0000
  C   C1387     1.0  0.64170  0.82396  0.62565  1.0000
  C   C1388     1.0  0.64507  0.82297  0.58745  1.0000
  C   C1389     1.0  0.62780  0.83311  0.56426  1.0000
  P   P47       1.0  0.67231  0.81080  0.56876  1.0000
  H   H1109     1.0  0.69421  0.65439  0.82706  1.0000
  C   C1390     1.0  0.69447  0.83303  0.56998  1.0000
  C   C1391     1.0  0.71453  0.83071  0.54753  1.0000
  C   C1392     1.0  0.69964  0.66714  0.84721  1.0000
  C   C1393     1.0  0.72919  0.86727  0.57156  1.0000
  C   C1394     1.0  0.70928  0.86975  0.59396  1.0000
  C   C1395     1.0  0.69196  0.85273  0.59320  1.0000
  C   C1396     1.0  0.82485  0.66009  0.83348  1.0000
  C   C1397     1.0  0.67006  0.97335  0.98921  1.0000
  H   H1110     1.0  0.67141  0.83776  0.49970  1.0000
  C   C1398     1.0  0.68180  0.78493  0.59502  1.0000
  C   C1399     1.0  0.66508  0.76975  0.60974  1.0000
  C   C1400     1.0  0.67220  0.74960  0.62979  1.0000
  C   C1401     1.0  0.69600  0.74452  0.63578  1.0000
  C   C1402     1.0  0.71279  0.75942  0.62100  1.0000
  C   C1403     1.0  0.70578  0.77947  0.60050  1.0000
  H   H1111     1.0  0.59388  0.85104  0.56094  1.0000
  H   H1112     1.0  0.58820  0.85260  0.62847  1.0000
  H   H1113     1.0  0.61879  0.83558  0.66968  1.0000
  H   H1114     1.0  0.65478  0.81648  0.64425  1.0000
  H   H1115     1.0  0.62974  0.83263  0.53475  1.0000
  C   C1404     1.0  0.73182  0.84775  0.54835  1.0000
  C   C1405     1.0  0.53186  0.81462  0.81335  1.0000
  H   H1116     1.0  0.74724  0.84589  0.53093  1.0000
  H   H1117     1.0  0.70718  0.88497  0.61182  1.0000
  H   H1118     1.0  0.67667  0.85516  0.61068  1.0000
  C   C1406     1.0  0.69283  0.68859  0.90382  1.0000
  C   C1407     1.0  0.53000  0.76232  0.56106  1.0000
  H   H1119     1.0  0.64649  0.77342  0.60562  1.0000
  H   H1120     1.0  0.65918  0.73790  0.64072  1.0000
  H   H1121     1.0  0.70135  0.72887  0.65149  1.0000
  H   H1122     1.0  0.73123  0.75549  0.62566  1.0000
  H   H1123     1.0  0.71914  0.79065  0.58935  1.0000
  H   H1124     1.0  0.80826  0.72745  0.90536  1.0000
  C   C1408     1.0  0.67048  0.66650  0.70597  1.0000
  P   P48       1.0  0.72395  0.72023  0.93408  1.0000
  H   H1125     1.0  0.50808  0.69348  0.79674  1.0000
  C   C1409     1.0  0.51455  0.81290  0.75292  1.0000
  H   H1126     1.0  0.73216  0.67383  0.81938  1.0000
  C   C1410     1.0  0.94852  0.71600  0.92691  1.0000
  H   H1127     1.0  0.66078  0.76554  0.53418  1.0000
  H   H1128     1.0  0.63273  0.67446  0.58718  1.0000
  C   C1411     1.0  0.49446  0.76129  0.80460  1.0000
  C   C1412     1.0  0.55186  0.82470  0.79809  1.0000
  C   C1413     1.0  0.55337  0.82855  0.76026  1.0000
  C   C1414     1.0  0.53466  0.82274  0.73771  1.0000
  C   C1415     1.0  0.66250  0.77885  0.51295  1.0000
  C   C1416     1.0  0.50443  0.71235  0.79926  1.0000
  H   H1129     1.0  0.52328  0.76469  0.76586  1.0000
  C   C1417     1.0  0.95866  0.73784  0.93284  1.0000
  C   C1418     1.0  0.66798  0.71502  0.53711  1.0000
  C   C1419     1.0  0.49608  0.77897  0.52893  1.0000
  C   C1420     1.0  0.49942  0.78668  0.88315  1.0000
  C   C1421     1.0  0.77124  0.72437  0.91618  1.0000
  C   C1422     1.0  0.51509  0.75111  0.58580  1.0000
  H   H1130     1.0  0.69841  0.72608  0.56548  1.0000
  C   C1423     1.0  0.76751  0.77287  0.90066  1.0000
  H   H1131     1.0  0.76625  0.79185  0.89593  1.0000
  S   S190      1.0  0.74412  0.84756  0.95844  1.0000
  C   C1424     1.0  0.71440  0.69979  0.89953  1.0000
  H   H1132     1.0  0.64047  0.70379  0.50187  1.0000
  H   H1133     1.0  0.71682  0.81566  0.52951  1.0000
  H   H1134     1.0  0.84254  0.66277  0.82361  1.0000
  H   H1135     1.0  0.70734  0.75886  0.49858  1.0000
  H   H1136     1.0  0.54892  0.76059  0.56439  1.0000
  H   H1137     1.0  0.69019  0.65388  0.55787  1.0000
  H   H1138     1.0  0.50047  0.80795  0.73491  1.0000
  H   H1139     1.0  0.54822  0.81182  0.98931  1.0000
  H   H1140     1.0  0.81106  0.79072  0.97215  1.0000
  H   H1141     1.0  0.65073  0.78834  0.96711  1.0000
  C   C1425     1.0  0.51293  0.75274  0.78212  1.0000
  H   H1142     1.0  0.79058  0.82704  0.94751  1.0000
  Fe  Fe96      1.0  0.70682  0.86055  0.97365  1.0000
  H   H1143     1.0  0.53144  0.81129  0.84255  1.0000
  H   H1144     1.0  0.61005  0.73238  0.50076  1.0000
  C   C1426     1.0  0.66767  0.80228  0.52169  1.0000
  H   H1145     1.0  0.70566  0.96636  0.97132  1.0000
  C   C1427     1.0  0.60553  0.65407  0.56343  1.0000
  C   C1428     1.0  0.51306  0.80851  0.79079  1.0000
  C   C1429     1.0  0.75757  0.82055  0.97445  1.0000
  H   H1146     1.0  0.68179  0.69230  0.92753  1.0000
  C   C1430     1.0  0.48707  0.74269  0.70304  1.0000
  C   C1431     1.0  0.68556  0.67226  0.87783  1.0000
  C   C1432     1.0  0.96148  0.69781  0.90961  1.0000
  C   C1433     1.0  0.49069  0.75358  0.58197  1.0000
  H   H1147     1.0  0.48910  0.79064  0.50764  1.0000
  C   C1434     1.0  0.77182  0.68017  0.51124  1.0000
  H   H1148     1.0  0.50803  0.78172  0.94023  1.0000
  S   S191      1.0  0.66160  0.94273  0.99376  1.0000
  C   C1435     1.0  0.48520  0.79901  0.85752  1.0000
  C   C1436     1.0  0.49699  0.79130  0.92066  1.0000
  C   C1437     1.0  0.70097  0.75453  0.97759  1.0000
  H   H1149     1.0  0.73059  0.65348  0.53229  1.0000
  C   C1438     1.0  0.68308  0.77133  0.98551  1.0000
  H   H1150     1.0  0.68288  0.65470  0.71991  1.0000
  C   C1439     1.0  0.72855  0.68009  0.97997  1.0000
  H   H1151     1.0  0.75345  0.73320  0.99564  1.0000
  H   H1152     1.0  0.71555  0.75251  0.99630  1.0000
  C   C1440     1.0  0.58491  0.81830  0.99675  1.0000
  S   S192      1.0  0.64180  0.87663  0.99554  1.0000
