data_image0
_chemical_formula_structural       CSHS2CSC6H5C2H2C3H2CHC3HCH2CHCHCHC2H4S2CHC2HFeH2C5HC2H2CHCFeHFeHSCHS2FeS2C6H4C4SH3C3H3C3HC3HC3HCH4CHFeC3H2CHSCHPC4HC2HCH3CH2C2HCHC3PC4HC4HC8H13CHCHC2HC5SH5CHFeC2FeCSCHS2CSFeCPC2HC6H2CHCHC4HC4PC3PCH2CH3C2HCHCHC4H8FeHC2SHC5HC2H3FeC2HCSC2HCH2C2HC2H5CH2CHC4HC3HC2H2FeH2CSHC2H2CH3SFeSHCH3CHC8H2SCH2C9H2CHCHC5HC9H3CH8CHSH3PSCH2PHC2HC3HCSFeSH3SHC6H6CS2HSC6H4C3H4C5HC2HCH2C2H3CFeCHC2HC5HCHPHC5H4CHCHC4HCHPH3C3HCH2CFeH4C3PC2S2C3HC2HC3HCHFeC4H2CFeHCH3SCHC2H2Fe2SCS2FeSC8H4FeSHFeSCFeS2C6HCH2FeH2C2PHC2H2PCH4C3H2CSCH3C3H2CHCS2CHC6H5C3HC2H2C2HCH3C2H4CHC10HC2H2SCHC2H3C6SH2CHFeHCPCHPHC2HC2FeH2CSC2HSH3CH3CHFeS2FeS2C6H5CFeS2HC2SFeS2C7H9C2HC3FeC2HC3H5CSCH4C5H2CH2CH2C2HCHCH3C4H3C2SC3PC8HFeCHCHC4HC2H2CHC3HCHSPH2C2HC2HC4HSFe2SC3HSC6H6C2HSHSC7H4C2H4CHC4HFeH3C2HC2H2C3HCHSC4H3PC3HC3SHCSH3C2HCH2C2H3CHCHPH4C2HCHC3H2CHCHC2HCHCFeSCFeSH3CH2C7H4CHC3H2C2HSCH3CFe2CHC4SHCHCH3S2HC2SC4HCH2CH4C2H4PCSHC2H2CS2CHC3HC6H4C3HC2H2CHSH3C3HSCH2CH2FeSHC2HFeC3HPC3H2CHC2H10CH4C4PC14HC4FeHC2HCH2CH3C4HC2H3SHCSCHFeHSC6H2CHCHCHCH6C2H2C6PC19H9CH4CH2CH5SHC4HCHFeC5H3C3H2C2HC2H2CH2CPHFeC3HS2HC2HSC2FeSFeH2CHC6H2CSH2PH2SC2HCS2HCH5FeCSH3CHCHC10HCHC3
_chemical_formula_sum              "C720 S96 H576 Fe48 P24"
_cell_length_a       39.9206
_cell_length_b       25.7003
_cell_length_c       37.8238
_cell_angle_alpha    89.7039
_cell_angle_beta     74.0303
_cell_angle_gamma    90.2143

_space_group_name_H-M_alt    "P 1"
_space_group_IT_number       1

loop_
  _space_group_symop_operation_xyz
  'x, y, z'

loop_
  _atom_site_type_symbol
  _atom_site_label
  _atom_site_symmetry_multiplicity
  _atom_site_fract_x
  _atom_site_fract_y
  _atom_site_fract_z
  _atom_site_occupancy
  C   C1        1.0  0.02298  0.38864  0.11749  1.0000
  S   S1        1.0  0.11683  0.37081  0.02783  1.0000
  H   H1        1.0  0.27662  0.44490  0.99894  1.0000
  S   S2        1.0  0.07119  0.22812  0.04294  1.0000
  S   S3        1.0  0.04469  0.46516  0.02499  1.0000
  C   C2        1.0  0.01953  0.29506  0.12510  1.0000
  S   S4        1.0  0.08252  0.04014  0.15094  1.0000
  C   C3        1.0  0.07550  0.17616  0.07275  1.0000
  C   C4        1.0  0.10775  0.15990  0.07657  1.0000
  C   C5        1.0  0.10951  0.11792  0.10029  1.0000
  C   C6        1.0  0.07909  0.09237  0.12098  1.0000
  C   C7        1.0  0.04685  0.10911  0.11748  1.0000
  C   C8        1.0  0.04514  0.15024  0.09322  1.0000
  H   H2        1.0  0.13132  0.17933  0.06100  1.0000
  H   H3        1.0  0.13459  0.10544  0.10283  1.0000
  H   H4        1.0  0.02321  0.09064  0.13367  1.0000
  H   H5        1.0  0.02002  0.16240  0.09060  1.0000
  H   H6        1.0  0.03219  0.39805  0.46309  1.0000
  C   C9        1.0  0.98827  0.00464  0.00842  1.0000
  C   C10       1.0  0.29003  0.33139  0.00116  1.0000
  H   H7        1.0  0.99615  0.29307  0.25416  1.0000
  H   H8        1.0  0.00678  0.48654  0.39311  1.0000
  C   C11       1.0  0.02519  0.36172  0.47809  1.0000
  C   C12       1.0  0.05399  0.21067  0.17679  1.0000
  C   C13       1.0  0.00014  0.30029  0.16197  1.0000
  H   H9        1.0  0.03405  0.11992  0.26242  1.0000
  H   H10       1.0  0.26256  0.32144  0.01094  1.0000
  C   C14       1.0  0.00344  0.39446  0.15405  1.0000
  H   H11       1.0  0.16881  0.32141  0.48289  1.0000
  C   C15       1.0  0.08062  0.18148  0.18456  1.0000
  C   C16       1.0  0.99275  0.26387  0.00095  1.0000
  C   C17       1.0  0.31136  0.32876  0.02489  1.0000
  H   H12       1.0  0.10666  0.18293  0.16598  1.0000
  C   C18       1.0  0.01296  0.17472  0.23108  1.0000
  H   H13       1.0  0.09388  0.12473  0.22050  1.0000
  H   H14       1.0  0.02552  0.25690  0.11317  1.0000
  C   C19       1.0  0.26314  0.49451  0.48756  1.0000
  H   H15       1.0  0.02991  0.46605  0.28022  1.0000
  C   C20       1.0  0.07344  0.14870  0.21531  1.0000
  H   H16       1.0  0.06035  0.23447  0.15225  1.0000
  C   C21       1.0  0.03968  0.14566  0.23872  1.0000
  H   H17       1.0  0.04598  0.33436  0.07462  1.0000
  C   C22       1.0  0.03100  0.33895  0.10307  1.0000
  C   C23       1.0  0.01987  0.20767  0.20005  1.0000
  H   H18       1.0  0.00315  0.03411  0.09051  1.0000
  H   H19       1.0  0.00560  0.22768  0.00403  1.0000
  H   H20       1.0  0.29008  0.49252  0.48796  1.0000
  H   H21       1.0  0.03181  0.42253  0.10013  1.0000
  S   S5        1.0  0.26272  0.38531  0.49057  1.0000
  S   S6        1.0  0.01231  0.00997  0.24829  1.0000
  C   C24       1.0  0.99615  0.03442  0.03603  1.0000
  H   H22       1.0  0.00176  0.07567  0.03170  1.0000
  C   C25       1.0  0.99198  0.35054  0.17624  1.0000
  C   C26       1.0  0.99917  0.33025  0.47108  1.0000
  H   H23       1.0  0.99705  0.43310  0.16502  1.0000
  Fe  Fe1       1.0  0.10374  0.29326  0.00721  1.0000
  H   H24       1.0  0.30045  0.31605  0.05308  1.0000
  H   H25       1.0  0.19427  0.41717  0.48713  1.0000
  C   C27       1.0  0.99701  0.01105  0.06919  1.0000
  C   C28       1.0  0.20913  0.45222  0.48746  1.0000
  C   C29       1.0  0.01642  0.49196  0.00142  1.0000
  C   C30       1.0  0.01248  0.49453  0.29659  1.0000
  C   C31       1.0  0.24421  0.44837  0.48810  1.0000
  H   H26       1.0  0.98680  0.17069  0.24919  1.0000
  C   C32       1.0  0.98715  0.30105  0.02873  1.0000
  C   C33       1.0  0.99702  0.48827  0.42273  1.0000
  H   H27       1.0  0.99535  0.29320  0.05323  1.0000
  H   H28       1.0  0.98625  0.34195  0.45058  1.0000
  C   C34       1.0  0.98947  0.28400  0.49086  1.0000
  H   H29       1.0  0.10703  0.29519  0.49459  1.0000
  C   C35       1.0  0.23426  0.47358  0.97927  1.0000
  Fe  Fe2       1.0  0.16093  0.37858  0.97566  1.0000
  H   H30       1.0  0.06108  0.37246  0.51035  1.0000
  Fe  Fe3       1.0  0.11453  0.33543  0.92817  1.0000
  H   H31       1.0  0.08906  0.06048  0.75721  1.0000
  S   S7        1.0  0.10828  0.31747  0.87049  1.0000
  C   C36       1.0  0.10503  0.07645  0.73146  1.0000
  H   H32       1.0  0.14817  0.45282  0.56267  1.0000
  S   S8        1.0  0.12798  0.41705  0.94326  1.0000
  S   S9        1.0  0.15058  0.29669  0.95702  1.0000
  Fe  Fe4       1.0  0.01304  0.10317  0.75993  1.0000
  S   S10       1.0  0.03644  0.12809  0.80688  1.0000
  S   S11       1.0  0.02757  0.11814  0.69867  1.0000
  C   C37       1.0  0.08581  0.26583  0.85466  1.0000
  C   C38       1.0  0.07892  0.27070  0.82015  1.0000
  C   C39       1.0  0.06318  0.22973  0.80546  1.0000
  C   C40       1.0  0.05447  0.18276  0.82483  1.0000
  C   C41       1.0  0.06083  0.17825  0.85958  1.0000
  C   C42       1.0  0.07610  0.21948  0.87452  1.0000
  H   H33       1.0  0.08605  0.30634  0.80454  1.0000
  H   H34       1.0  0.05810  0.23430  0.77906  1.0000
  H   H35       1.0  0.05412  0.14237  0.87503  1.0000
  H   H36       1.0  0.08113  0.21488  0.90105  1.0000
  C   C43       1.0  0.99520  0.39951  0.62887  1.0000
  C   C44       1.0  0.16523  0.33444  0.53997  1.0000
  C   C45       1.0  0.26547  0.47889  0.98976  1.0000
  C   C46       1.0  0.12294  0.47059  0.56646  1.0000
  S   S12       1.0  0.01021  0.01599  0.75251  1.0000
  H   H37       1.0  0.16484  0.31564  0.80431  1.0000
  H   H38       1.0  0.07968  0.20386  0.71180  1.0000
  H   H39       1.0  0.99695  0.23372  0.53294  1.0000
  C   C47       1.0  0.18579  0.44980  0.61330  1.0000
  C   C48       1.0  0.01596  0.37240  0.59886  1.0000
  C   C49       1.0  0.25085  0.24542  0.59630  1.0000
  H   H40       1.0  0.19136  0.24417  0.83096  1.0000
  H   H41       1.0  0.03443  0.26674  0.70961  1.0000
  H   H42       1.0  0.22401  0.38834  0.60208  1.0000
  C   C50       1.0  0.13001  0.06927  0.66574  1.0000
  C   C51       1.0  0.07954  0.18585  0.56348  1.0000
  C   C52       1.0  0.17067  0.27915  0.78971  1.0000
  H   H43       1.0  0.10457  0.20354  0.55064  1.0000
  C   C53       1.0  0.00563  0.26920  0.51776  1.0000
  C   C54       1.0  0.21921  0.42941  0.59914  1.0000
  C   C55       1.0  0.04627  0.41326  0.87374  1.0000
  H   H44       1.0  0.11233  0.38558  0.67198  1.0000
  C   C56       1.0  0.00237  0.44649  0.84657  1.0000
  C   C57       1.0  0.01320  0.29606  0.63732  1.0000
  C   C58       1.0  0.04877  0.21538  0.57194  1.0000
  H   H45       1.0  0.28223  0.23512  0.63381  1.0000
  C   C59       1.0  0.24649  0.46182  0.58025  1.0000
  H   H46       1.0  0.27211  0.44576  0.56818  1.0000
  H   H47       1.0  0.10199  0.10986  0.56550  1.0000
  H   H48       1.0  0.02457  0.39224  0.57266  1.0000
  H   H49       1.0  0.15834  0.32299  0.67461  1.0000
  C   C60       1.0  0.01573  0.13716  0.59636  1.0000
  H   H50       1.0  0.01977  0.25613  0.64154  1.0000
  Fe  Fe5       1.0  0.01975  0.03178  0.69180  1.0000
  C   C61       1.0  0.07829  0.13257  0.57180  1.0000
  C   C62       1.0  0.01691  0.19027  0.58795  1.0000
  C   C63       1.0  0.18571  0.23877  0.80476  1.0000
  H   H51       1.0  0.13319  0.04736  0.64060  1.0000
  H   H52       1.0  0.99451  0.47346  0.82831  1.0000
  C   C64       1.0  0.04642  0.10830  0.58836  1.0000
  H   H53       1.0  0.03831  0.44985  0.95152  1.0000
  S   S13       1.0  0.06814  0.32918  0.97698  1.0000
  C   C65       1.0  0.08762  0.45887  0.74100  1.0000
  H   H54       1.0  0.07263  0.41422  0.87637  1.0000
  P   P1        1.0  0.04998  0.28489  0.56288  1.0000
  C   C66       1.0  0.02469  0.32012  0.60261  1.0000
  C   C67       1.0  0.09467  0.30676  0.55351  1.0000
  C   C68       1.0  0.10845  0.31959  0.58274  1.0000
  C   C69       1.0  0.14361  0.33336  0.57595  1.0000
  H   H55       1.0  0.99295  0.21204  0.59452  1.0000
  C   C70       1.0  0.03648  0.44747  0.84960  1.0000
  C   C71       1.0  0.02195  0.37849  0.89531  1.0000
  H   H56       1.0  0.03019  0.35239  0.91387  1.0000
  C   C72       1.0  0.13713  0.49411  0.69456  1.0000
  H   H57       1.0  0.04546  0.06709  0.59499  1.0000
  H   H58       1.0  0.09217  0.31795  0.61079  1.0000
  H   H59       1.0  0.15424  0.34261  0.59856  1.0000
  C   C73       1.0  0.03182  0.30057  0.52514  1.0000
  H   H60       1.0  0.05520  0.47530  0.83386  1.0000
  H   H61       1.0  0.16482  0.42422  0.62754  1.0000
  C   C74       1.0  0.11039  0.04793  0.69910  1.0000
  C   C75       1.0  0.30384  0.34829  0.96491  1.0000
  H   H62       1.0  0.09869  0.00969  0.69972  1.0000
  C   C76       1.0  0.11673  0.30687  0.51747  1.0000
  H   H63       1.0  0.28691  0.35149  0.94692  1.0000
  C   C77       1.0  0.14466  0.11902  0.66472  1.0000
  C   C78       1.0  0.13971  0.14773  0.69724  1.0000
  C   C79       1.0  0.11935  0.12628  0.73055  1.0000
  P   P2        1.0  0.15616  0.21349  0.69633  1.0000
  C   C80       1.0  0.16850  0.22419  0.73830  1.0000
  C   C81       1.0  0.19348  0.22420  0.65706  1.0000
  C   C82       1.0  0.22748  0.22437  0.66100  1.0000
  C   C83       1.0  0.25598  0.23496  0.63070  1.0000
  H   H64       1.0  0.14930  0.30338  0.74648  1.0000
  C   C84       1.0  0.21715  0.24504  0.59205  1.0000
  C   C85       1.0  0.18856  0.23441  0.62227  1.0000
  C   C86       1.0  0.18443  0.18412  0.75316  1.0000
  C   C87       1.0  0.19280  0.19135  0.78638  1.0000
  H   H65       1.0  0.11379  0.42970  0.52041  1.0000
  C   C88       1.0  0.12286  0.47267  0.72958  1.0000
  C   C89       1.0  0.16188  0.27192  0.75676  1.0000
  C   C90       1.0  0.12254  0.25868  0.69327  1.0000
  C   C91       1.0  0.08741  0.24325  0.70282  1.0000
  C   C92       1.0  0.06150  0.27907  0.70166  1.0000
  C   C93       1.0  0.07046  0.33044  0.69065  1.0000
  C   C94       1.0  0.10541  0.34590  0.68057  1.0000
  C   C95       1.0  0.13139  0.31024  0.68188  1.0000
  H   H66       1.0  0.05035  0.35822  0.68989  1.0000
  H   H67       1.0  0.15943  0.13489  0.63854  1.0000
  H   H68       1.0  0.11389  0.14832  0.75586  1.0000
  H   H69       1.0  0.23224  0.21663  0.68732  1.0000
  H   H70       1.0  0.20434  0.15998  0.79817  1.0000
  H   H71       1.0  0.21333  0.25277  0.56522  1.0000
  H   H72       1.0  0.16261  0.23413  0.61849  1.0000
  H   H73       1.0  0.18992  0.14700  0.73938  1.0000
  H   H74       1.0  0.06381  0.49377  0.66479  1.0000
  H   H75       1.0  0.27311  0.25361  0.57294  1.0000
  H   H76       1.0  0.98799  0.43944  0.62537  1.0000
  H   H77       1.0  0.07671  0.44170  0.76799  1.0000
  H   H78       1.0  0.03907  0.45691  0.72660  1.0000
  C   C96       1.0  0.00033  0.00101  0.86736  1.0000
  H   H79       1.0  0.19252  0.34523  0.53462  1.0000
  C   C97       1.0  0.01887  0.47769  0.96525  1.0000
  H   H80       1.0  0.00690  0.02203  0.84137  1.0000
  C   C98       1.0  0.04150  0.34696  0.50491  1.0000
  C   C99       1.0  0.10346  0.45726  0.54222  1.0000
  H   H81       1.0  0.13914  0.46674  0.74797  1.0000
  C   C100      1.0  0.99183  0.32295  0.66710  1.0000
  C   C101      1.0  0.08072  0.48824  0.68240  1.0000
  C   C102      1.0  0.98739  0.37835  0.89326  1.0000
  C   C103      1.0  0.15181  0.32112  0.51076  1.0000
  C   C104      1.0  0.06648  0.46719  0.71758  1.0000
  S   S14       1.0  0.21481  0.40982  0.97965  1.0000
  H   H82       1.0  0.99006  0.24617  0.94662  1.0000
  H   H83       1.0  0.99833  0.48892  0.91879  1.0000
  H   H84       1.0  0.98783  0.02363  0.98297  1.0000
  H   H85       1.0  0.99096  0.11851  0.60940  1.0000
  H   H86       1.0  0.05669  0.47207  0.52572  1.0000
  C   C105      1.0  0.07139  0.48102  0.54517  1.0000
  H   H87       1.0  0.98637  0.30176  0.84562  1.0000
  Fe  Fe6       1.0  0.08391  0.40599  0.99463  1.0000
  C   C106      1.0  0.28781  0.84843  0.15516  1.0000
  C   C107      1.0  0.02146  0.54740  0.29331  1.0000
  Fe  Fe7       1.0  0.10332  0.70768  0.43504  1.0000
  C   C108      1.0  0.16998  0.67697  0.01536  1.0000
  S   S15       1.0  0.11437  0.74313  0.37682  1.0000
  C   C109      1.0  0.21582  0.66629  0.28220  1.0000
  H   H88       1.0  0.24077  0.96042  0.16971  1.0000
  S   S16       1.0  0.13470  0.72928  0.47458  1.0000
  S   S17       1.0  0.11211  0.62100  0.44000  1.0000
  C   C110      1.0  0.21945  0.88348  0.18361  1.0000
  S   S18       1.0  0.03794  0.90946  0.19495  1.0000
  Fe  Fe8       1.0  0.01015  0.92227  0.25460  1.0000
  C   C111      1.0  0.26474  0.70342  0.06767  1.0000
  P   P3        1.0  0.26997  0.74369  0.17054  1.0000
  C   C112      1.0  0.23340  0.67584  0.07461  1.0000
  C   C113      1.0  0.24872  0.85495  0.08075  1.0000
  H   H89       1.0  0.11007  0.72552  0.08940  1.0000
  C   C114      1.0  0.08675  0.78289  0.35804  1.0000
  C   C115      1.0  0.09760  0.79731  0.32053  1.0000
  C   C116      1.0  0.07620  0.82797  0.30451  1.0000
  C   C117      1.0  0.04359  0.84472  0.32588  1.0000
  C   C118      1.0  0.03311  0.83105  0.36340  1.0000
  C   C119      1.0  0.05438  0.80024  0.37937  1.0000
  H   H90       1.0  0.12272  0.78459  0.30379  1.0000
  H   H91       1.0  0.08486  0.83863  0.27576  1.0000
  C   C120      1.0  0.24696  0.54342  0.48730  1.0000
  H   H92       1.0  0.04574  0.79001  0.40825  1.0000
  C   C121      1.0  0.00600  0.64153  0.38937  1.0000
  H   H93       1.0  0.22651  0.59385  0.25299  1.0000
  C   C122      1.0  0.21214  0.67079  0.11063  1.0000
  C   C123      1.0  0.08237  0.94330  0.03723  1.0000
  C   C124      1.0  0.10283  0.90607  0.01439  1.0000
  C   C125      1.0  0.25516  0.71748  0.13320  1.0000
  H   H94       1.0  0.07253  0.80490  0.11985  1.0000
  C   C126      1.0  0.00202  0.74245  0.27836  1.0000
  C   C127      1.0  0.19306  0.50112  0.48684  1.0000
  C   C128      1.0  0.11786  0.66661  0.29893  1.0000
  C   C129      1.0  0.13069  0.66814  0.26065  1.0000
  P   P4        1.0  0.14652  0.82683  0.08483  1.0000
  C   C130      1.0  0.07192  0.65935  0.25526  1.0000
  C   C131      1.0  0.05874  0.65865  0.29380  1.0000
  C   C132      1.0  0.08205  0.66188  0.31551  1.0000
  P   P5        1.0  0.01236  0.65200  0.31444  1.0000
  C   C133      1.0  0.13314  0.72478  0.06636  1.0000
  H   H95       1.0  0.01793  0.60376  0.38265  1.0000
  H   H96       1.0  0.19293  0.89713  0.19438  1.0000
  C   C134      1.0  0.21180  0.54723  0.48701  1.0000
  H   H97       1.0  0.11763  0.66530  0.20911  1.0000
  H   H98       1.0  0.20191  0.79901  0.01840  1.0000
  H   H99       1.0  0.20593  0.68775  0.16753  1.0000
  C   C135      1.0  0.27556  0.72440  0.09679  1.0000
  C   C136      1.0  0.23548  0.74421  0.24596  1.0000
  H   H100      1.0  0.00056  0.63186  0.44742  1.0000
  C   C137      1.0  0.12164  0.86981  0.02888  1.0000
  H   H101      1.0  0.12325  0.64589  0.05248  1.0000
  C   C138      1.0  0.14047  0.67938  0.04544  1.0000
  H   H102      1.0  0.20357  0.64800  0.30854  1.0000
  C   C139      1.0  0.00064  0.52378  0.48095  1.0000
  C   C140      1.0  0.24455  0.65960  0.21699  1.0000
  C   C141      1.0  0.22862  0.63588  0.25088  1.0000
  C   C142      1.0  0.28053  0.90163  0.15536  1.0000
  H   H103      1.0  0.13551  0.67025  0.31604  1.0000
  H   H104      1.0  0.15838  0.67260  0.24800  1.0000
  H   H105      1.0  0.16693  0.93776  0.08391  1.0000
  H   H106      1.0  0.13778  0.84190  0.01062  1.0000
  H   H107      1.0  0.07287  0.66198  0.34525  1.0000
  H   H108      1.0  0.02018  0.76060  0.29121  1.0000
  H   H109      1.0  0.21542  0.78809  0.08536  1.0000
  H   H110      1.0  0.20951  0.74386  0.30419  1.0000
  Fe  Fe9       1.0  0.14019  0.64229  0.48223  1.0000
  H   H111      1.0  0.30581  0.53087  0.99774  1.0000
  C   C143      1.0  0.12287  0.80902  0.13133  1.0000
  C   C144      1.0  0.08562  0.78222  0.20354  1.0000
  S   S19       1.0  0.01378  0.87985  0.30721  1.0000
  H   H112      1.0  0.22577  0.65833  0.05194  1.0000
  C   C145      1.0  0.01340  0.52111  0.44268  1.0000
  C   C146      1.0  0.11992  0.87039  0.06647  1.0000
  C   C147      1.0  0.18943  0.91393  0.08305  1.0000
  C   C148      1.0  0.24745  0.71403  0.21409  1.0000
  C   C149      1.0  0.21918  0.72041  0.27972  1.0000
  H   H113      1.0  0.23903  0.78600  0.24513  1.0000
  C   C150      1.0  0.24640  0.91919  0.16969  1.0000
  C   C151      1.0  0.18463  0.76583  0.02650  1.0000
  H   H114      1.0  0.31684  0.57156  0.43465  1.0000
  H   H115      1.0  0.20563  0.80308  0.19481  1.0000
  H   H116      1.0  0.30006  0.74557  0.09088  1.0000
  Fe  Fe10      1.0  0.06294  0.62368  0.48669  1.0000
  C   C152      1.0  0.08670  0.80048  0.14038  1.0000
  C   C153      1.0  0.26106  0.81248  0.17026  1.0000
  H   H117      1.0  0.25497  0.63546  0.19310  1.0000
  C   C154      1.0  0.22672  0.83030  0.18378  1.0000
  S   S20       1.0  0.05210  0.70807  0.47900  1.0000
  C   C155      1.0  0.22132  0.93865  0.08041  1.0000
  C   C156      1.0  0.18703  0.85934  0.08415  1.0000
  H   H118      1.0  0.28083  0.70797  0.03959  1.0000
  C   C157      1.0  0.22282  0.69187  0.13987  1.0000
  H   H119      1.0  0.06542  0.97384  0.09225  1.0000
  H   H120      1.0  0.99116  0.93947  0.10031  1.0000
  C   C158      1.0  0.10774  0.66423  0.23880  1.0000
  C   C159      1.0  0.99958  0.58427  0.31546  1.0000
  H   H121      1.0  0.09855  0.91083  0.11803  1.0000
  C   C160      1.0  0.99115  0.52821  0.01908  1.0000
  C   C161      1.0  0.12160  0.79044  0.19480  1.0000
  H   H122      1.0  0.00821  0.84432  0.38031  1.0000
  H   H123      1.0  0.04028  0.78113  0.18294  1.0000
  H   H124      1.0  0.05451  0.65641  0.23788  1.0000
  H   H125      1.0  0.16803  0.80986  0.15244  1.0000
  H   H126      1.0  0.18760  0.64997  0.11578  1.0000
  C   C162      1.0  0.00077  0.67449  0.36160  1.0000
  H   H127      1.0  0.04591  0.55893  0.27424  1.0000
  H   H128      1.0  0.13483  0.78741  0.21620  1.0000
  C   C163      1.0  0.21678  0.83010  0.08384  1.0000
  H   H129      1.0  0.03573  0.54443  0.42855  1.0000
  C   C164      1.0  0.08074  0.94438  0.07458  1.0000
  C   C165      1.0  0.14025  0.80348  0.15875  1.0000
  C   C166      1.0  0.06826  0.78670  0.17625  1.0000
  C   C167      1.0  0.25103  0.90915  0.07880  1.0000
  H   H130      1.0  0.07112  0.77312  0.23159  1.0000
  C   C168      1.0  0.09950  0.90828  0.08916  1.0000
  C   C169      1.0  0.98911  0.77160  0.25380  1.0000
  C   C170      1.0  0.15537  0.76830  0.05733  1.0000
  H   H131      1.0  0.27188  0.83238  0.07961  1.0000
  C   C171      1.0  0.19205  0.72015  0.00587  1.0000
  C   C172      1.0  0.99210  0.69022  0.28582  1.0000
  H   H132      1.0  0.16617  0.50321  0.48626  1.0000
  H   H133      1.0  0.26171  0.57871  0.48757  1.0000
  Fe  Fe11      1.0  0.03553  0.99644  0.18745  1.0000
  H   H134      1.0  0.99683  0.81204  0.24853  1.0000
  H   H135      1.0  0.27587  0.92816  0.07629  1.0000
  C   C173      1.0  0.99608  0.65713  0.42613  1.0000
  S   S21       1.0  0.19275  0.61043  0.48772  1.0000
  H   H136      1.0  0.06811  0.97180  0.02597  1.0000
  C   C174      1.0  0.99026  0.95782  0.07472  1.0000
  C   C175      1.0  0.98564  0.72348  0.37139  1.0000
  H   H137      1.0  0.22299  0.98076  0.07926  1.0000
  H   H138      1.0  0.31427  0.83564  0.14296  1.0000
  C   C176      1.0  0.31572  0.73131  0.16472  1.0000
  H   H139      1.0  0.30142  0.92914  0.14407  1.0000
  H   H140      1.0  0.98921  0.53938  0.04710  1.0000
  H   H141      1.0  0.17574  0.64153  0.99943  1.0000
  S   S22       1.0  0.09141  0.63954  0.52905  1.0000
  Fe  Fe12      1.0  0.08358  0.72441  0.51898  1.0000
  S   S23       1.0  0.05704  0.76743  0.57242  1.0000
  H   H142      1.0  0.06974  0.80025  0.98847  1.0000
  C   C177      1.0  0.13011  0.62515  0.65877  1.0000
  H   H143      1.0  0.20283  0.57547  0.58393  1.0000
  H   H144      1.0  0.06857  0.56211  0.61643  1.0000
  H   H145      1.0  0.14368  0.70147  0.56693  1.0000
  C   C178      1.0  0.11634  0.50111  0.67036  1.0000
  H   H146      1.0  0.12494  0.70070  0.68438  1.0000
  C   C179      1.0  0.05743  0.83147  0.59019  1.0000
  C   C180      1.0  0.02959  0.84680  0.62009  1.0000
  C   C181      1.0  0.02963  0.89577  0.63687  1.0000
  C   C182      1.0  0.05786  0.92988  0.62424  1.0000
  C   C183      1.0  0.08560  0.91471  0.59420  1.0000
  C   C184      1.0  0.08532  0.86601  0.57709  1.0000
  C   C185      1.0  0.20695  0.53491  0.58917  1.0000
  C   C186      1.0  0.99623  0.85185  0.97320  1.0000
  H   H147      1.0  0.10759  0.94068  0.58417  1.0000
  H   H148      1.0  0.10698  0.85480  0.55426  1.0000
  S   S24       1.0  0.28858  0.63618  0.97538  1.0000
  C   C187      1.0  0.00436  0.76216  0.95259  1.0000
  H   H149      1.0  0.01692  0.65481  0.60328  1.0000
  H   H150      1.0  0.13295  0.74932  0.62565  1.0000
  C   C188      1.0  0.07055  0.87894  0.74317  1.0000
  C   C189      1.0  0.03461  0.75909  0.96421  1.0000
  C   C190      1.0  0.03258  0.69993  0.68176  1.0000
  C   C191      1.0  0.02921  0.81478  0.77697  1.0000
  C   C192      1.0  0.23732  0.56750  0.96680  1.0000
  C   C193      1.0  0.01164  0.67018  0.63094  1.0000
  C   C194      1.0  0.26852  0.57273  0.97722  1.0000
  C   C195      1.0  0.05870  0.51792  0.57249  1.0000
  C   C196      1.0  0.13576  0.59786  0.62556  1.0000
  H   H151      1.0  0.07945  0.87888  0.68435  1.0000
  H   H152      1.0  0.05411  0.70626  0.69347  1.0000
  C   C197      1.0  0.02420  0.79599  0.74397  1.0000
  H   H153      1.0  0.26141  0.53947  0.56034  1.0000
  C   C198      1.0  0.11040  0.50793  0.59392  1.0000
  H   H154      1.0  0.01469  0.79874  0.80318  1.0000
  C   C199      1.0  0.04622  0.80260  0.97956  1.0000
  C   C200      1.0  0.03891  0.67734  0.64697  1.0000
  C   C201      1.0  0.28229  0.52784  0.98898  1.0000
  C   C202      1.0  0.22026  0.51866  0.96799  1.0000
  C   C203      1.0  0.04281  0.81919  0.71057  1.0000
  H   H155      1.0  0.21515  0.71791  0.98266  1.0000
  C   C204      1.0  0.14013  0.68022  0.59260  1.0000
  C   C205      1.0  0.06590  0.86037  0.71021  1.0000
  C   C206      1.0  0.05229  0.85603  0.77653  1.0000
  C   C207      1.0  0.24043  0.51461  0.57572  1.0000
  C   C208      1.0  0.12944  0.67965  0.65876  1.0000
  C   C209      1.0  0.02351  0.96468  0.87479  1.0000
  C   C210      1.0  0.14102  0.62585  0.59248  1.0000
  C   C211      1.0  0.07828  0.53189  0.59641  1.0000
  C   C212      1.0  0.99883  0.71606  0.70063  1.0000
  H   H156      1.0  0.05541  0.87095  0.80218  1.0000
  H   H157      1.0  0.12610  0.60466  0.68466  1.0000
  H   H158      1.0  0.22644  0.60145  0.95722  1.0000
  C   C213      1.0  0.02738  0.84902  0.98360  1.0000
  H   H159      1.0  0.00792  0.82035  0.63053  1.0000
  H   H160      1.0  0.08786  0.91162  0.74284  1.0000
  H   H161      1.0  0.06513  0.66731  0.63155  1.0000
  H   H162      1.0  0.99546  0.72857  0.94037  1.0000
  H   H163      1.0  0.00815  0.90670  0.65997  1.0000
  H   H164      1.0  0.14581  0.60565  0.56645  1.0000
  H   H165      1.0  0.04900  0.72294  0.96126  1.0000
  H   H166      1.0  0.03325  0.90945  0.91347  1.0000
  C   C214      1.0  0.13419  0.70715  0.62572  1.0000
  H   H167      1.0  0.19652  0.51576  0.95958  1.0000
  S   S25       1.0  0.01895  0.56554  0.50747  1.0000
  H   H168      1.0  0.03871  0.80686  0.68479  1.0000
  H   H169      1.0  0.04807  0.95766  0.85449  1.0000
  H   H170      1.0  0.10447  0.90580  0.98532  1.0000
  P   P6        1.0  0.13555  0.52755  0.62477  1.0000
  S   S26       1.0  0.06072  0.99045  0.64607  1.0000
  C   C215      1.0  0.01500  0.93753  0.90830  1.0000
  H   H171      1.0  0.03420  0.53719  0.57419  1.0000
  H   H172      1.0  0.01572  0.63918  0.74504  1.0000
  P   P7        1.0  0.99090  0.74756  0.74486  1.0000
  H   H173      1.0  0.01157  0.57530  0.79498  1.0000
  C   C216      1.0  0.00308  0.65028  0.77303  1.0000
  C   C217      1.0  0.99627  0.49972  0.94680  1.0000
  H   H174      1.0  0.16447  0.50493  0.68628  1.0000
  C   C218      1.0  0.98887  0.70022  0.78111  1.0000
  C   C219      1.0  0.00076  0.61379  0.80129  1.0000
  C   C220      1.0  0.17932  0.50262  0.60811  1.0000
  H   H175      1.0  0.03704  0.88245  0.99506  1.0000
  C   C221      1.0  0.46047  0.23724  0.21098  1.0000
  S   S27       1.0  0.36789  0.38636  0.44745  1.0000
  Fe  Fe13      1.0  0.38768  0.30528  0.45413  1.0000
  S   S28       1.0  0.42676  0.25584  0.41182  1.0000
  H   H176      1.0  0.52760  0.17992  0.20546  1.0000
  H   H177      1.0  0.45236  0.00700  0.02039  1.0000
  H   H178      1.0  0.57930  0.07667  0.34149  1.0000
  S   S29       1.0  0.40806  0.08440  0.29661  1.0000
  H   H179      1.0  0.45946  0.29746  0.17102  1.0000
  C   C222      1.0  0.42027  0.20555  0.38215  1.0000
  C   C223      1.0  0.44923  0.17681  0.36228  1.0000
  C   C224      1.0  0.44592  0.13905  0.33647  1.0000
  C   C225      1.0  0.41347  0.12953  0.33023  1.0000
  C   C226      1.0  0.38438  0.15748  0.35071  1.0000
  C   C227      1.0  0.38767  0.19509  0.37664  1.0000
  H   H180      1.0  0.47449  0.18434  0.36648  1.0000
  H   H181      1.0  0.46858  0.11801  0.32099  1.0000
  H   H182      1.0  0.35915  0.15041  0.34618  1.0000
  H   H183      1.0  0.36512  0.21679  0.39169  1.0000
  H   H184      1.0  0.39144  0.08796  0.11511  1.0000
  H   H185      1.0  0.45349  0.17140  0.24856  1.0000
  C   C228      1.0  0.44999  0.25941  0.18176  1.0000
  S   S30       1.0  0.53487  0.26000  0.05826  1.0000
  S   S31       1.0  0.50559  0.03678  0.26499  1.0000
  H   H186      1.0  0.40984  0.09867  0.42905  1.0000
  S   S32       1.0  0.56061  0.07594  0.16213  1.0000
  C   C229      1.0  0.54257  0.20583  0.08448  1.0000
  C   C230      1.0  0.57618  0.18833  0.08244  1.0000
  C   C231      1.0  0.58116  0.14795  0.10592  1.0000
  C   C232      1.0  0.55272  0.12460  0.13172  1.0000
  C   C233      1.0  0.51906  0.14149  0.13327  1.0000
  C   C234      1.0  0.51404  0.18150  0.10958  1.0000
  H   H187      1.0  0.59841  0.20660  0.06334  1.0000
  H   H188      1.0  0.60732  0.13530  0.10448  1.0000
  H   H189      1.0  0.49694  0.12444  0.15320  1.0000
  H   H190      1.0  0.48795  0.19462  0.11137  1.0000
  C   C235      1.0  0.47783  0.02016  0.06337  1.0000
  C   C236      1.0  0.63139  0.12584  0.47295  1.0000
  C   C237      1.0  0.62852  0.30212  0.44081  1.0000
  H   H191      1.0  0.48735  0.33150  0.47083  1.0000
  H   H192      1.0  0.41981  0.49616  0.06190  1.0000
  H   H193      1.0  0.56947  0.13739  0.29419  1.0000
  H   H194      1.0  0.46808  0.34569  0.05318  1.0000
  C   C238      1.0  0.43284  0.07070  0.47136  1.0000
  C   C239      1.0  0.51387  0.46982  0.47037  1.0000
  C   C240      1.0  0.53676  0.20538  0.30339  1.0000
  C   C241      1.0  0.52104  0.31120  0.20035  1.0000
  C   C242      1.0  0.44486  0.42184  0.06134  1.0000
  H   H195      1.0  0.41289  0.12498  0.22132  1.0000
  C   C243      1.0  0.41372  0.18409  0.18036  1.0000
  C   C244      1.0  0.51212  0.22911  0.25354  1.0000
  H   H196      1.0  0.56893  0.31141  0.11043  1.0000
  C   C245      1.0  0.44681  0.18865  0.22518  1.0000
  H   H197      1.0  0.47894  0.24019  0.45463  1.0000
  H   H198      1.0  0.52913  0.36490  0.24119  1.0000
  C   C246      1.0  0.56346  0.38187  0.18776  1.0000
  C   C247      1.0  0.55976  0.32372  0.13886  1.0000
  H   H199      1.0  0.52019  0.17230  0.46335  1.0000
  H   H200      1.0  0.44930  0.02205  0.36829  1.0000
  H   H201      1.0  0.51422  0.10368  0.03232  1.0000
  C   C248      1.0  0.41106  0.37340  0.31863  1.0000
  Fe  Fe14      1.0  0.51881  0.02832  0.20318  1.0000
  C   C249      1.0  0.43027  0.39591  0.28549  1.0000
  H   H202      1.0  0.43999  0.24905  0.30445  1.0000
  C   C250      1.0  0.42360  0.16219  0.20983  1.0000
  C   C251      1.0  0.42693  0.23267  0.16630  1.0000
  H   H203      1.0  0.57557  0.41482  0.19721  1.0000
  C   C252      1.0  0.52964  0.18718  0.23300  1.0000
  C   C253      1.0  0.54765  0.03738  0.01242  1.0000
  C   C254      1.0  0.53909  0.09053  0.01521  1.0000
  C   C255      1.0  0.50622  0.08527  0.41346  1.0000
  C   C256      1.0  0.53695  0.35377  0.21252  1.0000
  H   H204      1.0  0.39855  0.47746  0.00832  1.0000
  C   C257      1.0  0.47798  0.45962  0.47802  1.0000
  H   H205      1.0  0.50420  0.27177  0.30453  1.0000
  P   P8        1.0  0.48813  0.27332  0.23267  1.0000
  H   H206      1.0  0.39553  0.16363  0.16875  1.0000
  C   C258      1.0  0.45839  0.31295  0.26637  1.0000
  C   C259      1.0  0.51061  0.00033  0.38532  1.0000
  C   C260      1.0  0.51642  0.23869  0.28858  1.0000
  C   C261      1.0  0.55529  0.06523  0.36143  1.0000
  C   C262      1.0  0.41558  0.06946  0.10050  1.0000
  H   H207      1.0  0.46759  0.38357  0.23342  1.0000
  H   H208      1.0  0.42689  0.43671  0.28008  1.0000
  H   H209      1.0  0.59550  0.38834  0.13170  1.0000
  H   H210      1.0  0.36230  0.34233  0.03155  1.0000
  C   C263      1.0  0.41313  0.10507  0.45622  1.0000
  H   H211      1.0  0.60583  0.28691  0.43392  1.0000
  C   C264      1.0  0.45363  0.36573  0.25927  1.0000
  H   H212      1.0  0.56369  0.12209  0.23158  1.0000
  C   C265      1.0  0.47431  0.04248  0.09795  1.0000
  C   C266      1.0  0.43798  0.29022  0.29910  1.0000
  C   C267      1.0  0.55361  0.16317  0.28297  1.0000
  C   C268      1.0  0.53326  0.29566  0.16354  1.0000
  H   H213      1.0  0.44082  0.08443  0.14297  1.0000
  C   C269      1.0  0.50030  0.25027  0.46601  1.0000
  H   H214      1.0  0.60773  0.04241  0.41407  1.0000
  P   P9        1.0  0.60917  0.02408  0.49149  1.0000
  H   H215      1.0  0.49238  0.11333  0.43326  1.0000
  H   H216      1.0  0.56944  0.19576  0.48763  1.0000
  H   H217      1.0  0.46877  0.42143  0.47326  1.0000
  C   C270      1.0  0.55029  0.15440  0.24770  1.0000
  C   C271      1.0  0.42495  0.45847  0.04878  1.0000
  C   C272      1.0  0.54182  0.01532  0.36004  1.0000
  H   H218      1.0  0.53944  0.21246  0.33066  1.0000
  C   C273      1.0  0.39762  0.14862  0.47597  1.0000
  H   H219      1.0  0.41922  0.24979  0.14354  1.0000
  H   H220      1.0  0.44971  0.16108  0.02145  1.0000
  C   C274      1.0  0.41474  0.32053  0.32528  1.0000
  Fe  Fe15      1.0  0.45038  0.03130  0.26239  1.0000
  H   H221      1.0  0.39953  0.30297  0.35080  1.0000
  H   H222      1.0  0.54735  0.13950  0.38857  1.0000
  H   H223      1.0  0.39304  0.39670  0.33907  1.0000
  H   H224      1.0  0.52280  0.26141  0.15392  1.0000
  C   C275      1.0  0.57475  0.36698  0.15088  1.0000
  C   C276      1.0  0.53739  0.10036  0.38800  1.0000
  C   C277      1.0  0.61664  0.07730  0.42454  1.0000
  P   P10       1.0  0.45274  0.01450  0.44562  1.0000
  C   C278      1.0  0.42679  0.00079  0.38449  1.0000
  C   C279      1.0  0.50480  0.30176  0.47553  1.0000
  S   S33       1.0  0.58679  0.38741  0.00522  1.0000
  S   S34       1.0  0.46353  0.02763  0.20028  1.0000
  C   C280      1.0  0.52353  0.21213  0.47081  1.0000
  C   C281      1.0  0.43965  0.36257  0.01357  1.0000
  C   C282      1.0  0.45221  0.37388  0.04375  1.0000
  H   H225      1.0  0.49548  0.04086  0.11076  1.0000
  C   C283      1.0  0.55115  0.22545  0.48511  1.0000
  C   C284      1.0  0.44332  0.06726  0.11631  1.0000
  H   H226      1.0  0.58517  0.46379  0.07505  1.0000
  C   C285      1.0  0.41896  0.04752  0.06597  1.0000
  C   C286      1.0  0.41303  0.44778  0.01810  1.0000
  C   C287      1.0  0.62858  0.30938  0.47764  1.0000
  H   H227      1.0  0.53238  0.43923  0.45977  1.0000
  C   C288      1.0  0.49277  0.03484  0.41256  1.0000
  H   H228      1.0  0.45505  0.43099  0.08433  1.0000
  Fe  Fe16      1.0  0.57428  0.30117  0.01049  1.0000
  C   C289      1.0  0.61929  0.07973  0.46079  1.0000
  C   C290      1.0  0.53180  0.31499  0.49085  1.0000
  C   C291      1.0  0.42040  0.39980  0.00012  1.0000
  C   C292      1.0  0.45009  0.02343  0.04726  1.0000
  H   H229      1.0  0.39740  0.04888  0.05378  1.0000
  H   H230      1.0  0.52988  0.46744  0.00320  1.0000
  C   C293      1.0  0.34642  0.34378  0.01254  1.0000
  Fe  Fe17      1.0  0.38788  0.40746  0.49559  1.0000
  H   H231      1.0  0.44542  0.32499  0.00060  1.0000
  C   C294      1.0  0.62646  0.12007  0.40084  1.0000
  H   H232      1.0  0.38253  0.17511  0.46410  1.0000
  H   H233      1.0  0.63625  0.48243  0.02199  1.0000
  H   H234      1.0  0.62504  0.11762  0.37269  1.0000
  S   S35       1.0  0.33692  0.27962  0.49362  1.0000
  C   C295      1.0  0.56337  0.12797  0.99702  1.0000
  H   H235      1.0  0.57397  0.02660  0.07023  1.0000
  C   C296      1.0  0.64168  0.16816  0.44903  1.0000
  C   C297      1.0  0.63915  0.16536  0.41300  1.0000
  H   H236      1.0  0.64756  0.19793  0.39430  1.0000
  H   H237      1.0  0.55711  0.16901  0.00021  1.0000
  Fe  Fe18      1.0  0.31874  0.36314  0.49077  1.0000
  Fe  Fe19      1.0  0.36072  0.30705  0.53784  1.0000
  S   S36       1.0  0.35565  0.26040  0.59061  1.0000
  C   C298      1.0  0.57575  0.24801  0.65969  1.0000
  S   S37       1.0  0.33826  0.38731  0.53845  1.0000
  S   S38       1.0  0.47221  0.10193  0.73931  1.0000
  Fe  Fe20      1.0  0.48777  0.09091  0.67809  1.0000
  S   S39       1.0  0.48161  0.14418  0.63130  1.0000
  C   C299      1.0  0.51480  0.48461  0.95401  1.0000
  C   C300      1.0  0.40160  0.15819  0.51090  1.0000
  C   C301      1.0  0.39105  0.22935  0.60213  1.0000
  C   C302      1.0  0.38453  0.19848  0.63418  1.0000
  C   C303      1.0  0.41184  0.17230  0.64382  1.0000
  C   C304      1.0  0.44602  0.17673  0.62139  1.0000
  C   C305      1.0  0.45256  0.20775  0.58942  1.0000
  C   C306      1.0  0.42532  0.23409  0.57990  1.0000
  H   H238      1.0  0.35814  0.19452  0.65159  1.0000
  H   H239      1.0  0.40638  0.14854  0.66847  1.0000
  H   H240      1.0  0.47881  0.21124  0.57169  1.0000
  H   H241      1.0  0.43080  0.25755  0.55515  1.0000
  Fe  Fe21      1.0  0.61131  0.28028  0.92954  1.0000
  S   S40       1.0  0.55650  0.30027  0.95915  1.0000
  H   H242      1.0  0.61917  0.07697  0.68266  1.0000
  Fe  Fe22      1.0  0.57393  0.38331  0.95105  1.0000
  S   S41       1.0  0.54199  0.43788  0.92635  1.0000
  C   C307      1.0  0.43273  0.33744  0.93273  1.0000
  Fe  Fe23      1.0  0.52895  0.09921  0.73697  1.0000
  S   S42       1.0  0.54760  0.16951  0.76349  1.0000
  S   S43       1.0  0.54468  0.09241  0.67543  1.0000
  C   C308      1.0  0.59547  0.19676  0.85964  1.0000
  C   C309      1.0  0.55938  0.43903  0.58720  1.0000
  C   C310      1.0  0.56377  0.22744  0.81719  1.0000
  C   C311      1.0  0.56393  0.17736  0.80231  1.0000
  C   C312      1.0  0.57905  0.13654  0.81701  1.0000
  C   C313      1.0  0.59523  0.14643  0.84515  1.0000
  H   H243      1.0  0.35358  0.46952  0.96878  1.0000
  C   C314      1.0  0.63910  0.33795  0.61540  1.0000
  H   H244      1.0  0.57927  0.09776  0.80595  1.0000
  H   H245      1.0  0.39097  0.28804  0.92545  1.0000
  Fe  Fe24      1.0  0.54029  0.00570  0.68306  1.0000
  H   H246      1.0  0.38296  0.06932  0.83722  1.0000
  H   H247      1.0  0.47229  0.03687  0.58855  1.0000
  C   C315      1.0  0.51383  0.49133  0.99090  1.0000
  C   C316      1.0  0.43820  0.00436  0.93564  1.0000
  P   P11       1.0  0.40467  0.38564  0.96067  1.0000
  H   H248      1.0  0.45487  0.43179  0.66988  1.0000
  C   C317      1.0  0.47715  0.26271  0.89029  1.0000
  C   C318      1.0  0.45826  0.11274  0.97330  1.0000
  H   H249      1.0  0.42451  0.13183  0.55306  1.0000
  H   H250      1.0  0.48037  0.37644  0.93459  1.0000
  P   P12       1.0  0.46902  0.05185  0.90926  1.0000
  C   C319      1.0  0.37526  0.47841  0.94512  1.0000
  H   H251      1.0  0.49437  0.23397  0.87397  1.0000
  H   H252      1.0  0.61108  0.33487  0.62445  1.0000
  H   H253      1.0  0.64679  0.00688  0.60543  1.0000
  H   H254      1.0  0.49240  0.13833  0.85669  1.0000
  C   C320      1.0  0.54696  0.07497  0.52542  1.0000
  C   C321      1.0  0.40403  0.44489  0.93474  1.0000
  C   C322      1.0  0.45708  0.41805  0.64238  1.0000
  H   H255      1.0  0.61470  0.14213  0.96119  1.0000
  H   H256      1.0  0.60325  0.00711  0.57071  1.0000
  C   C323      1.0  0.46244  0.37954  0.57201  1.0000
  S   S44       1.0  0.53024  0.01233  0.74487  1.0000
  C   C324      1.0  0.56537  0.02798  0.52132  1.0000
  H   H257      1.0  0.55187  0.47342  0.60394  1.0000
  H   H258      1.0  0.51915  0.31126  0.89700  1.0000
  H   H259      1.0  0.52581  0.12856  0.89600  1.0000
  C   C325      1.0  0.50837  0.13557  0.92299  1.0000
  C   C326      1.0  0.55378  0.38950  0.60327  1.0000
  C   C327      1.0  0.59610  0.11285  0.97539  1.0000
  H   H260      1.0  0.43012  0.22267  0.88857  1.0000
  H   H261      1.0  0.43627  0.08828  0.98595  1.0000
  C   C328      1.0  0.49430  0.18672  0.97865  1.0000
  H   H262      1.0  0.52594  0.22776  0.65142  1.0000
  C   C329      1.0  0.44918  0.45057  0.61582  1.0000
  S   S45       1.0  0.62834  0.36386  0.91733  1.0000
  S   S46       1.0  0.41183  0.32955  0.49903  1.0000
  C   C330      1.0  0.58131  0.02282  0.99200  1.0000
  H   H263      1.0  0.32548  0.47063  0.59690  1.0000
  C   C331      1.0  0.44100  0.25645  0.89847  1.0000
  C   C332      1.0  0.53935  0.24779  0.66878  1.0000
  C   C333      1.0  0.52015  0.27148  0.70113  1.0000
  C   C334      1.0  0.53737  0.29604  0.72408  1.0000
  C   C335      1.0  0.57381  0.29608  0.71512  1.0000
  C   C336      1.0  0.59327  0.27116  0.68311  1.0000
  H   H264      1.0  0.49193  0.26967  0.70882  1.0000
  H   H265      1.0  0.52245  0.31344  0.74956  1.0000
  H   H266      1.0  0.58646  0.31425  0.73380  1.0000
  H   H267      1.0  0.53609  0.03551  0.92589  1.0000
  H   H268      1.0  0.64868  0.24125  0.79883  1.0000
  C   C337      1.0  0.45323  0.14831  0.82870  1.0000
  C   C338      1.0  0.42202  0.12968  0.82352  1.0000
  C   C339      1.0  0.40587  0.08594  0.84303  1.0000
  H   H269      1.0  0.54443  0.21532  0.56179  1.0000
  C   C340      1.0  0.45066  0.08181  0.87542  1.0000
  C   C341      1.0  0.46764  0.12425  0.85429  1.0000
  H   H270      1.0  0.46690  0.18038  0.81204  1.0000
  H   H271      1.0  0.41124  0.14751  0.80308  1.0000
  C   C342      1.0  0.64049  0.02403  0.51812  1.0000
  C   C343      1.0  0.51332  0.07785  0.54916  1.0000
  H   H272      1.0  0.60788  0.11501  0.85555  1.0000
  C   C344      1.0  0.36034  0.36166  0.97627  1.0000
  H   H273      1.0  0.63055  0.21732  0.74364  1.0000
  H   H274      1.0  0.47295  0.34129  0.65442  1.0000
  H   H275      1.0  0.38911  0.19164  0.52633  1.0000
  C   C345      1.0  0.61093  0.15163  0.58260  1.0000
  C   C346      1.0  0.50859  0.01937  0.88498  1.0000
  H   H276      1.0  0.53856  0.20108  0.93194  1.0000
  H   H277      1.0  0.47848  0.30784  0.59185  1.0000
  H   H278      1.0  0.45392  0.05698  0.51763  1.0000
  H   H279      1.0  0.59034  0.22887  0.63495  1.0000
  C   C347      1.0  0.46744  0.36661  0.63374  1.0000
  H   H280      1.0  0.55560  0.13843  0.59579  1.0000
  C   C348      1.0  0.45169  0.43070  0.58068  1.0000
  C   C349      1.0  0.57454  0.44427  0.54938  1.0000
  C   C350      1.0  0.41882  0.29376  0.91947  1.0000
  C   C351      1.0  0.63019  0.01491  0.55620  1.0000
  C   C352      1.0  0.46579  0.15425  0.99373  1.0000
  C   C353      1.0  0.42169  0.12468  0.52585  1.0000
  C   C354      1.0  0.57880  0.35015  0.54359  1.0000
  C   C355      1.0  0.33886  0.36316  0.95241  1.0000
  C   C356      1.0  0.47039  0.34755  0.59850  1.0000
  C   C357      1.0  0.47917  0.10341  0.93742  1.0000
  H   H281      1.0  0.37371  0.45527  0.62459  1.0000
  C   C358      1.0  0.63269  0.22713  0.54434  1.0000
  C   C359      1.0  0.56309  0.34514  0.58152  1.0000
  H   H282      1.0  0.46401  0.36456  0.54489  1.0000
  H   H283      1.0  0.45477  0.43401  0.89596  1.0000
  S   S47       1.0  0.61887  0.20859  0.89253  1.0000
  C   C360      1.0  0.59886  0.23842  0.54207  1.0000
  H   H284      1.0  0.57922  0.27595  0.85669  1.0000
  C   C361      1.0  0.49114  0.30616  0.90324  1.0000
  C   C362      1.0  0.43193  0.45823  0.90427  1.0000
  H   H285      1.0  0.55231  0.25936  0.80590  1.0000
  H   H286      1.0  0.54192  0.38548  0.63259  1.0000
  H   H287      1.0  0.49940  0.11443  0.55291  1.0000
  C   C363      1.0  0.57716  0.16312  0.58122  1.0000
  C   C364      1.0  0.57895  0.23698  0.84606  1.0000
  C   C365      1.0  0.49791  0.03398  0.56916  1.0000
  C   C366      1.0  0.51577  0.17700  0.94340  1.0000
  C   C367      1.0  0.57101  0.20675  0.56168  1.0000
  C   C368      1.0  0.46907  0.34324  0.92443  1.0000
  S   S48       1.0  0.62905  0.27801  0.98133  1.0000
  H   H288      1.0  0.60275  0.16848  0.69460  1.0000
  H   H289      1.0  0.50031  0.21861  0.99465  1.0000
  C   C369      1.0  0.58427  0.40011  0.52763  1.0000
  H   H290      1.0  0.61546  0.11812  0.59822  1.0000
  Fe  Fe25      1.0  0.47393  0.01422  0.74469  1.0000
  H   H291      1.0  0.55794  0.30717  0.59440  1.0000
  C   C370      1.0  0.42026  0.06170  0.86858  1.0000
  P   P13       1.0  0.59059  0.29328  0.51511  1.0000
  C   C371      1.0  0.64545  0.25278  0.74329  1.0000
  H   H292      1.0  0.40800  0.02647  0.88190  1.0000
  P   P14       1.0  0.64032  0.26737  0.67197  1.0000
  H   H293      1.0  0.39669  0.05999  0.95529  1.0000
  C   C372      1.0  0.43783  0.08167  0.50589  1.0000
  C   C373      1.0  0.63791  0.10747  0.67105  1.0000
  H   H294      1.0  0.44508  0.45473  0.56002  1.0000
  C   C374      1.0  0.53716  0.01719  0.89987  1.0000
  C   C375      1.0  0.62863  0.15970  0.67751  1.0000
  Fe  Fe26      1.0  0.64107  0.36471  0.97201  1.0000
  H   H295      1.0  0.34891  0.37717  0.92441  1.0000
  H   H296      1.0  0.57867  0.48260  0.53667  1.0000
  C   C376      1.0  0.63861  0.18400  0.56457  1.0000
  S   S49       1.0  0.48409  0.00312  0.68304  1.0000
  C   C377      1.0  0.60513  0.06029  0.97300  1.0000
  C   C378      1.0  0.37305  0.49134  0.60982  1.0000
  H   H297      1.0  0.63100  0.04887  0.95719  1.0000
  S   S50       1.0  0.40897  0.48776  0.50156  1.0000
  H   H298      1.0  0.55862  0.10959  0.51086  1.0000
  H   H299      1.0  0.63801  0.39389  0.57295  1.0000
  H   H300      1.0  0.63934  0.10721  0.75400  1.0000
  C   C379      1.0  0.40454  0.01973  0.95554  1.0000
  H   H301      1.0  0.63362  0.12863  0.50074  1.0000
  H   H302      1.0  0.53450  0.35515  0.49814  1.0000
  H   H303      1.0  0.59560  0.40528  0.49828  1.0000
  C   C380      1.0  0.55504  0.27673  0.49609  1.0000
  H   H304      1.0  0.49077  0.53358  0.04069  1.0000
  Fe  Fe27      1.0  0.36937  0.75905  0.02342  1.0000
  S   S51       1.0  0.35875  0.82746  0.06351  1.0000
  S   S52       1.0  0.35495  0.67458  0.03542  1.0000
  Fe  Fe28      1.0  0.46633  0.94059  0.20637  1.0000
  S   S53       1.0  0.45428  0.87471  0.17066  1.0000
  S   S54       1.0  0.44757  0.94389  0.26832  1.0000
  C   C381      1.0  0.38728  0.84254  0.09097  1.0000
  C   C382      1.0  0.38398  0.89021  0.10983  1.0000
  C   C383      1.0  0.40486  0.90176  0.13357  1.0000
  C   C384      1.0  0.42905  0.86537  0.13897  1.0000
  C   C385      1.0  0.43288  0.81842  0.11934  1.0000
  C   C386      1.0  0.41236  0.80716  0.09536  1.0000
  H   H305      1.0  0.36495  0.91815  0.10635  1.0000
  H   H306      1.0  0.40174  0.93821  0.14828  1.0000
  H   H307      1.0  0.45131  0.78986  0.12347  1.0000
  H   H308      1.0  0.41512  0.77026  0.08125  1.0000
  H   H309      1.0  0.45628  0.80702  0.33141  1.0000
  C   C387      1.0  0.36834  0.68210  0.13745  1.0000
  Fe  Fe29      1.0  0.61765  0.71089  0.41787  1.0000
  S   S55       1.0  0.56756  0.69104  0.45979  1.0000
  S   S56       1.0  0.62176  0.74973  0.36207  1.0000
  H   H310      1.0  0.50012  0.96184  0.38340  1.0000
  C   C388      1.0  0.39095  0.96627  0.44233  1.0000
  C   C389      1.0  0.53814  0.59754  0.38211  1.0000
  S   S57       1.0  0.52274  0.94088  0.20687  1.0000
  Fe  Fe30      1.0  0.50394  0.94887  0.26839  1.0000
  S   S58       1.0  0.51416  0.90518  0.31779  1.0000
  S   S59       1.0  0.63959  0.63050  0.41955  1.0000
  C   C390      1.0  0.55726  0.53248  0.06686  1.0000
  C   C391      1.0  0.59098  0.79158  0.34995  1.0000
  C   C392      1.0  0.59799  0.81067  0.31365  1.0000
  C   C393      1.0  0.57474  0.84486  0.30308  1.0000
  C   C394      1.0  0.54416  0.86074  0.32883  1.0000
  C   C395      1.0  0.53719  0.84165  0.36516  1.0000
  C   C396      1.0  0.56025  0.80708  0.37562  1.0000
  H   H311      1.0  0.62164  0.79899  0.29350  1.0000
  H   H312      1.0  0.58059  0.85912  0.27507  1.0000
  H   H313      1.0  0.51381  0.85373  0.38545  1.0000
  H   H314      1.0  0.55445  0.79296  0.40366  1.0000
  H   H315      1.0  0.61873  0.83740  0.40900  1.0000
  H   H316      1.0  0.38183  0.65237  0.11864  1.0000
  H   H317      1.0  0.47307  0.72473  0.04269  1.0000
  H   H318      1.0  0.53539  0.60244  0.05220  1.0000
  H   H319      1.0  0.56998  0.89837  0.41283  1.0000
  C   C397      1.0  0.58666  0.95227  0.44812  1.0000
  C   C398      1.0  0.49188  0.52909  0.01201  1.0000
  H   H320      1.0  0.51111  0.59782  0.49327  1.0000
  C   C399      1.0  0.36921  0.75007  0.18125  1.0000
  C   C400      1.0  0.61681  0.87267  0.42496  1.0000
  C   C401      1.0  0.49663  0.89450  0.49006  1.0000
  Fe  Fe31      1.0  0.40924  0.65837  0.00024  1.0000
  C   C402      1.0  0.38640  0.71127  0.15739  1.0000
  C   C403      1.0  0.53840  0.96159  0.07223  1.0000
  H   H321      1.0  0.60297  0.98737  0.11305  1.0000
  C   C404      1.0  0.57316  0.73967  0.02498  1.0000
  C   C405      1.0  0.37201  0.95789  0.38706  1.0000
  C   C406      1.0  0.61215  0.96421  0.46608  1.0000
  H   H322      1.0  0.35141  0.54589  0.47736  1.0000
  H   H323      1.0  0.38665  0.69925  0.39505  1.0000
  H   H324      1.0  0.51203  0.65652  0.00925  1.0000
  H   H325      1.0  0.49407  0.69019  0.47464  1.0000
  H   H326      1.0  0.45293  0.57531  0.42548  1.0000
  C   C407      1.0  0.52321  0.69034  0.01888  1.0000
  S   S60       1.0  0.57096  0.53110  0.46566  1.0000
  C   C408      1.0  0.58924  0.90696  0.42729  1.0000
  H   H327      1.0  0.55519  0.98831  0.33893  1.0000
  H   H328      1.0  0.50696  0.52823  0.39759  1.0000
  H   H329      1.0  0.42796  0.79482  0.46740  1.0000
  H   H330      1.0  0.56259  0.67298  0.37079  1.0000
  C   C409      1.0  0.35891  0.57985  0.45975  1.0000
  C   C410      1.0  0.52681  0.91391  0.08975  1.0000
  C   C411      1.0  0.54347  0.89197  0.11422  1.0000
  C   C412      1.0  0.57163  0.91761  0.12170  1.0000
  C   C413      1.0  0.50707  0.57040  0.39726  1.0000
  H   H331      1.0  0.56155  0.81291  0.05313  1.0000
  H   H332      1.0  0.44493  0.88651  0.36911  1.0000
  C   C414      1.0  0.58664  0.58810  0.01536  1.0000
  H   H333      1.0  0.40600  0.99152  0.33806  1.0000
  H   H334      1.0  0.32101  0.78989  0.20387  1.0000
  C   C415      1.0  0.36637  0.94925  0.42472  1.0000
  H   H335      1.0  0.50899  0.72111  0.39955  1.0000
  H   H336      1.0  0.43184  0.87988  0.43708  1.0000
  C   C416      1.0  0.55948  0.69519  0.01242  1.0000
  C   C417      1.0  0.47635  0.59748  0.41325  1.0000
  H   H337      1.0  0.50988  0.93814  0.44013  1.0000
  C   C418      1.0  0.56575  0.98822  0.08126  1.0000
  H   H338      1.0  0.46194  0.91119  0.05461  1.0000
  C   C419      1.0  0.37939  0.66608  0.41327  1.0000
  H   H339      1.0  0.50447  0.89395  0.08545  1.0000
  H   H340      1.0  0.53374  0.85584  0.12835  1.0000
  H   H341      1.0  0.58409  0.90107  0.14123  1.0000
  C   C420      1.0  0.53845  0.65187  0.38244  1.0000
  C   C421      1.0  0.50102  0.72915  0.03768  1.0000
  C   C422      1.0  0.33393  0.75978  0.18517  1.0000
  C   C423      1.0  0.58241  0.96605  0.10565  1.0000
  H   H342      1.0  0.44792  0.83899  0.01897  1.0000
  H   H343      1.0  0.35287  0.94528  0.37336  1.0000
  H   H344      1.0  0.45290  0.72041  0.36119  1.0000
  C   C424      1.0  0.50786  0.67906  0.39866  1.0000
  C   C425      1.0  0.47654  0.65210  0.41444  1.0000
  S   S61       1.0  0.44239  0.60528  0.02454  1.0000
  C   C426      1.0  0.50736  0.93706  0.01172  1.0000
  C   C427      1.0  0.43818  0.69602  0.48565  1.0000
  C   C428      1.0  0.42175  0.99124  0.42223  1.0000
  P   P15       1.0  0.43796  0.68769  0.43829  1.0000
  C   C429      1.0  0.39918  0.65167  0.43722  1.0000
  C   C430      1.0  0.43932  0.75084  0.41663  1.0000
  C   C431      1.0  0.44752  0.75491  0.37813  1.0000
  C   C432      1.0  0.44928  0.80373  0.36116  1.0000
  C   C433      1.0  0.44303  0.84874  0.38245  1.0000
  C   C434      1.0  0.43557  0.84504  0.42068  1.0000
  C   C435      1.0  0.43356  0.79639  0.43778  1.0000
  C   C436      1.0  0.38839  0.60870  0.46077  1.0000
  H   H345      1.0  0.52002  0.87098  0.48222  1.0000
  Fe  Fe32      1.0  0.59143  0.61344  0.46516  1.0000
  C   C437      1.0  0.34967  0.63744  0.41258  1.0000
  H   H346      1.0  0.56209  0.57646  0.37057  1.0000
  C   C438      1.0  0.45405  0.49916  0.49153  1.0000
  H   H347      1.0  0.34271  0.92990  0.44032  1.0000
  C   C439      1.0  0.51484  0.77336  0.04992  1.0000
  C   C440      1.0  0.33957  0.59415  0.43562  1.0000
  C   C441      1.0  0.58560  0.49857  0.05862  1.0000
  C   C442      1.0  0.46058  0.96392  0.47623  1.0000
  H   H348      1.0  0.38566  0.96010  0.47161  1.0000
  C   C443      1.0  0.61476  0.55330  0.00700  1.0000
  C   C444      1.0  0.61435  0.50901  0.02870  1.0000
  H   H349      1.0  0.49762  0.80350  0.06430  1.0000
  H   H350      1.0  0.40308  0.59678  0.47952  1.0000
  C   C445      1.0  0.47850  0.90460  0.02703  1.0000
  H   H351      1.0  0.41388  0.70439  0.15396  1.0000
  C   C446      1.0  0.47044  0.86330  0.00691  1.0000
  C   C447      1.0  0.55087  0.77863  0.04359  1.0000
  C   C448      1.0  0.55774  0.57710  0.04536  1.0000
  H   H352      1.0  0.56501  0.97833  0.44990  1.0000
  C   C449      1.0  0.52590  0.51977  0.47561  1.0000
  H   H353      1.0  0.38348  0.77328  0.19620  1.0000
  S   S62       1.0  0.64420  0.74180  0.45906  1.0000
  P   P16       1.0  0.51798  0.98903  0.03923  1.0000
  H   H354      1.0  0.53474  0.52398  0.08972  1.0000
  H   H355      1.0  0.60095  0.74466  0.02037  1.0000
  C   C450      1.0  0.49073  0.93304  0.46622  1.0000
  C   C451      1.0  0.33303  0.69160  0.14139  1.0000
  H   H356      1.0  0.64192  0.65366  0.02569  1.0000
  C   C452      1.0  0.40208  0.98382  0.36708  1.0000
  C   C453      1.0  0.64191  0.88374  0.44330  1.0000
  H   H357      1.0  0.33448  0.64862  0.39404  1.0000
  C   C454      1.0  0.50197  0.55930  0.48912  1.0000
  C   C455      1.0  0.63967  0.92931  0.46382  1.0000
  C   C456      1.0  0.46975  0.69701  0.49512  1.0000
  C   C457      1.0  0.47064  0.56005  0.99649  1.0000
  H   H358      1.0  0.31950  0.66783  0.12614  1.0000
  S   S63       1.0  0.39422  0.65279  0.94724  1.0000
  Fe  Fe33      1.0  0.59442  0.71924  0.50156  1.0000
  Fe  Fe34      1.0  0.40481  0.73972  0.94184  1.0000
  S   S64       1.0  0.44266  0.77859  0.89163  1.0000
  C   C458      1.0  0.55370  0.60354  0.88343  1.0000
  C   C459      1.0  0.56926  0.96614  0.84800  1.0000
  C   C460      1.0  0.58209  0.57984  0.93013  1.0000
  H   H359      1.0  0.53096  0.67998  0.88825  1.0000
  S   S65       1.0  0.43116  0.97527  0.79050  1.0000
  C   C461      1.0  0.43906  0.83493  0.86509  1.0000
  C   C462      1.0  0.40846  0.86415  0.87160  1.0000
  C   C463      1.0  0.40667  0.90733  0.84888  1.0000
  C   C464      1.0  0.43537  0.92197  0.81941  1.0000
  C   C465      1.0  0.46618  0.89340  0.81341  1.0000
  C   C466      1.0  0.46797  0.85028  0.83611  1.0000
  H   H360      1.0  0.38601  0.85303  0.89376  1.0000
  H   H361      1.0  0.38270  0.92907  0.85384  1.0000
  H   H362      1.0  0.48839  0.90385  0.79079  1.0000
  H   H363      1.0  0.49177  0.82804  0.83075  1.0000
  H   H364      1.0  0.47315  0.53419  0.68101  1.0000
  H   H365      1.0  0.45287  0.51475  0.86156  1.0000
  C   C467      1.0  0.47185  0.55365  0.95950  1.0000
  C   C468      1.0  0.52757  0.92769  0.97557  1.0000
  H   H366      1.0  0.58950  0.98264  0.99161  1.0000
  S   S66       1.0  0.55738  0.76892  0.54557  1.0000
  H   H367      1.0  0.35197  0.54975  0.93344  1.0000
  S   S67       1.0  0.58329  0.95790  0.64481  1.0000
  C   C469      1.0  0.38919  0.93033  0.97385  1.0000
  C   C470      1.0  0.56551  0.82270  0.57164  1.0000
  C   C471      1.0  0.59904  0.84232  0.56812  1.0000
  C   C472      1.0  0.60405  0.88394  0.59045  1.0000
  C   C473      1.0  0.57566  0.90661  0.61638  1.0000
  C   C474      1.0  0.54211  0.88762  0.61932  1.0000
  C   C475      1.0  0.53712  0.84599  0.59710  1.0000
  H   H368      1.0  0.62115  0.82490  0.54866  1.0000
  H   H369      1.0  0.63014  0.89815  0.58793  1.0000
  H   H370      1.0  0.52005  0.90436  0.63924  1.0000
  H   H371      1.0  0.51108  0.83116  0.60014  1.0000
  C   C476      1.0  0.52654  0.58266  0.56532  1.0000
  C   C477      1.0  0.57397  0.62860  0.94677  1.0000
  H   H372      1.0  0.42810  0.87326  0.95053  1.0000
  H   H373      1.0  0.54998  0.70328  0.94273  1.0000
  H   H374      1.0  0.45571  0.57743  0.94723  1.0000
  H   H375      1.0  0.59572  0.55084  0.94162  1.0000
  C   C478      1.0  0.55608  0.66503  0.93095  1.0000
  H   H376      1.0  0.39150  0.54537  0.78179  1.0000
  C   C479      1.0  0.39957  0.52876  0.60606  1.0000
  C   C480      1.0  0.44650  0.95112  0.93406  1.0000
  C   C481      1.0  0.44560  0.53330  0.69525  1.0000
  C   C482      1.0  0.34486  0.54526  0.57395  1.0000
  H   H377      1.0  0.40153  0.57287  0.87995  1.0000
  Fe  Fe35      1.0  0.34000  0.67284  0.98196  1.0000
  H   H378      1.0  0.49518  0.51171  0.90964  1.0000
  H   H379      1.0  0.37104  0.61684  0.55328  1.0000
  H   H380      1.0  0.54655  0.65970  0.56967  1.0000
  C   C483      1.0  0.47044  0.56176  0.60799  1.0000
  C   C484      1.0  0.49111  0.85369  0.97128  1.0000
  H   H381      1.0  0.43972  0.72519  0.58609  1.0000
  C   C485      1.0  0.44231  0.91621  0.53431  1.0000
  C   C486      1.0  0.37425  0.52401  0.92516  1.0000
  H   H382      1.0  0.49575  0.68616  0.61998  1.0000
  H   H383      1.0  0.54852  0.57164  0.54267  1.0000
  C   C487      1.0  0.38521  0.52427  0.69499  1.0000
  C   C488      1.0  0.42074  0.52520  0.67572  1.0000
  C   C489      1.0  0.46912  0.61227  0.62242  1.0000
  H   H384      1.0  0.56323  0.94700  0.53845  1.0000
  C   C490      1.0  0.39855  0.57443  0.58582  1.0000
  H   H385      1.0  0.50406  0.95297  0.58064  1.0000
  S   S68       1.0  0.61408  0.63899  0.51041  1.0000
  C   C491      1.0  0.49912  0.54750  0.57887  1.0000
  C   C492      1.0  0.39967  0.53957  0.75227  1.0000
  C   C493      1.0  0.49660  0.64729  0.60872  1.0000
  C   C494      1.0  0.40212  0.53696  0.89492  1.0000
  H   H386      1.0  0.41907  0.60329  0.58153  1.0000
  H   H387      1.0  0.54528  0.59335  0.85946  1.0000
  H   H388      1.0  0.59266  0.94561  0.83361  1.0000
  P   P17       1.0  0.43487  0.51682  0.62636  1.0000
  C   C495      1.0  0.54561  0.65223  0.89970  1.0000
  C   C496      1.0  0.51948  0.88615  0.95553  1.0000
  C   C497      1.0  0.43917  0.71697  0.55818  1.0000
  H   H389      1.0  0.53501  0.87924  0.92758  1.0000
  C   C498      1.0  0.63237  0.66864  0.97282  1.0000
  C   C499      1.0  0.52535  0.63239  0.58031  1.0000
  C   C500      1.0  0.37128  0.58247  0.56979  1.0000
  S   S69       1.0  0.34980  0.76008  0.97276  1.0000
  H   H390      1.0  0.48469  0.82173  0.95559  1.0000
  C   C501      1.0  0.37479  0.53139  0.73311  1.0000
  S   S70       1.0  0.42433  0.74250  0.99214  1.0000
  H   H391      1.0  0.54938  0.95225  0.96242  1.0000
  H   H392      1.0  0.63228  0.68757  0.91692  1.0000
  H   H393      1.0  0.44692  0.62458  0.64434  1.0000
  C   C502      1.0  0.57223  0.56763  0.89842  1.0000
  C   C503      1.0  0.43095  0.50416  0.88454  1.0000
  H   H394      1.0  0.47144  0.93730  0.91761  1.0000
  C   C504      1.0  0.47024  0.70725  0.53122  1.0000
  H   H395      1.0  0.50044  0.50964  0.56621  1.0000
  H   H396      1.0  0.47738  0.85649  0.54260  1.0000
  C   C505      1.0  0.51049  0.99406  0.85170  1.0000
  C   C506      1.0  0.43506  0.54052  0.73334  1.0000
  H   H397      1.0  0.63713  0.56041  0.98371  1.0000
  H   H398      1.0  0.38349  0.72469  0.56980  1.0000
  H   H399      1.0  0.42363  0.90983  0.56084  1.0000
  C   C507      1.0  0.34564  0.49987  0.59415  1.0000
  H   H400      1.0  0.45434  0.54715  0.74821  1.0000
  C   C508      1.0  0.40705  0.70645  0.51278  1.0000
  H   H401      1.0  0.54175  0.94725  0.80801  1.0000
  P   P18       1.0  0.58783  0.64535  0.98695  1.0000
  H   H402      1.0  0.58970  0.99034  0.89247  1.0000
  H   H403      1.0  0.36539  0.51836  0.68086  1.0000
  H   H404      1.0  0.49490  0.70827  0.53809  1.0000
  H   H405      1.0  0.34733  0.53078  0.74784  1.0000
  C   C509      1.0  0.43626  0.95467  0.51048  1.0000
  C   C510      1.0  0.42197  0.91440  0.95285  1.0000
  H   H406      1.0  0.48852  0.99442  0.84002  1.0000
  C   C511      1.0  0.40757  0.71666  0.54896  1.0000
  H   H407      1.0  0.41272  0.97757  0.51908  1.0000
  C   C512      1.0  0.54067  0.96729  0.83345  1.0000
  C   C513      1.0  0.49396  0.51611  0.93835  1.0000
  C   C514      1.0  0.51587  0.98686  0.56485  1.0000
  H   H408      1.0  0.57810  0.52955  0.88614  1.0000
  H   H409      1.0  0.44775  0.57935  0.50856  1.0000
  C   C515      1.0  0.54943  0.98370  0.54091  1.0000
  H   H410      1.0  0.37041  0.90158  0.98853  1.0000
  C   C516      1.0  0.38039  0.98298  0.97503  1.0000
  H   H411      1.0  0.38245  0.70727  0.50586  1.0000
  C   C517      1.0  0.47251  0.88618  0.52412  1.0000
  C   C518      1.0  0.64738  0.68620  0.93667  1.0000
  H   H412      1.0  0.35454  0.99504  0.99038  1.0000
  C   C519      1.0  0.56753  0.99118  0.88117  1.0000
  H   H413      1.0  0.32433  0.55097  0.56068  1.0000
  C   C520      1.0  0.46610  0.54878  0.49758  1.0000
  Fe  Fe36      1.0  0.96105  0.00198  0.23533  1.0000
  S   S71       1.0  0.85992  0.36001  0.41903  1.0000
  C   C521      1.0  0.91944  0.24924  0.24180  1.0000
  Fe  Fe37      1.0  0.86327  0.27356  0.42646  1.0000
  S   S72       1.0  0.85167  0.22140  0.38224  1.0000
  H   H414      1.0  0.96263  0.13310  0.20139  1.0000
  H   H415      1.0  0.91537  0.10507  0.11443  1.0000
  H   H416      1.0  0.85058  0.99741  0.28817  1.0000
  C   C522      1.0  0.95550  0.14759  0.17755  1.0000
  H   H417      1.0  0.95582  0.25682  0.12581  1.0000
  H   H418      1.0  0.80092  0.29610  0.36039  1.0000
  C   C523      1.0  0.95517  0.26088  0.23331  1.0000
  C   C524      1.0  0.87209  0.17466  0.34839  1.0000
  C   C525      1.0  0.90655  0.15684  0.34227  1.0000
  C   C526      1.0  0.92045  0.11992  0.31410  1.0000
  C   C527      1.0  0.90001  0.10131  0.29180  1.0000
  C   C528      1.0  0.86597  0.11985  0.29802  1.0000
  C   C529      1.0  0.85213  0.15557  0.32606  1.0000
  H   H419      1.0  0.92236  0.17127  0.35920  1.0000
  H   H420      1.0  0.94684  0.10614  0.30960  1.0000
  H   H421      1.0  0.84995  0.10624  0.28104  1.0000
  H   H422      1.0  0.82566  0.16888  0.33026  1.0000
  C   C530      1.0  0.93830  0.11400  0.15932  1.0000
  H   H423      1.0  0.97036  0.37922  0.04452  1.0000
  C   C531      1.0  0.79879  0.42545  0.37985  1.0000
  C   C532      1.0  0.95599  0.45954  0.47931  1.0000
  C   C533      1.0  0.96273  0.19923  0.16541  1.0000
  H   H424      1.0  0.92727  0.19653  0.09293  1.0000
  H   H425      1.0  0.84591  0.42401  0.28968  1.0000
  C   C534      1.0  0.65827  0.33110  0.48505  1.0000
  C   C535      1.0  0.97298  0.34930  0.02383  1.0000
  H   H426      1.0  0.77746  0.35737  0.41168  1.0000
  S   S73       1.0  0.82438  0.27617  0.48225  1.0000
  C   C536      1.0  0.68777  0.33492  0.41995  1.0000
  H   H427      1.0  0.93225  0.07457  0.16943  1.0000
  H   H428      1.0  0.97541  0.43701  0.32584  1.0000
  H   H429      1.0  0.90856  0.22947  0.22226  1.0000
  C   C537      1.0  0.80519  0.33766  0.35603  1.0000
  Fe  Fe38      1.0  0.90304  0.36558  0.44637  1.0000
  Fe  Fe39      1.0  0.82376  0.36363  0.47606  1.0000
  C   C538      1.0  0.95177  0.21687  0.13515  1.0000
  H   H430      1.0  0.83427  0.33002  0.29931  1.0000
  C   C539      1.0  0.75575  0.46696  0.48075  1.0000
  C   C540      1.0  0.92850  0.13137  0.12859  1.0000
  C   C541      1.0  0.91085  0.28603  0.30253  1.0000
  C   C542      1.0  0.93518  0.18283  0.11655  1.0000
  S   S74       1.0  0.94781  0.41728  0.41549  1.0000
  H   H431      1.0  0.70210  0.44393  0.48873  1.0000
  C   C543      1.0  0.68791  0.34286  0.45638  1.0000
  H   H432      1.0  0.93401  0.43580  0.49368  1.0000
  C   C544      1.0  0.79198  0.37212  0.38491  1.0000
  H   H433      1.0  0.87018  0.25081  0.28331  1.0000
  H   H434      1.0  0.89798  0.47435  0.31330  1.0000
  H   H435      1.0  0.96894  0.25988  0.48579  1.0000
  S   S75       1.0  0.90932  0.27867  0.44955  1.0000
  S   S76       1.0  0.91447  0.05606  0.25513  1.0000
  H   H436      1.0  0.89385  0.29455  0.32958  1.0000
  C   C545      1.0  0.83122  0.41010  0.31653  1.0000
  C   C546      1.0  0.82443  0.35673  0.32176  1.0000
  S   S77       1.0  0.76944  0.40219  0.48771  1.0000
  C   C547      1.0  0.81901  0.44469  0.34583  1.0000
  C   C548      1.0  0.89745  0.26169  0.27634  1.0000
  C   C549      1.0  0.65801  0.31491  0.41215  1.0000
  C   C550      1.0  0.96851  0.28491  0.25991  1.0000
  H   H437      1.0  0.78873  0.45153  0.40271  1.0000
  C   C551      1.0  0.94637  0.29757  0.29435  1.0000
  H   H438      1.0  0.68448  0.04033  0.47101  1.0000
  H   H439      1.0  0.71064  0.34489  0.39778  1.0000
  C   C552      1.0  0.96818  0.45761  0.44103  1.0000
  H   H440      1.0  0.86558  0.46619  0.38772  1.0000
  H   H441      1.0  0.71102  0.35856  0.46235  1.0000
  H   H442      1.0  0.65775  0.30973  0.38381  1.0000
  H   H443      1.0  0.75283  0.43355  0.00223  1.0000
  C   C553      1.0  0.72038  0.47598  0.48301  1.0000
  C   C554      1.0  0.98172  0.47813  0.32202  1.0000
  H   H444      1.0  0.94703  0.49663  0.25943  1.0000
  H   H445      1.0  0.65228  0.20273  0.45829  1.0000
  H   H446      1.0  0.95680  0.31508  0.31512  1.0000
  H   H447      1.0  0.97650  0.35622  0.20422  1.0000
  P   P19       1.0  0.98444  0.24269  0.18962  1.0000
  C   C555      1.0  0.96332  0.35980  0.99166  1.0000
  S   S78       1.0  0.87183  0.22801  0.55195  1.0000
  H   H448      1.0  0.70777  0.15656  0.81121  1.0000
  C   C556      1.0  0.70968  0.02811  0.72520  1.0000
  C   C557      1.0  0.93456  0.23256  0.91746  1.0000
  H   H449      1.0  0.95170  0.14361  0.84841  1.0000
  H   H450      1.0  0.66476  0.17539  0.56607  1.0000
  C   C558      1.0  0.69001  0.02466  0.55843  1.0000
  S   S79       1.0  0.95591  0.11488  0.76579  1.0000
  S   S80       1.0  0.96293  0.03926  0.69422  1.0000
  C   C559      1.0  0.67586  0.03363  0.50045  1.0000
  H   H451      1.0  0.77523  0.32000  0.80741  1.0000
  C   C560      1.0  0.86353  0.12518  0.72870  1.0000
  C   C561      1.0  0.71440  0.46151  0.97640  1.0000
  C   C562      1.0  0.82817  0.06500  0.77301  1.0000
  H   H452      1.0  0.65866  0.33898  0.51299  1.0000
  C   C563      1.0  0.89538  0.21994  0.58566  1.0000
  C   C564      1.0  0.89660  0.17024  0.60124  1.0000
  C   C565      1.0  0.91374  0.16203  0.62894  1.0000
  C   C566      1.0  0.92913  0.20383  0.64233  1.0000
  C   C567      1.0  0.92737  0.25370  0.62716  1.0000
  C   C568      1.0  0.91117  0.26161  0.59869  1.0000
  H   H453      1.0  0.88446  0.13762  0.59154  1.0000
  H   H454      1.0  0.91480  0.12340  0.64006  1.0000
  H   H455      1.0  0.91962  0.15231  0.91437  1.0000
  H   H456      1.0  0.91027  0.30015  0.58738  1.0000
  C   C569      1.0  0.72762  0.11479  0.73825  1.0000
  C   C570      1.0  0.73605  0.06360  0.72634  1.0000
  C   C571      1.0  0.70046  0.03408  0.52057  1.0000
  H   H457      1.0  0.79081  0.26028  0.75447  1.0000
  C   C572      1.0  0.69571  0.13368  0.63590  1.0000
  C   C573      1.0  0.96864  0.01035  0.89346  1.0000
  H   H458      1.0  0.68581  0.17001  0.75540  1.0000
  H   H459      1.0  0.72195  0.12360  0.62032  1.0000
  C   C574      1.0  0.95164  0.18045  0.86230  1.0000
  H   H460      1.0  0.95060  0.03815  0.88741  1.0000
  S   S81       1.0  0.69119  0.40025  0.98232  1.0000
  H   H461      1.0  0.67880  0.05393  0.64624  1.0000
  H   H462      1.0  0.72595  0.29859  0.86186  1.0000
  H   H463      1.0  0.77277  0.07459  0.78503  1.0000
  C   C575      1.0  0.66633  0.09487  0.74646  1.0000
  C   C576      1.0  0.69630  0.31739  0.62155  1.0000
  C   C577      1.0  0.84972  0.42189  0.95045  1.0000
  H   H464      1.0  0.69521  0.38207  0.74573  1.0000
  S   S82       1.0  0.86697  0.37410  0.50377  1.0000
  C   C578      1.0  0.67147  0.09446  0.65042  1.0000
  H   H465      1.0  0.95151  0.41205  0.86581  1.0000
  H   H466      1.0  0.82709  0.34848  0.94215  1.0000
  C   C579      1.0  0.86090  0.08320  0.75286  1.0000
  H   H467      1.0  0.87954  0.48970  0.95657  1.0000
  H   H468      1.0  0.69276  0.21669  0.86347  1.0000
  Fe  Fe40      1.0  0.95389  0.02870  0.75572  1.0000
  S   S83       1.0  0.95134  0.19617  0.67730  1.0000
  H   H469      1.0  0.73953  0.35543  0.58257  1.0000
  C   C580      1.0  0.91361  0.36869  0.93386  1.0000
  C   C581      1.0  0.88268  0.34235  0.93381  1.0000
  H   H470      1.0  0.68101  0.32310  0.80006  1.0000
  Fe  Fe41      1.0  0.96988  0.12462  0.70393  1.0000
  C   C582      1.0  0.71145  0.35025  0.59179  1.0000
  C   C583      1.0  0.91204  0.42202  0.94222  1.0000
  C   C584      1.0  0.93377  0.18533  0.89946  1.0000
  H   H471      1.0  0.76293  0.05102  0.71779  1.0000
  P   P20       1.0  0.95527  0.33558  0.92236  1.0000
  C   C585      1.0  0.69267  0.13041  0.74736  1.0000
  C   C586      1.0  0.67481  0.04363  0.73552  1.0000
  C   C587      1.0  0.69045  0.37734  0.57406  1.0000
  H   H472      1.0  0.76472  0.31420  0.65778  1.0000
  H   H473      1.0  0.71293  0.29891  0.63595  1.0000
  C   C588      1.0  0.68169  0.34565  0.74482  1.0000
  H   H474      1.0  0.79928  0.26863  0.60178  1.0000
  C   C589      1.0  0.95335  0.27529  0.89840  1.0000
  C   C590      1.0  0.68637  0.18598  0.64185  1.0000
  H   H475      1.0  0.83635  0.18193  0.70587  1.0000
  H   H476      1.0  0.81432  0.17602  0.60537  1.0000
  H   H477      1.0  0.82649  0.03292  0.79220  1.0000
  H   H478      1.0  0.88278  0.30159  0.92711  1.0000
  H   H479      1.0  0.74519  0.26710  0.71693  1.0000
  H   H480      1.0  0.93885  0.28656  0.63723  1.0000
  H   H481      1.0  0.70592  0.21495  0.63047  1.0000
  H   H482      1.0  0.93540  0.44366  0.94197  1.0000
  H   H483      1.0  0.98141  0.30296  0.69317  1.0000
  H   H484      1.0  0.70234  0.40339  0.55133  1.0000
  C   C591      1.0  0.85090  0.36888  0.94219  1.0000
  H   H485      1.0  0.79709  0.12901  0.66470  1.0000
  H   H486      1.0  0.88431  0.06517  0.75627  1.0000
  H   H487      1.0  0.92094  0.23561  0.94641  1.0000
  H   H488      1.0  0.95296  0.39775  0.98834  1.0000
  C   C592      1.0  0.97110  0.27005  0.86098  1.0000
  C   C593      1.0  0.79794  0.08846  0.76867  1.0000
  C   C594      1.0  0.80036  0.12965  0.74350  1.0000
  C   C595      1.0  0.83345  0.14873  0.72423  1.0000
  P   P21       1.0  0.76135  0.16140  0.73924  1.0000
  C   C596      1.0  0.74914  0.20542  0.77776  1.0000
  C   C597      1.0  0.77072  0.19496  0.69551  1.0000
  C   C598      1.0  0.78917  0.16911  0.66348  1.0000
  C   C599      1.0  0.79892  0.19554  0.62980  1.0000
  C   C600      1.0  0.79032  0.24787  0.62778  1.0000
  C   C601      1.0  0.77098  0.27342  0.65932  1.0000
  C   C602      1.0  0.76052  0.24679  0.69297  1.0000
  C   C603      1.0  0.72209  0.19277  0.80925  1.0000
  C   C604      1.0  0.71365  0.22658  0.83924  1.0000
  C   C605      1.0  0.73247  0.27271  0.83839  1.0000
  C   C606      1.0  0.76011  0.28480  0.80767  1.0000
  C   C607      1.0  0.76869  0.25103  0.77764  1.0000
  C   C608      1.0  0.65541  0.26635  0.77475  1.0000
  C   C609      1.0  0.74434  0.46659  0.98917  1.0000
  H   H489      1.0  0.88898  0.13974  0.71363  1.0000
  C   C610      1.0  0.88030  0.44842  0.95044  1.0000
  C   C611      1.0  0.67366  0.31257  0.77546  1.0000
  C   C612      1.0  0.96803  0.32216  0.96391  1.0000
  C   C613      1.0  0.66000  0.30997  0.63323  1.0000
  Fe  Fe42      1.0  0.87051  0.28601  0.50551  1.0000
  H   H490      1.0  0.67730  0.35943  0.69045  1.0000
  C   C614      1.0  0.98381  0.27462  0.96841  1.0000
  C   C615      1.0  0.97004  0.22287  0.84305  1.0000
  H   H491      1.0  0.65436  0.01612  0.73469  1.0000
  C   C616      1.0  0.67169  0.33235  0.71332  1.0000
  H   H492      1.0  0.65475  0.25089  0.53042  1.0000
  H   H493      1.0  0.70915  0.02409  0.57392  1.0000
  C   C617      1.0  0.65493  0.01509  0.57617  1.0000
  H   H494      1.0  0.82515  0.44252  0.95668  1.0000
  H   H495      1.0  0.96568  0.39495  0.68584  1.0000
  H   H496      1.0  0.72774  0.04111  0.50670  1.0000
  C   C618      1.0  0.97794  0.41188  0.86816  1.0000
  C   C619      1.0  0.98279  0.37460  0.66290  1.0000
  C   C620      1.0  0.65427  0.37164  0.58612  1.0000
  C   C621      1.0  0.97216  0.49255  0.49916  1.0000
  H   H497      1.0  0.98427  0.21857  0.81436  1.0000
  C   C622      1.0  0.65402  0.28525  0.71207  1.0000
  C   C623      1.0  0.65261  0.19970  0.66258  1.0000
  H   H498      1.0  0.96232  0.49424  0.52879  1.0000
  H   H499      1.0  0.65931  0.93657  0.47798  1.0000
  H   H500      1.0  0.96189  0.62681  0.27241  1.0000
  S   S84       1.0  0.71718  0.63345  0.46413  1.0000
  H   H501      1.0  0.92469  0.68493  0.36149  1.0000
  C   C624      1.0  0.95694  0.69641  0.24268  1.0000
  S   S85       1.0  0.86423  0.74865  0.07436  1.0000
  C   C625      1.0  0.87155  0.87471  0.03651  1.0000
  H   H502      1.0  0.81348  0.95385  0.34388  1.0000
  Fe  Fe43      1.0  0.66175  0.65857  0.46447  1.0000
  H   H503      1.0  0.85705  0.86909  0.06504  1.0000
  S   S86       1.0  0.95699  0.91500  0.24466  1.0000
  C   C626      1.0  0.89762  0.77864  0.09066  1.0000
  C   C627      1.0  0.88819  0.81388  0.12018  1.0000
  C   C628      1.0  0.91340  0.83546  0.13588  1.0000
  C   C629      1.0  0.94844  0.82127  0.12271  1.0000
  C   C630      1.0  0.95795  0.78682  0.09278  1.0000
  C   C631      1.0  0.93286  0.76610  0.07659  1.0000
  H   H504      1.0  0.86104  0.82378  0.13144  1.0000
  H   H505      1.0  0.90553  0.86175  0.15888  1.0000
  C   C632      1.0  0.84233  0.53881  0.37743  1.0000
  H   H506      1.0  0.94065  0.73918  0.05393  1.0000
  C   C633      1.0  0.70821  0.52633  0.47793  1.0000
  H   H507      1.0  0.90878  0.72617  0.17055  1.0000
  C   C634      1.0  0.74236  0.55471  0.30515  1.0000
  H   H508      1.0  0.91842  0.89550  0.04967  1.0000
  C   C635      1.0  0.90663  0.88959  0.02754  1.0000
  H   H509      1.0  0.95109  0.59497  0.35799  1.0000
  H   H510      1.0  0.93982  0.67855  0.22841  1.0000
  H   H511      1.0  0.83435  0.58806  0.27804  1.0000
  H   H512      1.0  0.69200  0.73006  0.37548  1.0000
  H   H513      1.0  0.88129  0.59465  0.45317  1.0000
  H   H514      1.0  0.94896  0.57800  0.01425  1.0000
  C   C636      1.0  0.87517  0.52683  0.42232  1.0000
  C   C637      1.0  0.77870  0.50951  0.47375  1.0000
  H   H515      1.0  0.96433  0.77688  0.41557  1.0000
  H   H516      1.0  0.76988  0.56321  0.39550  1.0000
  C   C638      1.0  0.88214  0.72631  0.18792  1.0000
  C   C639      1.0  0.85534  0.70782  0.17411  1.0000
  C   C640      1.0  0.82084  0.70980  0.19579  1.0000
  C   C641      1.0  0.81302  0.73048  0.23128  1.0000
  C   C642      1.0  0.83981  0.74970  0.24524  1.0000
  C   C643      1.0  0.87441  0.74722  0.22328  1.0000
  P   P22       1.0  0.83079  0.77751  0.29076  1.0000
  C   C644      1.0  0.83563  0.84755  0.28867  1.0000
  C   C645      1.0  0.78688  0.76197  0.31789  1.0000
  C   C646      1.0  0.75833  0.78538  0.30922  1.0000
  C   C647      1.0  0.72426  0.77352  0.32978  1.0000
  C   C648      1.0  0.71843  0.73911  0.35958  1.0000
  C   C649      1.0  0.74663  0.71671  0.36902  1.0000
  C   C650      1.0  0.78072  0.72792  0.34828  1.0000
  C   C651      1.0  0.81994  0.87725  0.31989  1.0000
  C   C652      1.0  0.84603  0.95575  0.28819  1.0000
  C   C653      1.0  0.97550  0.73874  0.40825  1.0000
  C   C654      1.0  0.86153  0.92664  0.25694  1.0000
  C   C655      1.0  0.85637  0.87274  0.25705  1.0000
  C   C656      1.0  0.86177  0.74932  0.31218  1.0000
  C   C657      1.0  0.87993  0.78007  0.33145  1.0000
  C   C658      1.0  0.90274  0.75685  0.34898  1.0000
  C   C659      1.0  0.90758  0.70299  0.34733  1.0000
  C   C660      1.0  0.89040  0.67240  0.32733  1.0000
  C   C661      1.0  0.86755  0.69548  0.30986  1.0000
  C   C662      1.0  0.85551  0.86465  0.00878  1.0000
  H   H517      1.0  0.86122  0.69321  0.14618  1.0000
  H   H518      1.0  0.80011  0.69616  0.18465  1.0000
  H   H519      1.0  0.78609  0.73155  0.24733  1.0000
  H   H520      1.0  0.89532  0.76265  0.23327  1.0000
  H   H521      1.0  0.76242  0.81250  0.28636  1.0000
  H   H522      1.0  0.74200  0.69085  0.39267  1.0000
  H   H523      1.0  0.80193  0.71033  0.35656  1.0000
  H   H524      1.0  0.80422  0.85871  0.34475  1.0000
  H   H525      1.0  0.70218  0.79093  0.32274  1.0000
  C   C663      1.0  0.83827  0.59163  0.38685  1.0000
  H   H526      1.0  0.87808  0.94602  0.23283  1.0000
  H   H527      1.0  0.86898  0.85128  0.23255  1.0000
  H   H528      1.0  0.87660  0.82185  0.33316  1.0000
  H   H529      1.0  0.91661  0.78081  0.36389  1.0000
  C   C664      1.0  0.72035  0.57773  0.33633  1.0000
  H   H530      1.0  0.89465  0.63076  0.32559  1.0000
  H   H531      1.0  0.85388  0.67150  0.29495  1.0000
  C   C665      1.0  0.86201  0.52807  0.29905  1.0000
  H   H532      1.0  0.84855  0.65230  0.42171  1.0000
  H   H533      1.0  0.97768  0.88659  0.05198  1.0000
  H   H534      1.0  0.93633  0.50153  0.36406  1.0000
  H   H535      1.0  0.82865  0.85153  0.01587  1.0000
  H   H536      1.0  0.71317  0.59694  0.39327  1.0000
  S   S87       1.0  0.85602  0.62158  0.01203  1.0000
  H   H537      1.0  0.69510  0.59252  0.33570  1.0000
  C   C666      1.0  0.73109  0.56894  0.47124  1.0000
  C   C667      1.0  0.96821  0.56754  0.34020  1.0000
  C   C668      1.0  0.73058  0.58061  0.36871  1.0000
  C   C669      1.0  0.96694  0.74851  0.23559  1.0000
  H   H538      1.0  0.95797  0.77108  0.21565  1.0000
  C   C670      1.0  0.82515  0.93112  0.31960  1.0000
  H   H539      1.0  0.79105  0.51613  0.28224  1.0000
  Fe  Fe44      1.0  0.86919  0.70636  0.01950  1.0000
  C   C671      1.0  0.76307  0.56178  0.36979  1.0000
  C   C672      1.0  0.76636  0.56008  0.46944  1.0000
  C   C673      1.0  0.85844  0.56689  0.27405  1.0000
  C   C674      1.0  0.85225  0.61169  0.41410  1.0000
  C   C675      1.0  0.78587  0.54031  0.33829  1.0000
  H   H540      1.0  0.78427  0.59264  0.46469  1.0000
  H   H541      1.0  0.73405  0.55134  0.28028  1.0000
  H   H542      1.0  0.82440  0.61741  0.37315  1.0000
  C   C676      1.0  0.87065  0.57928  0.43187  1.0000
  C   C677      1.0  0.77477  0.53530  0.30627  1.0000
  C   C678      1.0  0.92224  0.51611  0.26341  1.0000
  H   H543      1.0  0.88324  0.60891  0.22414  1.0000
  H   H544      1.0  0.97379  0.71804  0.46404  1.0000
  C   C679      1.0  0.88634  0.57939  0.24360  1.0000
  C   C680      1.0  0.95954  0.51466  0.34359  1.0000
  H   H545      1.0  0.66311  0.85682  0.44166  1.0000
  C   C681      1.0  0.96947  0.66725  0.26771  1.0000
  C   C682      1.0  0.96843  0.55017  0.00055  1.0000
  H   H546      1.0  0.68102  0.53224  0.47944  1.0000
  H   H547      1.0  0.93973  0.56338  0.21446  1.0000
  C   C683      1.0  0.91818  0.55386  0.23819  1.0000
  H   H548      1.0  0.98493  0.77555  0.08219  1.0000
  H   H549      1.0  0.98165  0.75041  0.35097  1.0000
  C   C684      1.0  0.98085  0.70570  0.43557  1.0000
  P   P23       1.0  0.82723  0.51368  0.33997  1.0000
  H   H550      1.0  0.88957  0.50162  0.43599  1.0000
  Fe  Fe45      1.0  0.98489  0.90702  0.18449  1.0000
  C   C685      1.0  0.86121  0.50671  0.39511  1.0000
  C   C686      1.0  0.98133  0.95106  0.01382  1.0000
  C   C687      1.0  0.98258  0.92791  0.04718  1.0000
  H   H551      1.0  0.80582  0.50365  0.47239  1.0000
  S   S88       1.0  0.98102  0.84238  0.14383  1.0000
  S   S89       1.0  0.98438  0.99328  0.17394  1.0000
  H   H552      1.0  0.70411  0.67870  0.00506  1.0000
  C   C688      1.0  0.89433  0.50340  0.29380  1.0000
  C   C689      1.0  0.65283  0.66728  0.99771  1.0000
  H   H553      1.0  0.78593  0.51706  0.99594  1.0000
  S   S90       1.0  0.87535  0.64916  0.92291  1.0000
  C   C690      1.0  0.90950  0.88484  0.96286  1.0000
  C   C691      1.0  0.97099  0.53582  0.96431  1.0000
  Fe  Fe46      1.0  0.88730  0.73106  0.93653  1.0000
  S   S91       1.0  0.92108  0.78788  0.89437  1.0000
  Fe  Fe47      1.0  0.90390  0.62403  0.96352  1.0000
  H   H554      1.0  0.91834  0.72198  0.78606  1.0000
  H   H555      1.0  0.91862  0.89873  0.73256  1.0000
  C   C692      1.0  0.98524  0.80831  0.95699  1.0000
  H   H556      1.0  0.68162  0.50181  0.94893  1.0000
  C   C693      1.0  0.91644  0.84236  0.86696  1.0000
  C   C694      1.0  0.88399  0.86080  0.86533  1.0000
  C   C695      1.0  0.88203  0.90394  0.84273  1.0000
  C   C696      1.0  0.91242  0.92887  0.82135  1.0000
  C   C697      1.0  0.94484  0.91071  0.82333  1.0000
  C   C698      1.0  0.94677  0.86788  0.84612  1.0000
  H   H557      1.0  0.86046  0.84160  0.88120  1.0000
  H   H558      1.0  0.85683  0.91766  0.84141  1.0000
  C   C699      1.0  0.75266  0.55777  0.96921  1.0000
  S   S92       1.0  0.91896  0.70515  0.97428  1.0000
  H   H559      1.0  0.71427  0.58554  0.94324  1.0000
  H   H560      1.0  0.95707  0.68638  0.87426  1.0000
  P   P24       1.0  0.97181  0.91177  0.97809  1.0000
  H   H561      1.0  0.92393  0.88712  0.93412  1.0000
  H   H562      1.0  0.94506  0.71915  0.69860  1.0000
  S   S93       1.0  0.83741  0.73594  0.98243  1.0000
  C   C700      1.0  0.96015  0.98364  0.92711  1.0000
  C   C701      1.0  0.76331  0.51407  0.98557  1.0000
  H   H563      1.0  0.97353  0.85051  0.72097  1.0000
  C   C702      1.0  0.92593  0.89503  0.99053  1.0000
  S   S94       1.0  0.90852  0.98136  0.79187  1.0000
  S   S95       1.0  0.94290  0.56099  0.93987  1.0000
  H   H564      1.0  0.93550  0.99146  0.94708  1.0000
  C   C703      1.0  0.94989  0.83249  0.73770  1.0000
  H   H565      1.0  0.73037  0.70831  0.94125  1.0000
  H   H566      1.0  0.96185  0.80969  0.94783  1.0000
  H   H567      1.0  0.96844  0.92939  0.80715  1.0000
  H   H568      1.0  0.86386  0.77168  0.79792  1.0000
  H   H569      1.0  0.97197  0.85443  0.84761  1.0000
  Fe  Fe48      1.0  0.82771  0.65060  0.97171  1.0000
  C   C704      1.0  0.87449  0.86975  0.97195  1.0000
  S   S96       1.0  0.77479  0.61986  0.96505  1.0000
  H   H570      1.0  0.86243  0.86057  0.95033  1.0000
  H   H571      1.0  0.86377  0.86007  0.77111  1.0000
  H   H572      1.0  0.69427  0.71352  0.89734  1.0000
  C   C705      1.0  0.72282  0.55256  0.95626  1.0000
  H   H573      1.0  0.71628  0.98850  0.71632  1.0000
  C   C706      1.0  0.70283  0.69856  0.95017  1.0000
  H   H574      1.0  0.98194  0.59854  0.85978  1.0000
  C   C707      1.0  0.95039  0.78286  0.75330  1.0000
  C   C708      1.0  0.68251  0.70107  0.92544  1.0000
  C   C709      1.0  0.91866  0.85984  0.74381  1.0000
  C   C710      1.0  0.88769  0.83797  0.76548  1.0000
  C   C711      1.0  0.88782  0.78833  0.78068  1.0000
  C   C712      1.0  0.91895  0.76056  0.77431  1.0000
  C   C713      1.0  0.97786  0.68485  0.64992  1.0000
  C   C714      1.0  0.70404  0.50496  0.95957  1.0000
  C   C715      1.0  0.98419  0.62679  0.83776  1.0000
  C   C716      1.0  0.97138  0.70746  0.68471  1.0000
  H   H575      1.0  0.95686  0.67997  0.63715  1.0000
  C   C717      1.0  0.68795  0.68188  0.98630  1.0000
  H   H576      1.0  0.96119  0.75097  0.82486  1.0000
  C   C718      1.0  0.97257  0.71293  0.81788  1.0000
  C   C719      1.0  0.97017  0.67637  0.84600  1.0000
  C   C720      1.0  0.98317  0.94672  0.93470  1.0000
