data_image0
_chemical_formula_structural       SHCSFeSFeS2FeS2FeSFeHS3C2H5CH2CHCH2C3H2C6H5C6HCHC2HCHC5H4CHC2H3CH4C3H3C4H3CPHC2H2CPCSCHC3HC8PC3H2C2H2CH2PC2HCHC9H2C3H9C2H2C3HC4HC4FeC2HCHCH3CH3C2H2C3HC3H2C7HC2HC3HC7HSCH2FeSFeS2FeS2FeSFeCS2C2HCH2C5H6C2HC7H4CH2CHCH2C2HCHC2H3PHC2HC3HCHCH2CH2C2HC2HSPC9H2C5HCHCH3CH5CHSC2H2C2HCHC3HC3HC3HCH2CHCHCHCHCH2CH4CHC4H2C2SPC4HCHCHC4H4C2HPH2CHCHCSCHSCFeHC2PHFeSFeS3FeSCFeSFeSFeS3C3H2C2H3C6H4CHC3S2FeSFeSFeS2FeS2HFeHS2HCH4CH2C7H4C2H3PC15H2CH9C2HC4H4C2HCH2C3SFeC5H2C3HC2H5C5HC2HPC7HC2HC7HCHCH7C2H6C4PC6H4CH3CH3C2HC4HCH4CHCHCHC2HCH6C5HCHC3H4CHC2HCHC4H2CHC2HC2H2C2H2C2HCHFeSFeS3FeSHCSFeSFeS3HC3HC3H2C6H7C2S2FeSFeSFeS2FeS2HFeCPSCHCH2C2H2C7H4CHCHSC6PC2HC2H5C2H2C5H3C2H4CH4C2H2SC2H2C3PC18H4SHCH12CHC2H2CH3CH3C8PC17H13CH2CHC4HCHCHC3PH2CH2CH3CHC3HC4HCPHCHCFeC2HC3HSC3HCHCH2C2H3CHC2H2CFeS2HSFeSCFeS2FeSFeS3HCHCHCPHCHCHC2SCHC2HC6HCH4C3H2C3HC10HCH5SCH3CH3C2H2CHCH2C2H2CH3C3HC2H2CHC2HC2H2C3H2C4HCPCHCHCH2C2HC2HCH3CH2C6H7CHC2H2C2HPSFeHC3PH2CHC2H3CHC2HC3H2CHFeS2CSFeSHFeS2FeSFeS3HCH7C5SHC3HC6H4PHC2HCHC6HC3H5C2HC4H2C2H2CH2C2HCHCH2CH2C2HCH4C4HCHC3H3C2HPH2C11H8C3HC2HCH3C2HC8H4SC6PCHCHC2FeCH3CHSC4H5CH2PC5HCH2CHC2HFeC2HC2H2CFeS2FeS2FeSFeS4C6H4C3H2CHC2H2CH2C7H4C2HC2HCH2C2HFeC3HFeHC2HCH2PCH4CHCHCH3CHSHCHC3HC2H2C2HCHCPHC3SCHC2H2C2H2CHC4HCHC3H2C2PSC3H4PCH3CHC2HC10H4C3H3CHC3H3PC2HCSH2C3HSCH2CFeS2FeS2FeSFeS4C6H4CH4CHCH2CHC2HC6H6C5HCPH3C5SCFeCHSCHCH3C4HC3HC2H3C2HC2H2CSC2H2CH2FeH2CH2PC2HC6HCHC6HCH2C3H3CHCH7CHCH2C2HCH3CHC2HC2PC9H2C7HCH8C3HC6HCH6C3HC3HSCHSFeSFeS2FeS2CFeS3C2H3C3H3CHCHC6H4C2FeS2CFeS2FeS2CFeSHSC3H2C3H3CH3C6H4PC7H2C2HCHC2FeH2C14H8SH2CFeC2H3CHC2HCPCHCHCH2C2HC3HC5HC2HC3H2CH5C2H2C2PSH3CSHCH3C7PC5HC9HCH2CH8CH2CH3CH2C2H4C5HFeHCHCH2C3H3CHSC2H4CH3C2HCH3CHFeHCHSC2SFeSFeS2FeS2CFeS3C2PCHC3H3C2H2C6H6FeS3FeS2FeS2HFeS3C3H2CFeCH2C2H3C6H5CH2C3H2C2H2C4HC3HCH4CH6CHC2H2C6PC18H5CHCH11CH5C2HSCHC2HCH4C4HCH3C2HFePHCHC3H4C3H2C2HC2H2PC2H2C11HC3HCH2CHC2SHC3H2CH2C3FeC2HCH3C3FeH2C4HC4H3C2H7SFeS2FeS2FeSFeS3C3HC7H5CH2C12H4C3H2CHC2HCH2PH3C3H3CHC2H2CHC3HC3SCH2C6PC8SHC6H5C3H2C2HCHC2H3CHC2H2C2SH4CHCHCH2CH2CHC2H2CH5CH2C2H2C3HC3HCHC2HC3HCHC2H2FeHCFeCHC2SHCSFeS2FeS2FeSFeS3CHCH2C6H4C2H2C2HSCHC6SCH2CH2SH2C12HC5H4CH6CH2CH2CH2C2H3PCHCHC4PC3H2CH3C2H5FeH2C3H2C2HC6H2C3SHC4H4CHCH5PCH2C2HCFeHCHC3H3CHCHC6PC3H4CH2C7HCHC2HCH2C7
_chemical_formula_sum              "S192 H1152 C1440 Fe96 P48"
_cell_length_a       40.3872
_cell_length_b       46.8018
_cell_length_c       41.5271
_cell_angle_alpha    89.9493
_cell_angle_beta     89.7332
_cell_angle_gamma    89.8643

_space_group_name_H-M_alt    "P 1"
_space_group_IT_number       1

loop_
  _space_group_symop_operation_xyz
  'x, y, z'

loop_
  _atom_site_type_symbol
  _atom_site_label
  _atom_site_symmetry_multiplicity
  _atom_site_fract_x
  _atom_site_fract_y
  _atom_site_fract_z
  _atom_site_occupancy
  S   S1        1.0  0.07738  0.02978  0.21922  1.0000
  H   H1        1.0  0.18569  0.03450  0.48019  1.0000
  C   C1        1.0  0.26928  0.05962  0.25303  1.0000
  S   S2        1.0  0.02651  0.03085  0.30049  1.0000
  Fe  Fe1       1.0  0.13216  0.02784  0.22978  1.0000
  S   S3        1.0  0.16567  0.06493  0.21487  1.0000
  Fe  Fe2       1.0  0.31814  0.09345  0.08849  1.0000
  S   S4        1.0  0.30954  0.10364  0.03614  1.0000
  S   S5        1.0  0.28686  0.06030  0.11542  1.0000
  Fe  Fe3       1.0  0.38593  0.12306  0.08716  1.0000
  S   S6        1.0  0.38258  0.13504  0.03476  1.0000
  S   S7        1.0  0.42709  0.13465  0.12164  1.0000
  Fe  Fe4       1.0  0.33013  0.14748  0.04647  1.0000
  S   S8        1.0  0.30286  0.18614  0.02539  1.0000
  Fe  Fe5       1.0  0.36228  0.09055  0.02848  1.0000
  H   H2        1.0  0.07337  0.02348  0.07700  1.0000
  S   S9        1.0  0.33440  0.13833  0.09982  1.0000
  S   S10       1.0  0.37016  0.07763  0.07980  1.0000
  S   S11       1.0  0.36372  0.29716  0.43715  1.0000
  C   C2        1.0  0.25568  0.03007  0.36902  1.0000
  C   C3        1.0  0.36329  0.02405  0.46415  1.0000
  H   H3        1.0  0.45665  0.22033  0.42129  1.0000
  H   H4        1.0  0.36193  0.03515  0.44133  1.0000
  H   H5        1.0  0.35849  0.02586  0.03853  1.0000
  H   H6        1.0  0.28505  0.05025  0.44518  1.0000
  H   H7        1.0  0.37445  0.02629  0.16796  1.0000
  C   C4        1.0  0.28068  0.03150  0.34564  1.0000
  H   H8        1.0  0.47945  0.13202  0.48352  1.0000
  H   H9        1.0  0.42673  0.26092  0.46430  1.0000
  C   C5        1.0  0.49109  0.28929  0.32188  1.0000
  H   H10       1.0  0.08455  0.02249  0.13572  1.0000
  C   C6        1.0  0.47730  0.01177  0.99476  1.0000
  H   H11       1.0  0.36752  0.23612  0.44371  1.0000
  H   H12       1.0  0.34879  0.21193  0.14018  1.0000
  C   C7        1.0  0.48032  0.11593  0.08475  1.0000
  C   C8        1.0  0.46927  0.12664  0.11435  1.0000
  C   C9        1.0  0.45188  0.26870  0.46239  1.0000
  H   H13       1.0  0.46276  0.11271  0.06551  1.0000
  H   H14       1.0  0.48403  0.13991  0.16183  1.0000
  C   C10       1.0  0.19940  0.06323  0.18725  1.0000
  C   C11       1.0  0.21439  0.08876  0.17682  1.0000
  C   C12       1.0  0.24108  0.08838  0.15475  1.0000
  C   C13       1.0  0.25324  0.06237  0.14308  1.0000
  C   C14       1.0  0.23844  0.03683  0.15373  1.0000
  C   C15       1.0  0.21158  0.03721  0.17552  1.0000
  H   H15       1.0  0.20515  0.10899  0.18574  1.0000
  H   H16       1.0  0.25223  0.10819  0.14688  1.0000
  H   H17       1.0  0.24773  0.01658  0.14499  1.0000
  H   H18       1.0  0.20043  0.01741  0.18342  1.0000
  H   H19       1.0  0.49173  0.03811  0.12294  1.0000
  C   C16       1.0  0.37103  0.24414  0.99291  1.0000
  C   C17       1.0  0.01909  0.00676  0.13576  1.0000
  C   C18       1.0  0.16712  0.12206  0.07286  1.0000
  C   C19       1.0  0.22078  0.02115  0.07204  1.0000
  C   C20       1.0  0.50391  0.04941  0.20318  1.0000
  C   C21       1.0  0.09643  0.03201  0.08614  1.0000
  H   H20       1.0  0.17597  0.05746  0.42710  1.0000
  C   C22       1.0  0.41996  0.18837  0.41200  1.0000
  H   H21       1.0  0.38331  0.15497  0.40971  1.0000
  C   C23       1.0  0.36936  0.02610  0.98777  1.0000
  C   C24       1.0  0.35630  0.27430  0.47077  1.0000
  H   H22       1.0  0.46062  0.22693  0.22001  1.0000
  C   C25       1.0  0.26898  0.07526  0.48530  1.0000
  H   H23       1.0  0.12275  0.06042  0.39880  1.0000
  C   C26       1.0  0.26459  0.05464  0.46135  1.0000
  C   C27       1.0  0.44333  0.19745  0.46489  1.0000
  C   C28       1.0  0.24048  0.27192  0.05584  1.0000
  C   C29       1.0  0.27535  0.01012  0.05098  1.0000
  C   C30       1.0  0.32714  0.25344  0.14900  1.0000
  H   H24       1.0  0.02898  0.02030  0.15448  1.0000
  H   H25       1.0  0.41560  0.01628  0.06314  1.0000
  H   H26       1.0  0.23202  0.04003  0.36410  1.0000
  H   H27       1.0  0.39771  0.24613  0.99233  1.0000
  C   C31       1.0  0.12035  0.04289  0.06493  1.0000
  H   H28       1.0  0.21933  0.04425  0.25847  1.0000
  C   C32       1.0  0.04741  0.04052  0.43696  1.0000
  C   C33       1.0  0.42909  0.02040  0.11303  1.0000
  H   H29       1.0  0.33161  0.25275  0.17469  1.0000
  H   H30       1.0  0.05029  0.04644  0.41186  1.0000
  H   H31       1.0  0.38687  0.14326  0.46778  1.0000
  C   C34       1.0  0.48732  0.04127  0.17492  1.0000
  H   H32       1.0  0.49171  0.04806  0.22641  1.0000
  H   H33       1.0  0.32612  0.00838  0.11824  1.0000
  H   H34       1.0  0.30994  0.01170  0.17511  1.0000
  H   H35       1.0  0.02792  0.08270  0.26196  1.0000
  C   C35       1.0  0.18022  0.99511  0.38487  1.0000
  C   C36       1.0  0.10246  0.03159  0.11926  1.0000
  C   C37       1.0  0.21806  0.04415  0.05044  1.0000
  H   H36       1.0  0.48817  0.24318  0.31929  1.0000
  H   H37       1.0  0.33842  0.21345  0.08143  1.0000
  H   H38       1.0  0.02943  0.10581  0.16191  1.0000
  C   C38       1.0  0.12922  0.02051  0.37386  1.0000
  C   C39       1.0  0.21960  0.26242  0.03131  1.0000
  C   C40       1.0  0.31175  0.27734  0.13526  1.0000
  C   C41       1.0  0.16792  0.06959  0.00953  1.0000
  H   H39       1.0  0.21361  0.17841  0.09785  1.0000
  H   H40       1.0  0.13615  0.04284  0.15706  1.0000
  H   H41       1.0  0.29309  0.03755  0.01297  1.0000
  C   C42       1.0  0.48755  0.25541  0.25121  1.0000
  P   P1        1.0  0.18227  0.06742  0.05066  1.0000
  H   H42       1.0  0.16900  0.02387  0.00262  1.0000
  C   C43       1.0  0.30594  0.27840  0.10193  1.0000
  C   C44       1.0  0.13866  0.04199  0.39527  1.0000
  H   H43       1.0  0.10598  0.02217  0.36095  1.0000
  H   H44       1.0  0.33575  0.01880  0.23242  1.0000
  C   C45       1.0  0.15015  0.99721  0.36846  1.0000
  P   P2        1.0  0.28618  0.30907  0.08350  1.0000
  C   C46       1.0  0.44155  0.20365  0.43181  1.0000
  S   S12       1.0  0.12388  0.01614  0.28206  1.0000
  C   C47       1.0  0.16880  0.03999  0.41166  1.0000
  H   H45       1.0  0.05560  0.10641  0.21585  1.0000
  C   C48       1.0  0.16348  0.04434  0.99185  1.0000
  C   C49       1.0  0.17468  0.14936  0.08435  1.0000
  C   C50       1.0  0.22553  0.11029  0.07163  1.0000
  H   H46       1.0  0.20559  0.24289  0.03446  1.0000
  C   C51       1.0  0.20766  0.15724  0.08906  1.0000
  C   C52       1.0  0.01616  0.08284  0.23853  1.0000
  C   C53       1.0  0.33099  0.23128  0.09654  1.0000
  C   C54       1.0  0.33678  0.23043  0.12963  1.0000
  C   C55       1.0  0.36178  0.01301  0.01714  1.0000
  C   C56       1.0  0.15548  0.05416  0.11034  1.0000
  C   C57       1.0  0.25933  0.29684  0.05166  1.0000
  C   C58       1.0  0.45316  0.26015  0.35346  1.0000
  P   P3        1.0  0.22873  0.01286  0.42817  1.0000
  C   C59       1.0  0.24394  0.04939  0.02855  1.0000
  C   C60       1.0  0.13180  0.04286  0.13133  1.0000
  C   C61       1.0  0.23431  0.04008  0.45869  1.0000
  H   H47       1.0  0.16526  0.11589  0.00736  1.0000
  H   H48       1.0  0.41822  0.19351  0.38663  1.0000
  C   C62       1.0  0.34540  0.31920  0.05029  1.0000
  C   C63       1.0  0.36043  0.24458  0.46698  1.0000
  H   H49       1.0  0.26263  0.08158  0.25836  1.0000
  H   H50       1.0  0.11523  0.04274  0.03942  1.0000
  C   C64       1.0  0.40231  0.16003  0.45766  1.0000
  H   H51       1.0  0.24251  0.06720  0.01201  1.0000
  H   H52       1.0  0.08597  0.00907  0.43511  1.0000
  P   P4        1.0  0.44599  0.02657  0.17752  1.0000
  C   C65       1.0  0.41503  0.05437  0.18032  1.0000
  C   C66       1.0  0.31143  0.01873  0.35130  1.0000
  H   H53       1.0  0.24555  0.09529  0.06808  1.0000
  C   C67       1.0  0.47852  0.26238  0.33048  1.0000
  H   H54       1.0  0.42948  0.04358  0.11200  1.0000
  C   C68       1.0  0.47950  0.31366  0.33821  1.0000
  C   C69       1.0  0.42380  0.08258  0.18777  1.0000
  C   C70       1.0  0.39949  0.10389  0.18913  1.0000
  C   C71       1.0  0.36643  0.09730  0.18274  1.0000
  C   C72       1.0  0.35751  0.06925  0.17542  1.0000
  C   C73       1.0  0.38168  0.04784  0.17420  1.0000
  C   C74       1.0  0.44060  0.28468  0.36840  1.0000
  C   C75       1.0  0.41958  0.00776  0.23647  1.0000
  C   C76       1.0  0.24483  0.03858  0.25304  1.0000
  H   H55       1.0  0.43662  0.30827  0.44040  1.0000
  H   H56       1.0  0.50719  0.18131  0.44446  1.0000
  C   C77       1.0  0.19256  0.10246  0.06588  1.0000
  C   C78       1.0  0.29239  0.00321  0.40386  1.0000
  C   C79       1.0  0.26124  0.01563  0.39820  1.0000
  H   H57       1.0  0.17808  0.06299  0.12011  1.0000
  H   H58       1.0  0.34917  0.29633  0.04991  1.0000
  H   H59       1.0  0.14144  0.11621  0.06941  1.0000
  H   H60       1.0  0.44938  0.08848  0.19161  1.0000
  H   H61       1.0  0.40659  0.12585  0.19360  1.0000
  H   H62       1.0  0.34788  0.11407  0.18265  1.0000
  H   H63       1.0  0.33193  0.06432  0.16992  1.0000
  H   H64       1.0  0.46958  0.06261  0.05260  1.0000
  H   H65       1.0  0.44303  0.23945  0.35956  1.0000
  C   C80       1.0  0.27261  0.03261  0.02903  1.0000
  C   C81       1.0  0.40029  0.16663  0.42494  1.0000
  H   H66       1.0  0.15496  0.16438  0.08970  1.0000
  H   H67       1.0  0.29792  0.99770  0.05205  1.0000
  C   C82       1.0  0.25289  0.01039  0.24509  1.0000
  C   C83       1.0  0.02979  0.99703  0.35578  1.0000
  C   C84       1.0  0.06742  0.01914  0.45020  1.0000
  H   H68       1.0  0.27605  0.04224  0.32300  1.0000
  C   C85       1.0  0.31731  0.00473  0.38045  1.0000
  C   C86       1.0  0.03180  0.09618  0.21253  1.0000
  C   C87       1.0  0.30210  0.05235  0.24593  1.0000
  C   C88       1.0  0.32220  0.21652  0.00758  1.0000
  H   H69       1.0  0.31147  0.25541  0.05711  1.0000
  C   C89       1.0  0.18950  0.01608  0.40730  1.0000
  C   C90       1.0  0.49234  0.13153  0.13890  1.0000
  C   C91       1.0  0.23304  0.13769  0.08277  1.0000
  C   C92       1.0  0.15028  0.05375  0.07696  1.0000
  Fe  Fe6       1.0  0.06964  0.01347  0.27007  1.0000
  C   C93       1.0  0.45744  0.29553  0.44860  1.0000
  C   C94       1.0  0.31564  0.25511  0.08279  1.0000
  H   H70       1.0  0.32104  0.06870  0.24595  1.0000
  C   C95       1.0  0.48968  0.30583  0.44516  1.0000
  H   H71       1.0  0.20150  0.01661  0.08939  1.0000
  C   C96       1.0  0.31032  0.02411  0.23821  1.0000
  H   H72       1.0  0.42055  0.28305  0.38583  1.0000
  H   H73       1.0  0.37221  0.20311  0.01698  1.0000
  H   H74       1.0  0.46562  0.26154  0.26461  1.0000
  C   C97       1.0  0.43626  0.00605  0.14192  1.0000
  H   H75       1.0  0.24219  0.25965  0.07791  1.0000
  H   H76       1.0  0.30448  0.29478  0.15080  1.0000
  H   H77       1.0  0.33063  0.01949  0.33304  1.0000
  C   C98       1.0  0.48056  0.04542  0.03871  1.0000
  C   C99       1.0  0.24931  0.00415  0.07217  1.0000
  H   H78       1.0  0.25860  0.14372  0.08671  1.0000
  H   H79       1.0  0.39947  0.02267  0.23285  1.0000
  C   C100      1.0  0.48453  0.23602  0.22573  1.0000
  C   C101      1.0  0.35662  0.21963  0.00687  1.0000
  C   C102      1.0  0.50375  0.04376  0.14518  1.0000
  H   H80       1.0  0.34097  0.99451  0.38475  1.0000
  C   C103      1.0  0.02608  0.00306  0.99978  1.0000
  C   C104      1.0  0.45403  0.31139  0.36100  1.0000
  C   C105      1.0  0.47851  0.25208  0.47350  1.0000
  H   H81       1.0  0.43987  0.04328  0.00547  1.0000
  H   H82       1.0  0.27580  0.23627  0.99484  1.0000
  C   C106      1.0  0.46370  0.03443  0.01224  1.0000
  C   C107      1.0  0.30243  0.23839  0.99434  1.0000
  C   C108      1.0  0.28565  0.00303  0.23697  1.0000
  C   C109      1.0  0.01201  0.01739  0.33820  1.0000
  C   C110      1.0  0.21714  0.27786  0.00259  1.0000
  C   C111      1.0  0.16144  0.09600  0.99471  1.0000
  C   C112      1.0  0.42119  0.00502  0.08528  1.0000
  H   H83       1.0  0.23330  0.99469  0.24508  1.0000
  C   C113      1.0  0.01708  0.09577  0.18217  1.0000
  C   C114      1.0  0.25644  0.31241  0.02283  1.0000
  H   H84       1.0  0.21467  0.31502  0.09785  1.0000
  C   C115      1.0  0.23549  0.30287  0.99839  1.0000
  C   C116      1.0  0.20894  0.04598  0.48106  1.0000
  C   C117      1.0  0.42374  0.17536  0.47752  1.0000
  H   H85       1.0  0.40125  0.99489  0.28311  1.0000
  C   C118      1.0  0.44486  0.00459  0.21337  1.0000
  C   C119      1.0  0.36437  0.99395  0.46470  1.0000
  C   C120      1.0  0.02262  0.05334  0.45560  1.0000
  C   C121      1.0  0.50803  0.00031  0.00349  1.0000
  C   C122      1.0  0.06264  0.01038  0.48226  1.0000
  C   C123      1.0  0.00997  0.02859  0.99194  1.0000
  C   C124      1.0  0.01806  0.04505  0.48766  1.0000
  H   H86       1.0  0.29239  0.08642  0.48719  1.0000
  S   S13       1.0  0.08705  0.03004  0.74187  1.0000
  C   C125      1.0  0.21342  0.06680  0.50481  1.0000
  H   H87       1.0  0.27446  0.04580  0.55213  1.0000
  H   H88       1.0  0.34391  0.30760  0.50439  1.0000
  Fe  Fe7       1.0  0.14301  0.03368  0.74246  1.0000
  S   S14       1.0  0.17698  0.07239  0.73696  1.0000
  Fe  Fe8       1.0  0.30803  0.11270  0.59309  1.0000
  S   S15       1.0  0.30986  0.13079  0.54273  1.0000
  S   S16       1.0  0.25909  0.09095  0.60626  1.0000
  Fe  Fe9       1.0  0.38326  0.12158  0.60129  1.0000
  S   S17       1.0  0.38990  0.13942  0.55164  1.0000
  S   S18       1.0  0.42549  0.11693  0.63696  1.0000
  Fe  Fe10      1.0  0.34369  0.16479  0.56213  1.0000
  S   S19       1.0  0.33902  0.21338  0.55696  1.0000
  Fe  Fe11      1.0  0.35565  0.10386  0.53666  1.0000
  C   C126      1.0  0.34714  0.28485  0.50104  1.0000
  S   S20       1.0  0.33865  0.14862  0.61329  1.0000
  S   S21       1.0  0.35231  0.08419  0.58565  1.0000
  C   C127      1.0  0.45321  0.07083  0.51967  1.0000
  C   C128      1.0  0.45222  0.21976  0.53049  1.0000
  H   H89       1.0  0.13795  0.99814  0.62960  1.0000
  C   C129      1.0  0.36596  0.02518  0.52222  1.0000
  H   H90       1.0  0.37921  0.01917  0.93732  1.0000
  H   H91       1.0  0.36681  0.03690  0.54455  1.0000
  C   C130      1.0  0.34592  0.23616  0.52320  1.0000
  C   C131      1.0  0.34196  0.26588  0.52703  1.0000
  C   C132      1.0  0.29906  0.04317  0.91258  1.0000
  C   C133      1.0  0.48394  0.05915  0.52839  1.0000
  C   C134      1.0  0.44316  0.31313  0.87329  1.0000
  H   H92       1.0  0.03287  0.04461  0.82386  1.0000
  H   H93       1.0  0.33464  0.27427  0.55026  1.0000
  H   H94       1.0  0.46847  0.17772  0.54614  1.0000
  H   H95       1.0  0.37787  0.00827  0.63422  1.0000
  H   H96       1.0  0.49738  0.18708  0.64240  1.0000
  H   H97       1.0  0.40148  0.26288  0.57492  1.0000
  C   C135      1.0  0.46752  0.11928  0.62491  1.0000
  C   C136      1.0  0.17343  0.01857  0.55900  1.0000
  H   H98       1.0  0.45770  0.12831  0.57504  1.0000
  C   C137      1.0  0.28640  0.00368  0.53449  1.0000
  C   C138      1.0  0.19960  0.07796  0.70050  1.0000
  C   C139      1.0  0.22694  0.09661  0.70005  1.0000
  C   C140      1.0  0.24581  0.10075  0.67164  1.0000
  C   C141      1.0  0.23697  0.08676  0.64315  1.0000
  C   C142      1.0  0.20915  0.06879  0.64347  1.0000
  C   C143      1.0  0.19079  0.06417  0.67192  1.0000
  H   H99       1.0  0.23380  0.10762  0.72190  1.0000
  H   H100      1.0  0.26692  0.11491  0.67170  1.0000
  H   H101      1.0  0.20159  0.05850  0.62145  1.0000
  H   H102      1.0  0.16938  0.05039  0.67157  1.0000
  C   C144      1.0  0.47977  0.11871  0.75223  1.0000
  H   H103      1.0  0.23371  0.31480  0.97606  1.0000
  H   H104      1.0  0.31636  0.27530  0.81013  1.0000
  C   C145      1.0  0.49245  0.11523  0.64797  1.0000
  H   H105      1.0  0.41374  0.23636  0.81768  1.0000
  C   C146      1.0  0.29230  0.08692  0.94311  1.0000
  H   H106      1.0  0.40449  0.05581  0.62935  1.0000
  H   H107      1.0  0.09932  0.03836  0.52786  1.0000
  C   C147      1.0  0.03805  0.02372  0.50102  1.0000
  C   C148      1.0  0.45490  0.19691  0.55244  1.0000
  H   H108      1.0  0.14475  0.11742  0.95172  1.0000
  C   C149      1.0  0.32564  0.19306  0.93056  1.0000
  H   H109      1.0  0.25732  0.02913  0.60570  1.0000
  C   C150      1.0  0.16214  0.03818  0.86496  1.0000
  C   C151      1.0  0.44950  0.23130  0.70665  1.0000
  H   H110      1.0  0.44794  0.29591  0.92115  1.0000
  H   H111      1.0  0.19337  0.02714  0.57345  1.0000
  H   H112      1.0  0.32168  0.27612  0.91375  1.0000
  P   P5        1.0  0.48598  0.02470  0.54779  1.0000
  H   H113      1.0  0.27483  0.00466  0.96694  1.0000
  C   C152      1.0  0.39828  0.21667  0.68129  1.0000
  C   C153      1.0  0.26829  0.31081  0.86425  1.0000
  H   H114      1.0  0.15508  0.05698  0.85129  1.0000
  C   C154      1.0  0.39826  0.01130  0.61753  1.0000
  C   C155      1.0  0.45170  0.09707  0.50361  1.0000
  C   C156      1.0  0.31252  0.06785  0.92618  1.0000
  H   H115      1.0  0.21307  0.05063  0.86833  1.0000
  C   C157      1.0  0.30675  0.28175  0.83337  1.0000
  H   H116      1.0  0.26938  0.30909  0.81252  1.0000
  C   C158      1.0  0.24092  0.99877  0.69409  1.0000
  H   H117      1.0  0.31546  0.02850  0.90024  1.0000
  H   H118      1.0  0.21895  0.05218  0.93682  1.0000
  C   C159      1.0  0.41232  0.19010  0.67415  1.0000
  H   H119      1.0  0.45039  0.06321  0.59121  1.0000
  H   H120      1.0  0.40607  0.25797  0.70274  1.0000
  C   C160      1.0  0.41727  0.24486  0.56903  1.0000
  C   C161      1.0  0.04352  0.03267  0.94372  1.0000
  H   H121      1.0  0.11336  0.01966  0.86335  1.0000
  C   C162      1.0  0.41690  0.23729  0.69743  1.0000
  C   C163      1.0  0.47658  0.12534  0.59307  1.0000
  H   H122      1.0  0.41779  0.20932  0.76689  1.0000
  S   S22       1.0  0.37150  0.29625  0.96244  1.0000
  P   P6        1.0  0.35751  0.24912  0.86090  1.0000
  C   C164      1.0  0.35619  0.22175  0.89168  1.0000
  C   C165      1.0  0.36084  0.22995  0.82331  1.0000
  C   C166      1.0  0.39159  0.22698  0.80764  1.0000
  C   C167      1.0  0.43899  0.19817  0.58239  1.0000
  C   C168      1.0  0.28290  0.30132  0.89276  1.0000
  C   C169      1.0  0.33543  0.20107  0.78157  1.0000
  C   C170      1.0  0.33290  0.21646  0.81037  1.0000
  C   C171      1.0  0.38521  0.20684  0.89980  1.0000
  C   C172      1.0  0.38456  0.18580  0.92377  1.0000
  H   H123      1.0  0.27447  0.30975  0.91568  1.0000
  H   H124      1.0  0.50631  0.19351  0.78347  1.0000
  C   C173      1.0  0.27043  0.03911  0.71619  1.0000
  C   C174      1.0  0.39199  0.27324  0.86555  1.0000
  C   C175      1.0  0.40961  0.27461  0.89455  1.0000
  C   C176      1.0  0.43511  0.29446  0.89835  1.0000
  C   C177      1.0  0.41306  0.03812  0.61463  1.0000
  H   H125      1.0  0.44040  0.18022  0.59887  1.0000
  C   C178      1.0  0.39986  0.29243  0.84065  1.0000
  H   H126      1.0  0.33887  0.07194  0.92415  1.0000
  C   C179      1.0  0.43903  0.04229  0.59278  1.0000
  H   H127      1.0  0.24287  0.09617  0.95963  1.0000
  H   H128      1.0  0.24690  0.09734  0.52561  1.0000
  H   H129      1.0  0.48573  0.11054  0.67267  1.0000
  C   C180      1.0  0.02015  0.03242  0.84227  1.0000
  H   H130      1.0  0.31372  0.19084  0.77157  1.0000
  H   H131      1.0  0.30917  0.21780  0.82258  1.0000
  H   H132      1.0  0.40844  0.21180  0.88797  1.0000
  H   H133      1.0  0.40717  0.17494  0.93064  1.0000
  H   H134      1.0  0.35831  0.20287  0.48964  1.0000
  C   C181      1.0  0.46367  0.20453  0.69982  1.0000
  H   H135      1.0  0.40304  0.26117  0.91479  1.0000
  S   S23       1.0  0.14817  0.00501  0.78585  1.0000
  C   C182      1.0  0.28025  0.30108  0.83458  1.0000
  C   C183      1.0  0.19500  0.03444  0.87461  1.0000
  H   H136      1.0  0.38575  0.29254  0.81855  1.0000
  H   H137      1.0  0.31068  0.05527  0.68731  1.0000
  C   C184      1.0  0.27551  0.02318  0.55768  1.0000
  C   C185      1.0  0.28735  0.01905  0.66490  1.0000
  H   H138      1.0  0.39808  0.17411  0.66133  1.0000
  C   C186      1.0  0.31687  0.26313  0.98076  1.0000
  H   H139      1.0  0.45528  0.16334  0.67746  1.0000
  C   C187      1.0  0.36411  0.03983  0.49290  1.0000
  C   C188      1.0  0.14476  0.07170  0.94587  1.0000
  C   C189      1.0  0.36596  0.19868  0.76578  1.0000
  H   H140      1.0  0.30303  0.10581  0.95399  1.0000
  C   C190      1.0  0.48774  0.99944  0.51494  1.0000
  C   C191      1.0  0.35483  0.17906  0.93930  1.0000
  C   C192      1.0  0.02948  0.00409  0.84812  1.0000
  H   H141      1.0  0.30135  0.27986  0.97104  1.0000
  C   C193      1.0  0.41999  0.22206  0.59054  1.0000
  C   C194      1.0  0.25849  0.08137  0.94641  1.0000
  C   C195      1.0  0.24337  0.08146  0.50691  1.0000
  H   H142      1.0  0.40637  0.22255  0.61301  1.0000
  C   C196      1.0  0.20476  0.00947  0.89092  1.0000
  H   H143      1.0  0.37308  0.22132  0.67398  1.0000
  H   H144      1.0  0.30321  0.22453  0.90025  1.0000
  C   C197      1.0  0.32620  0.21416  0.90668  1.0000
  H   H145      1.0  0.04967  0.04390  0.92164  1.0000
  C   C198      1.0  0.44486  0.18408  0.68326  1.0000
  H   H146      1.0  0.14474  0.05736  0.56067  1.0000
  C   C199      1.0  0.26510  0.03737  0.91579  1.0000
  H   H147      1.0  0.19720  0.00834  0.63682  1.0000
  C   C200      1.0  0.45035  0.01961  0.57350  1.0000
  H   H148      1.0  0.14771  0.02580  0.94700  1.0000
  C   C201      1.0  0.42550  0.31216  0.84447  1.0000
  H   H149      1.0  0.27299  0.05522  0.73472  1.0000
  H   H150      1.0  0.36789  0.18667  0.74351  1.0000
  C   C202      1.0  0.24497  0.05653  0.93316  1.0000
  H   H151      1.0  0.30269  0.18798  0.94292  1.0000
  H   H152      1.0  0.19377  0.07169  0.52175  1.0000
  H   H153      1.0  0.35441  0.16327  0.95844  1.0000
  H   H154      1.0  0.42964  0.26135  0.52266  1.0000
  C   C203      1.0  0.14989  0.09699  0.96299  1.0000
  H   H155      1.0  0.30407  0.01937  0.64446  1.0000
  C   C204      1.0  0.32112  0.27165  0.86197  1.0000
  C   C205      1.0  0.37331  0.00916  0.96013  1.0000
  C   C206      1.0  0.48078  0.11168  0.49587  1.0000
  C   C207      1.0  0.25754  0.99828  0.83403  1.0000
  H   H156      1.0  0.45508  0.15825  0.74215  1.0000
  H   H157      1.0  0.29386  0.01114  0.51081  1.0000
  C   C208      1.0  0.01829  0.04314  0.96366  1.0000
  C   C209      1.0  0.30949  0.28213  0.89161  1.0000
  S   S24       1.0  0.15077  0.99840  0.70745  1.0000
  P   P7        1.0  0.24805  0.00425  0.90077  1.0000
  C   C210      1.0  0.13865  0.01715  0.87169  1.0000
  C   C211      1.0  0.29156  0.03917  0.68942  1.0000
  C   C212      1.0  0.26647  0.01370  0.58838  1.0000
  C   C213      1.0  0.12033  0.02473  0.53294  1.0000
  H   H158      1.0  0.42463  0.17009  0.50277  1.0000
  C   C214      1.0  0.43323  0.24376  0.53913  1.0000
  H   H159      1.0  0.46344  0.24757  0.71913  1.0000
  C   C215      1.0  0.39405  0.21151  0.77890  1.0000
  H   H160      1.0  0.43462  0.99813  0.50840  1.0000
  C   C216      1.0  0.15159  0.04538  0.96030  1.0000
  C   C217      1.0  0.02615  0.99660  0.61009  1.0000
  C   C218      1.0  0.05988  0.00725  0.95161  1.0000
  C   C219      1.0  0.14611  0.03566  0.55160  1.0000
  H   H161      1.0  0.46371  0.00293  0.97462  1.0000
  H   H162      1.0  0.45754  0.10845  0.76120  1.0000
  H   H163      1.0  0.43034  0.05966  0.52499  1.0000
  H   H164      1.0  0.26513  0.99362  0.78292  1.0000
  C   C220      1.0  0.27027  0.99302  0.86496  1.0000
  C   C221      1.0  0.47844  0.14694  0.74111  1.0000
  H   H165      1.0  0.13553  0.07252  0.92140  1.0000
  P   P8        1.0  0.50537  0.19607  0.71254  1.0000
  H   H166      1.0  0.22824  0.01923  0.73888  1.0000
  H   H167      1.0  0.04459  0.00904  0.59738  1.0000
  C   C222      1.0  0.12151  0.99642  0.52174  1.0000
  H   H168      1.0  0.03387  0.01732  0.52579  1.0000
  C   C223      1.0  0.50697  0.16010  0.72855  1.0000
  H   H169      1.0  0.23365  0.00822  0.83066  1.0000
  C   C224      1.0  0.26147  0.99911  0.66673  1.0000
  S   S25       1.0  0.37525  0.06337  0.98518  1.0000
  C   C225      1.0  0.24517  0.01888  0.71853  1.0000
  H   H170      1.0  0.42785  0.10589  0.49698  1.0000
  S   S26       1.0  0.36347  0.07767  0.49115  1.0000
  C   C226      1.0  0.35534  0.22562  0.49300  1.0000
  Fe  Fe12      1.0  0.09308  0.99739  0.78175  1.0000
  H   H171      1.0  0.07924  0.99958  0.93572  1.0000
  C   C227      1.0  0.36698  0.99513  0.52273  1.0000
  C   C228      1.0  0.35135  0.26604  0.97975  1.0000
  P   P9        1.0  0.47097  0.21714  0.49086  1.0000
  H   H172      1.0  0.20113  0.27038  0.98351  1.0000
  Fe  Fe13      1.0  0.10314  0.47705  0.18550  1.0000
  S   S27       1.0  0.08626  0.47216  0.13296  1.0000
  Fe  Fe14      1.0  0.15195  0.45504  0.23878  1.0000
  S   S28       1.0  0.18790  0.41914  0.25276  1.0000
  S   S29       1.0  0.09761  0.44850  0.22883  1.0000
  S   S30       1.0  0.15853  0.47918  0.19236  1.0000
  Fe  Fe15      1.0  0.36632  0.40823  0.45297  1.0000
  S   S31       1.0  0.35866  0.42588  0.40344  1.0000
  C   C229      1.0  0.08713  0.54168  0.02866  1.0000
  Fe  Fe16      1.0  0.35788  0.34571  0.43074  1.0000
  S   S32       1.0  0.34853  0.35980  0.37941  1.0000
  Fe  Fe17      1.0  0.39134  0.38971  0.38701  1.0000
  S   S33       1.0  0.42954  0.39602  0.34725  1.0000
  Fe  Fe18      1.0  0.31648  0.39468  0.40016  1.0000
  S   S34       1.0  0.26615  0.41355  0.38630  1.0000
  S   S35       1.0  0.40236  0.37411  0.43693  1.0000
  S   S36       1.0  0.32244  0.37853  0.45115  1.0000
  C   C230      1.0  0.29727  0.53425  0.36441  1.0000
  C   C231      1.0  0.47216  0.39234  0.35611  1.0000
  C   C232      1.0  0.48284  0.38485  0.38697  1.0000
  H   H173      1.0  0.25383  0.58740  0.03487  1.0000
  H   H174      1.0  0.46502  0.38177  0.40605  1.0000
  C   C233      1.0  0.37160  0.48875  0.46583  1.0000
  C   C234      1.0  0.48799  0.45161  0.99190  1.0000
  H   H175      1.0  0.27883  0.52374  0.41175  1.0000
  H   H176      1.0  0.37158  0.47697  0.44348  1.0000
  H   H177      1.0  0.34252  0.48145  0.03296  1.0000
  C   C235      1.0  0.24711  0.41566  0.34777  1.0000
  C   C236      1.0  0.22819  0.43998  0.34003  1.0000
  C   C237      1.0  0.21008  0.44147  0.31111  1.0000
  C   C238      1.0  0.21021  0.41839  0.28969  1.0000
  C   C239      1.0  0.22861  0.39385  0.29775  1.0000
  C   C240      1.0  0.24717  0.39255  0.32645  1.0000
  H   H178      1.0  0.22746  0.45781  0.35654  1.0000
  H   H179      1.0  0.19589  0.46041  0.30549  1.0000
  H   H180      1.0  0.22861  0.37574  0.28160  1.0000
  H   H181      1.0  0.26091  0.37342  0.33241  1.0000
  C   C241      1.0  0.49851  0.47501  0.09532  1.0000
  H   H182      1.0  0.30676  0.34844  0.13437  1.0000
  C   C242      1.0  0.34780  0.51145  0.23892  1.0000
  C   C243      1.0  0.45527  0.51165  0.01421  1.0000
  C   C244      1.0  0.04586  0.47116  0.11574  1.0000
  S   S37       1.0  0.09280  0.51734  0.21336  1.0000
  S   S38       1.0  0.14409  0.49416  0.26898  1.0000
  Fe  Fe19      1.0  0.08976  0.48907  0.25759  1.0000
  S   S39       1.0  0.04597  0.48324  0.29286  1.0000
  Fe  Fe20      1.0  0.14816  0.51817  0.22171  1.0000
  S   S40       1.0  0.18158  0.55718  0.21489  1.0000
  Fe  Fe21      1.0  0.32681  0.59725  0.08244  1.0000
  S   S41       1.0  0.32553  0.61715  0.03292  1.0000
  S   S42       1.0  0.28361  0.56823  0.09699  1.0000
  Fe  Fe22      1.0  0.40197  0.60987  0.08895  1.0000
  S   S43       1.0  0.40573  0.62992  0.03987  1.0000
  S   S44       1.0  0.44426  0.60062  0.12345  1.0000
  H   H183      1.0  0.19260  0.35522  0.47387  1.0000
  Fe  Fe23      1.0  0.37316  0.59345  0.02401  1.0000
  H   H184      1.0  0.21281  0.50322  0.41914  1.0000
  S   S45       1.0  0.35580  0.63377  0.10368  1.0000
  S   S46       1.0  0.37308  0.57209  0.07217  1.0000
  H   H185      1.0  0.46617  0.37778  0.24758  1.0000
  C   C245      1.0  0.37132  0.51884  0.46533  1.0000
  H   H186      1.0  0.06738  0.41945  0.28716  1.0000
  H   H187      1.0  0.37076  0.52995  0.44247  1.0000
  H   H188      1.0  0.35060  0.53339  0.02749  1.0000
  H   H189      1.0  0.44457  0.45319  0.47476  1.0000
  C   C246      1.0  0.48625  0.60691  0.11369  1.0000
  H   H190      1.0  0.06359  0.48201  0.06819  1.0000
  H   H191      1.0  0.47748  0.62184  0.06542  1.0000
  C   C247      1.0  0.28855  0.51550  0.38924  1.0000
  C   C248      1.0  0.21021  0.56005  0.18222  1.0000
  C   C249      1.0  0.23134  0.58390  0.18018  1.0000
  C   C250      1.0  0.25414  0.58686  0.15444  1.0000
  C   C251      1.0  0.25604  0.56591  0.13044  1.0000
  C   C252      1.0  0.23492  0.54213  0.13253  1.0000
  C   C253      1.0  0.21221  0.53922  0.15815  1.0000
  H   H192      1.0  0.22997  0.60023  0.19855  1.0000
  H   H193      1.0  0.27009  0.60536  0.15311  1.0000
  H   H194      1.0  0.23608  0.52576  0.11418  1.0000
  H   H195      1.0  0.19597  0.52100  0.15895  1.0000
  C   C254      1.0  0.02782  0.49811  0.32838  1.0000
  C   C255      1.0  0.14715  0.40877  0.41721  1.0000
  H   H196      1.0  0.50324  0.59368  0.16049  1.0000
  H   H197      1.0  0.03840  0.49708  0.43170  1.0000
  H   H198      1.0  0.20123  0.50365  0.02059  1.0000
  P   P10       1.0  0.14992  0.53484  0.05549  1.0000
  C   C256      1.0  0.17457  0.50390  0.06576  1.0000
  C   C257      1.0  0.17576  0.55978  0.03363  1.0000
  C   C258      1.0  0.08825  0.41266  0.30165  1.0000
  C   C259      1.0  0.16344  0.57490  0.00701  1.0000
  C   C260      1.0  0.17045  0.48999  0.09548  1.0000
  C   C261      1.0  0.19003  0.46631  0.10322  1.0000
  C   C262      1.0  0.21375  0.45626  0.08136  1.0000
  C   C263      1.0  0.21774  0.46976  0.05155  1.0000
  C   C264      1.0  0.19816  0.49345  0.04376  1.0000
  C   C265      1.0  0.13512  0.55086  0.09246  1.0000
  C   C266      1.0  0.10541  0.54136  0.10647  1.0000
  C   C267      1.0  0.09495  0.55204  0.13624  1.0000
  C   C268      1.0  0.11411  0.57226  0.15235  1.0000
  C   C269      1.0  0.14353  0.58205  0.13847  1.0000
  C   C270      1.0  0.15412  0.57136  0.10871  1.0000
  H   H199      1.0  0.08579  0.56153  0.04201  1.0000
  H   H200      1.0  0.10749  0.38383  0.26574  1.0000
  C   C271      1.0  0.10699  0.52340  0.48397  1.0000
  H   H201      1.0  0.15221  0.49727  0.11284  1.0000
  H   H202      1.0  0.18667  0.45581  0.12629  1.0000
  H   H203      1.0  0.22896  0.43799  0.08755  1.0000
  H   H204      1.0  0.23604  0.46192  0.03454  1.0000
  H   H205      1.0  0.28117  0.53823  0.01405  1.0000
  H   H206      1.0  0.09087  0.52486  0.09508  1.0000
  H   H207      1.0  0.15885  0.59710  0.15145  1.0000
  H   H208      1.0  0.17761  0.57855  0.09920  1.0000
  H   H209      1.0  0.19441  0.41197  0.39288  1.0000
  C   C272      1.0  0.49778  0.41176  0.02837  1.0000
  C   C273      1.0  0.35382  0.48993  0.01130  1.0000
  H   H210      1.0  0.10479  0.40147  0.44861  1.0000
  C   C274      1.0  0.22871  0.58369  0.02676  1.0000
  C   C275      1.0  0.11637  0.49856  0.01305  1.0000
  C   C276      1.0  0.18074  0.40222  0.41245  1.0000
  C   C277      1.0  0.13042  0.39650  0.44359  1.0000
  H   H211      1.0  0.45837  0.38086  0.03197  1.0000
  H   H212      1.0  0.29423  0.55708  0.36765  1.0000
  H   H213      1.0  0.22286  0.37781  0.42834  1.0000
  H   H214      1.0  0.21870  0.55308  0.06389  1.0000
  C   C278      1.0  0.33599  0.37836  0.04778  1.0000
  C   C279      1.0  0.22780  0.36214  0.15860  1.0000
  H   H215      1.0  0.25597  0.53446  0.22836  1.0000
  C   C280      1.0  0.49050  0.56286  0.01812  1.0000
  H   H216      1.0  0.02033  0.45918  0.15921  1.0000
  H   H217      1.0  0.45602  0.45331  0.07571  1.0000
  C   C281      1.0  0.49585  0.61783  0.08371  1.0000
  C   C282      1.0  0.11068  0.39253  0.28970  1.0000
  C   C283      1.0  0.06108  0.42016  0.40520  1.0000
  S   S47       1.0  0.35831  0.43440  0.99251  1.0000
  Fe  Fe24      1.0  0.35789  0.65201  0.05305  1.0000
  C   C284      1.0  0.46663  0.40067  0.02106  1.0000
  C   C285      1.0  0.27997  0.34715  0.13494  1.0000
  C   C286      1.0  0.46045  0.55986  0.03452  1.0000
  C   C287      1.0  0.49580  0.39638  0.33159  1.0000
  C   C288      1.0  0.07720  0.46937  0.41424  1.0000
  H   H218      1.0  0.13521  0.54983  0.41229  1.0000
  H   H219      1.0  0.45874  0.62295  0.40151  1.0000
  C   C289      1.0  0.47670  0.65440  0.20008  1.0000
  C   C290      1.0  0.45404  0.51883  0.11098  1.0000
  C   C291      1.0  0.44264  0.49408  0.09589  1.0000
  H   H220      1.0  0.28643  0.47147  0.40443  1.0000
  C   C292      1.0  0.04505  0.47556  0.42469  1.0000
  C   C293      1.0  0.18385  0.59390  0.99011  1.0000
  H   H221      1.0  0.29800  0.54879  0.18780  1.0000
  H   H222      1.0  0.43691  0.53603  0.11672  1.0000
  H   H223      1.0  0.41661  0.49202  0.09001  1.0000
  H   H224      1.0  0.10672  0.57976  0.17600  1.0000
  H   H225      1.0  0.21413  0.37481  0.17613  1.0000
  C   C294      1.0  0.21085  0.34462  0.13701  1.0000
  C   C295      1.0  0.48975  0.36716  0.25108  1.0000
  C   C296      1.0  0.02893  0.42653  0.41551  1.0000
  C   C297      1.0  0.11521  0.52401  0.03096  1.0000
  C   C298      1.0  0.30600  0.47541  0.35635  1.0000
  H   H226      1.0  0.49588  0.54111  0.12998  1.0000
  C   C299      1.0  0.31051  0.52360  0.33561  1.0000
  C   C300      1.0  0.31467  0.49402  0.33127  1.0000
  H   H227      1.0  0.08187  0.46678  0.47945  1.0000
  P   P11       1.0  0.33529  0.48063  0.29566  1.0000
  C   C301      1.0  0.32409  0.50301  0.26185  1.0000
  C   C302      1.0  0.37948  0.47960  0.30261  1.0000
  C   C303      1.0  0.39996  0.46349  0.28202  1.0000
  C   C304      1.0  0.43336  0.45923  0.28947  1.0000
  C   C305      1.0  0.44660  0.47108  0.31743  1.0000
  C   C306      1.0  0.42659  0.48759  0.33773  1.0000
  C   C307      1.0  0.39316  0.49186  0.33042  1.0000
  H   H228      1.0  0.13762  0.48452  0.01418  1.0000
  C   C308      1.0  0.19701  0.38298  0.43273  1.0000
  C   C309      1.0  0.20862  0.56427  0.04328  1.0000
  H   H229      1.0  0.05766  0.53606  0.32986  1.0000
  C   C310      1.0  0.04208  0.47664  0.08255  1.0000
  C   C311      1.0  0.32288  0.44422  0.28739  1.0000
  C   C312      1.0  0.33872  0.42146  0.30329  1.0000
  C   C313      1.0  0.33132  0.39319  0.29530  1.0000
  C   C314      1.0  0.30794  0.38735  0.27154  1.0000
  C   C315      1.0  0.29174  0.40981  0.25592  1.0000
  C   C316      1.0  0.29898  0.43811  0.26390  1.0000
  H   H230      1.0  0.38957  0.32687  0.02236  1.0000
  C   C317      1.0  0.29289  0.48611  0.38517  1.0000
  H   H231      1.0  0.07703  0.56634  0.40929  1.0000
  C   C318      1.0  0.26235  0.36339  0.15756  1.0000
  H   H232      1.0  0.31792  0.53847  0.31694  1.0000
  H   H233      1.0  0.38975  0.45320  0.26094  1.0000
  H   H234      1.0  0.44868  0.44578  0.27428  1.0000
  H   H235      1.0  0.47214  0.46679  0.32383  1.0000
  H   H236      1.0  0.43674  0.49626  0.35976  1.0000
  H   H237      1.0  0.37797  0.50385  0.34716  1.0000
  H   H238      1.0  0.27214  0.50525  0.27523  1.0000
  C   C319      1.0  0.47642  0.62700  0.21353  1.0000
  C   C320      1.0  0.12910  0.52983  0.45875  1.0000
  H   H239      1.0  0.09517  0.48644  0.41330  1.0000
  H   H240      1.0  0.35704  0.42545  0.32176  1.0000
  H   H241      1.0  0.34366  0.37585  0.30774  1.0000
  H   H242      1.0  0.30170  0.36544  0.26587  1.0000
  H   H243      1.0  0.27266  0.40535  0.23835  1.0000
  H   H244      1.0  0.28569  0.45492  0.25165  1.0000
  C   C321      1.0  0.13793  0.38442  0.30817  1.0000
  C   C322      1.0  0.09322  0.42491  0.33186  1.0000
  C   C323      1.0  0.12033  0.41663  0.35089  1.0000
  C   C324      1.0  0.14290  0.39648  0.33855  1.0000
  P   P12       1.0  0.12641  0.43310  0.38984  1.0000
  C   C325      1.0  0.15034  0.46536  0.38441  1.0000
  C   C326      1.0  0.17471  0.47308  0.40678  1.0000
  C   C327      1.0  0.19350  0.49783  0.40220  1.0000
  C   C328      1.0  0.18774  0.51531  0.37551  1.0000
  C   C329      1.0  0.16290  0.50822  0.35363  1.0000
  C   C330      1.0  0.14424  0.48335  0.35801  1.0000
  H   H245      1.0  0.15473  0.52324  0.45966  1.0000
  H   H246      1.0  0.18402  0.34378  0.13784  1.0000
  H   H247      1.0  0.42186  0.40677  0.99401  1.0000
  H   H248      1.0  0.15594  0.36957  0.29836  1.0000
  C   C331      1.0  0.31750  0.33142  0.06525  1.0000
  H   H249      1.0  0.16471  0.39030  0.35172  1.0000
  H   H250      1.0  0.07256  0.54378  0.14727  1.0000
  H   H251      1.0  0.17962  0.45988  0.42752  1.0000
  C   C332      1.0  0.29097  0.51168  0.25801  1.0000
  H   H252      1.0  0.20256  0.53428  0.37164  1.0000
  H   H253      1.0  0.15832  0.52183  0.33298  1.0000
  H   H254      1.0  0.12521  0.47817  0.34067  1.0000
  C   C333      1.0  0.45195  0.63512  0.42273  1.0000
  C   C334      1.0  0.06040  0.53370  0.00935  1.0000
  H   H255      1.0  0.30964  0.45263  0.35388  1.0000
  C   C335      1.0  0.36379  0.36604  0.03326  1.0000
  C   C336      1.0  0.08536  0.55429  0.43003  1.0000
  C   C337      1.0  0.11820  0.54505  0.43180  1.0000
  C   C338      1.0  0.42286  0.62846  0.43942  1.0000
  H   H256      1.0  0.50550  0.59350  0.23512  1.0000
  C   C339      1.0  0.35882  0.51945  0.00844  1.0000
  H   H257      1.0  0.48775  0.40233  0.30774  1.0000
  H   H258      1.0  0.33216  0.40126  0.04623  1.0000
  H   H259      1.0  0.07594  0.44114  0.34001  1.0000
  H   H260      1.0  0.19566  0.42714  0.48293  1.0000
  C   C340      1.0  0.08553  0.44149  0.40480  1.0000
  H   H261      1.0  0.45363  0.61480  0.21393  1.0000
  C   C341      1.0  0.31277  0.36116  0.06350  1.0000
  H   H262      1.0  0.49835  0.43027  0.46140  1.0000
  C   C342      1.0  0.03788  0.52425  0.34135  1.0000
  H   H263      1.0  0.40725  0.61098  0.43155  1.0000
  C   C343      1.0  0.49081  0.34045  0.26618  1.0000
  C   C344      1.0  0.01784  0.46380  0.13380  1.0000
  H   H264      1.0  0.44050  0.49248  0.01229  1.0000
  C   C345      1.0  0.06164  0.50822  0.99186  1.0000
  H   H265      1.0  0.50365  0.58297  0.01932  1.0000
  H   H266      1.0  0.46784  0.33052  0.27368  1.0000
  H   H267      1.0  0.03769  0.55514  0.45350  1.0000
  H   H268      1.0  0.13360  0.36757  0.48393  1.0000
  H   H269      1.0  0.27542  0.37706  0.17426  1.0000
  H   H270      1.0  0.06679  0.39872  0.39701  1.0000
  C   C346      1.0  0.28167  0.52815  0.23142  1.0000
  C   C347      1.0  0.50566  0.61496  0.22533  1.0000
  C   C348      1.0  0.46490  0.47231  0.08780  1.0000
  C   C349      1.0  0.44273  0.53443  0.03216  1.0000
  C   C350      1.0  0.33839  0.52802  0.21238  1.0000
  H   H271      1.0  0.03855  0.54714  0.00810  1.0000
  C   C351      1.0  0.30534  0.53624  0.20856  1.0000
  H   H272      1.0  0.29084  0.37111  0.07356  1.0000
  C   C352      1.0  0.14679  0.37732  0.46397  1.0000
  C   C353      1.0  0.21647  0.59832  0.00002  1.0000
  C   C354      1.0  0.01072  0.47499  0.06766  1.0000
  H   H273      1.0  0.45046  0.57735  0.04862  1.0000
  H   H274      1.0  0.44453  0.33044  0.37276  1.0000
  H   H275      1.0  0.41888  0.53245  0.04384  1.0000
  H   H276      1.0  0.37346  0.50524  0.24130  1.0000
  C   C355      1.0  0.50839  0.43722  0.01401  1.0000
  H   H277      1.0  0.48991  0.33450  0.33327  1.0000
  C   C356      1.0  0.48759  0.52168  0.11836  1.0000
  C   C357      1.0  0.17999  0.37036  0.45838  1.0000
  H   H278      1.0  0.35663  0.53442  0.19457  1.0000
  C   C358      1.0  0.36848  0.33651  0.03448  1.0000
  H   H279      1.0  0.38129  0.37933  0.02045  1.0000
  C   C359      1.0  0.47205  0.65757  0.43322  1.0000
  C   C360      1.0  0.44607  0.41514  0.99957  1.0000
  C   C361      1.0  0.50311  0.54015  0.99984  1.0000
  C   C362      1.0  0.08965  0.49072  0.99365  1.0000
  H   H280      1.0  0.39053  0.63975  0.47867  1.0000
  H   H281      1.0  0.24072  0.38839  0.99320  1.0000
  C   C363      1.0  0.06325  0.54807  0.45501  1.0000
  H   H282      1.0  0.13812  0.57226  0.99931  1.0000
  C   C364      1.0  0.48588  0.51410  0.99839  1.0000
  C   C365      1.0  0.41355  0.64456  0.46623  1.0000
  H   H283      1.0  0.24618  0.45678  0.48629  1.0000
  C   C366      1.0  0.49690  0.44576  0.48079  1.0000
  C   C367      1.0  0.02099  0.45422  0.42530  1.0000
  H   H284      1.0  0.49320  0.61484  0.48607  1.0000
  H   H285      1.0  0.02956  0.55574  0.37855  1.0000
  C   C368      1.0  0.02194  0.53533  0.36905  1.0000
  C   C369      1.0  0.07389  0.53244  0.48176  1.0000
  H   H286      1.0  0.00994  0.41020  0.41528  1.0000
  H   H287      1.0  0.27056  0.33173  0.01887  1.0000
  C   C370      1.0  0.26312  0.32949  0.11311  1.0000
  C   C371      1.0  0.22838  0.32833  0.11435  1.0000
  H   H288      1.0  0.49393  0.32646  0.43398  1.0000
  C   C372      1.0  0.27872  0.53870  0.98803  1.0000
  H   H289      1.0  0.28943  0.42034  0.98952  1.0000
  Fe  Fe25      1.0  0.10592  0.50109  0.70696  1.0000
  S   S48       1.0  0.08178  0.50762  0.65714  1.0000
  Fe  Fe26      1.0  0.15255  0.46667  0.75221  1.0000
  S   S49       1.0  0.18592  0.42753  0.75763  1.0000
  S   S50       1.0  0.09662  0.47205  0.74989  1.0000
  S   S51       1.0  0.16082  0.49174  0.70664  1.0000
  Fe  Fe27      1.0  0.35707  0.40314  0.95114  1.0000
  S   S52       1.0  0.34841  0.41525  0.89979  1.0000
  H   H290      1.0  0.36103  0.53031  0.83763  1.0000
  C   C373      1.0  0.43606  0.48416  0.58796  1.0000
  S   S53       1.0  0.34879  0.34585  0.88438  1.0000
  Fe  Fe28      1.0  0.38637  0.38120  0.88874  1.0000
  S   S54       1.0  0.42495  0.38893  0.84971  1.0000
  Fe  Fe29      1.0  0.31155  0.37938  0.89972  1.0000
  S   S55       1.0  0.25755  0.38717  0.88641  1.0000
  S   S56       1.0  0.39765  0.37171  0.94041  1.0000
  S   S57       1.0  0.31786  0.36924  0.95252  1.0000
  H   H291      1.0  0.49236  0.44394  0.92126  1.0000
  C   C374      1.0  0.46774  0.38912  0.85879  1.0000
  C   C375      1.0  0.47919  0.38867  0.89056  1.0000
  C   C376      1.0  0.46469  0.47896  0.51291  1.0000
  H   H292      1.0  0.46174  0.38766  0.91030  1.0000
  C   C377      1.0  0.37728  0.48268  0.95825  1.0000
  C   C378      1.0  0.46847  0.46664  0.88293  1.0000
  C   C379      1.0  0.37282  0.48985  0.52396  1.0000
  H   H293      1.0  0.38457  0.46855  0.93887  1.0000
  H   H294      1.0  0.37340  0.47865  0.54670  1.0000
  C   C380      1.0  0.24072  0.40141  0.85030  1.0000
  C   C381      1.0  0.25432  0.39525  0.82001  1.0000
  C   C382      1.0  0.23777  0.40407  0.79179  1.0000
  C   C383      1.0  0.20804  0.41980  0.79355  1.0000
  C   C384      1.0  0.19530  0.42699  0.82385  1.0000
  C   C385      1.0  0.21123  0.41738  0.85200  1.0000
  H   H295      1.0  0.27670  0.38261  0.81833  1.0000
  H   H296      1.0  0.24762  0.39810  0.76850  1.0000
  H   H297      1.0  0.17226  0.43874  0.82556  1.0000
  H   H298      1.0  0.20031  0.42192  0.87524  1.0000
  H   H299      1.0  0.36483  0.48435  0.86723  1.0000
  H   H300      1.0  0.03627  0.47725  0.81438  1.0000
  H   H301      1.0  0.43991  0.45147  0.96883  1.0000
  C   C386      1.0  0.05802  0.45056  0.56789  1.0000
  C   C387      1.0  0.04428  0.50012  0.63598  1.0000
  S   S58       1.0  0.11242  0.54088  0.73709  1.0000
  S   S59       1.0  0.16069  0.50415  0.78438  1.0000
  Fe  Fe30      1.0  0.10568  0.51155  0.77995  1.0000
  S   S60       1.0  0.07837  0.52741  0.82517  1.0000
  Fe  Fe31      1.0  0.16661  0.52960  0.73874  1.0000
  S   S61       1.0  0.21326  0.55693  0.73489  1.0000
  Fe  Fe32      1.0  0.32038  0.62113  0.58884  1.0000
  S   S62       1.0  0.32699  0.63519  0.53711  1.0000
  S   S63       1.0  0.26702  0.61285  0.60461  1.0000
  Fe  Fe33      1.0  0.39519  0.61953  0.59990  1.0000
  S   S64       1.0  0.40687  0.63298  0.54939  1.0000
  S   S65       1.0  0.43425  0.61057  0.63789  1.0000
  H   H302      1.0  0.38431  0.44071  0.83898  1.0000
  Fe  Fe34      1.0  0.36708  0.60164  0.53553  1.0000
  C   C388      1.0  0.36318  0.47142  0.98640  1.0000
  P   P13       1.0  0.50109  0.48495  0.97399  1.0000
  S   S66       1.0  0.35816  0.58588  0.58577  1.0000
  C   C389      1.0  0.46974  0.51415  0.92366  1.0000
  H   H303      1.0  0.44414  0.49423  0.84896  1.0000
  C   C390      1.0  0.37287  0.51997  0.52348  1.0000
  H   H304      1.0  0.39444  0.52096  0.93427  1.0000
  H   H305      1.0  0.37379  0.53178  0.54582  1.0000
  C   C391      1.0  0.14285  0.52616  0.93482  1.0000
  C   C392      1.0  0.47669  0.61226  0.62721  1.0000
  H   H306      1.0  0.49347  0.60700  0.67608  1.0000
  H   H307      1.0  0.46847  0.61733  0.57639  1.0000
  C   C393      1.0  0.37257  0.47408  0.49517  1.0000
  C   C394      1.0  0.22810  0.57162  0.69817  1.0000
  C   C395      1.0  0.26034  0.58294  0.69683  1.0000
  C   C396      1.0  0.27294  0.59488  0.66812  1.0000
  C   C397      1.0  0.25310  0.59630  0.64067  1.0000
  C   C398      1.0  0.22069  0.58538  0.64220  1.0000
  C   C399      1.0  0.20844  0.57262  0.67058  1.0000
  H   H308      1.0  0.27559  0.58255  0.71818  1.0000
  H   H309      1.0  0.29755  0.60388  0.66748  1.0000
  H   H310      1.0  0.20476  0.58715  0.62147  1.0000
  H   H311      1.0  0.18346  0.56437  0.67147  1.0000
  C   C400      1.0  0.04355  0.51298  0.84599  1.0000
  H   H312      1.0  0.48221  0.39122  0.80883  1.0000
  C   C401      1.0  0.02189  0.47912  0.64608  1.0000
  H   H313      1.0  0.43957  0.59281  0.50077  1.0000
  S   S67       1.0  0.38330  0.56767  0.97863  1.0000
  C   C402      1.0  0.25605  0.49756  0.82202  1.0000
  C   C403      1.0  0.27965  0.47607  0.81728  1.0000
  C   C404      1.0  0.28979  0.45918  0.84319  1.0000
  C   C405      1.0  0.27607  0.46346  0.87378  1.0000
  C   C406      1.0  0.25188  0.48460  0.87868  1.0000
  C   C407      1.0  0.24244  0.50201  0.85265  1.0000
  P   P14       1.0  0.23425  0.49040  0.91829  1.0000
  C   C408      1.0  0.23635  0.45777  0.94162  1.0000
  C   C409      1.0  0.49165  0.49458  0.69267  1.0000
  H   H314      1.0  0.01012  0.37999  0.80339  1.0000
  C   C410      1.0  0.45754  0.49658  0.69825  1.0000
  C   C411      1.0  0.26560  0.45041  0.95793  1.0000
  H   H315      1.0  0.24784  0.51056  0.80190  1.0000
  H   H316      1.0  0.28978  0.47222  0.79352  1.0000
  H   H317      1.0  0.30757  0.44211  0.83946  1.0000
  H   H318      1.0  0.28373  0.44965  0.89327  1.0000
  H   H319      1.0  0.22421  0.51881  0.85583  1.0000
  C   C412      1.0  0.00992  0.50810  0.58792  1.0000
  C   C413      1.0  0.16072  0.48863  0.51145  1.0000
  H   H320      1.0  0.27249  0.53990  0.89488  1.0000
  H   H321      1.0  0.18266  0.47573  0.87146  1.0000
  C   C414      1.0  0.40711  0.48223  0.60647  1.0000
  C   C415      1.0  0.39464  0.50640  0.62215  1.0000
  C   C416      1.0  0.41153  0.53235  0.61993  1.0000
  C   C417      1.0  0.44037  0.53439  0.60134  1.0000
  C   C418      1.0  0.45235  0.51049  0.58450  1.0000
  H   H322      1.0  0.24833  0.32637  0.86512  1.0000
  H   H323      1.0  0.01245  0.46012  0.75367  1.0000
  H   H324      1.0  0.44536  0.46518  0.57604  1.0000
  C   C419      1.0  0.46162  0.55865  0.52801  1.0000
  C   C420      1.0  0.02094  0.54812  0.75762  1.0000
  H   H325      1.0  0.39402  0.46209  0.60812  1.0000
  H   H326      1.0  0.37187  0.50505  0.63590  1.0000
  H   H327      1.0  0.40225  0.55111  0.63233  1.0000
  H   H328      1.0  0.45312  0.55473  0.59993  1.0000
  C   C421      1.0  0.03789  0.51468  0.60691  1.0000
  H   H329      1.0  0.30988  0.42095  0.51775  1.0000
  H   H330      1.0  0.43782  0.54928  0.53378  1.0000
  H   H331      1.0  0.30606  0.57601  0.92300  1.0000
  H   H332      1.0  0.18831  0.52709  0.52201  1.0000
  C   C422      1.0  0.12417  0.51594  0.90904  1.0000
  C   C423      1.0  0.22246  0.46555  0.49377  1.0000
  H   H333      1.0  0.04378  0.54627  0.88184  1.0000
  H   H334      1.0  0.03794  0.43168  0.49146  1.0000
  S   S68       1.0  0.37225  0.57253  0.49192  1.0000
  C   C424      1.0  0.48250  0.46435  0.91356  1.0000
  C   C425      1.0  0.05070  0.44234  0.51093  1.0000
  H   H335      1.0  0.42782  0.54636  0.73101  1.0000
  H   H336      1.0  0.04091  0.56347  0.75934  1.0000
  C   C426      1.0  0.46443  0.47314  0.74987  1.0000
  C   C427      1.0  0.44364  0.48627  0.72715  1.0000
  C   C428      1.0  0.45562  0.51632  0.89305  1.0000
  P   P15       1.0  0.39933  0.48885  0.73382  1.0000
  C   C429      1.0  0.37875  0.45900  0.71499  1.0000
  C   C430      1.0  0.38950  0.48799  0.77644  1.0000
  C   C431      1.0  0.37860  0.51266  0.79266  1.0000
  C   C432      1.0  0.36974  0.51131  0.82528  1.0000
  C   C433      1.0  0.37177  0.48542  0.84197  1.0000
  C   C434      1.0  0.38264  0.46083  0.82605  1.0000
  C   C435      1.0  0.39128  0.46202  0.79343  1.0000
  C   C436      1.0  0.39348  0.44448  0.68901  1.0000
  C   C437      1.0  0.37770  0.42090  0.67525  1.0000
  C   C438      1.0  0.34715  0.41169  0.68730  1.0000
  C   C439      1.0  0.33206  0.42634  0.71275  1.0000
  C   C440      1.0  0.34767  0.45000  0.72644  1.0000
  C   C441      1.0  0.38492  0.52197  0.71623  1.0000
  C   C442      1.0  0.40450  0.54668  0.71823  1.0000
  C   C443      1.0  0.39447  0.57194  0.70310  1.0000
  C   C444      1.0  0.36466  0.57287  0.68623  1.0000
  C   C445      1.0  0.34471  0.54857  0.68465  1.0000
  C   C446      1.0  0.35470  0.52321  0.69967  1.0000
  H   H337      1.0  0.46926  0.53273  0.93917  1.0000
  H   H338      1.0  0.05502  0.53089  0.59872  1.0000
  H   H339      1.0  0.10031  0.59578  0.57811  1.0000
  H   H340      1.0  0.45466  0.46454  0.77212  1.0000
  S   S69       1.0  0.35658  0.65373  0.60726  1.0000
  H   H341      1.0  0.37651  0.53291  0.78023  1.0000
  C   C447      1.0  0.12840  0.56595  0.60651  1.0000
  H   H342      1.0  0.39924  0.44256  0.78151  1.0000
  H   H343      1.0  0.41726  0.45105  0.67951  1.0000
  H   H344      1.0  0.38940  0.40953  0.65552  1.0000
  H   H345      1.0  0.33516  0.39313  0.67703  1.0000
  H   H346      1.0  0.30837  0.41920  0.72212  1.0000
  H   H347      1.0  0.33553  0.46109  0.74613  1.0000
  H   H348      1.0  0.02652  0.46746  0.66810  1.0000
  H   H349      1.0  0.19038  0.52686  0.95772  1.0000
  H   H350      1.0  0.35730  0.59237  0.67401  1.0000
  H   H351      1.0  0.32164  0.54942  0.67145  1.0000
  H   H352      1.0  0.33903  0.50460  0.69785  1.0000
  H   H353      1.0  0.31049  0.57519  0.98229  1.0000
  C   C448      1.0  0.08232  0.47098  0.56117  1.0000
  H   H354      1.0  0.26545  0.57659  0.54215  1.0000
  C   C449      1.0  0.13875  0.49788  0.88628  1.0000
  C   C450      1.0  0.27383  0.53933  0.92086  1.0000
  H   H355      1.0  0.12921  0.57966  0.62754  1.0000
  H   H356      1.0  0.09837  0.52202  0.90649  1.0000
  C   C451      1.0  0.09096  0.47731  0.52916  1.0000
  H   H357      1.0  0.13128  0.53996  0.95249  1.0000
  H   H358      1.0  0.34494  0.39077  0.55256  1.0000
  H   H359      1.0  0.44123  0.48938  0.51766  1.0000
  C   C452      1.0  0.29276  0.55996  0.93667  1.0000
  H   H360      1.0  0.24252  0.50654  0.50685  1.0000
  H   H361      1.0  0.15508  0.53180  0.62939  1.0000
  H   H362      1.0  0.05633  0.52772  0.50088  1.0000
  C   C453      1.0  0.37417  0.53077  0.98106  1.0000
  C   C454      1.0  0.49287  0.48593  0.53092  1.0000
  C   C455      1.0  0.17061  0.42786  0.57605  1.0000
  C   C456      1.0  0.14662  0.43597  0.59863  1.0000
  C   C457      1.0  0.15474  0.45498  0.62322  1.0000
  C   C458      1.0  0.18695  0.46567  0.62542  1.0000
  C   C459      1.0  0.21158  0.45703  0.60340  1.0000
  C   C460      1.0  0.20295  0.43835  0.57835  1.0000
  P   P16       1.0  0.25357  0.47008  0.60786  1.0000
  C   C461      1.0  0.25773  0.50390  0.58716  1.0000
  C   C462      1.0  0.25946  0.47433  0.65071  1.0000
  C   C463      1.0  0.26825  0.50088  0.66385  1.0000
  C   C464      1.0  0.26827  0.50468  0.69728  1.0000
  C   C465      1.0  0.25931  0.48227  0.71771  1.0000
  C   C466      1.0  0.25108  0.45573  0.70483  1.0000
  C   C467      1.0  0.25105  0.45174  0.67151  1.0000
  C   C468      1.0  0.23131  0.52336  0.58712  1.0000
  C   C469      1.0  0.23388  0.54920  0.57042  1.0000
  C   C470      1.0  0.26314  0.55610  0.55421  1.0000
  C   C471      1.0  0.28991  0.53722  0.55477  1.0000
  C   C472      1.0  0.28741  0.51127  0.57137  1.0000
  C   C473      1.0  0.28265  0.44465  0.59096  1.0000
  C   C474      1.0  0.30268  0.42745  0.61068  1.0000
  C   C475      1.0  0.32499  0.40799  0.59689  1.0000
  C   C476      1.0  0.30768  0.42264  0.54373  1.0000
  C   C477      1.0  0.28571  0.44229  0.55738  1.0000
  H   H363      1.0  0.16420  0.41319  0.55693  1.0000
  H   H364      1.0  0.12168  0.42759  0.59711  1.0000
  H   H365      1.0  0.13598  0.46166  0.64050  1.0000
  H   H366      1.0  0.19258  0.48063  0.64448  1.0000
  H   H367      1.0  0.22100  0.43143  0.56078  1.0000
  H   H368      1.0  0.27365  0.51903  0.64851  1.0000
  H   H369      1.0  0.27383  0.52538  0.70749  1.0000
  H   H370      1.0  0.25752  0.48578  0.74344  1.0000
  H   H371      1.0  0.24333  0.43856  0.72067  1.0000
  H   H372      1.0  0.24296  0.43139  0.66196  1.0000
  H   H373      1.0  0.20897  0.51884  0.60047  1.0000
  H   H374      1.0  0.21357  0.56436  0.57074  1.0000
  H   H375      1.0  0.03368  0.53509  0.70933  1.0000
  C   C478      1.0  0.29522  0.55959  0.97019  1.0000
  H   H376      1.0  0.30875  0.49723  0.57187  1.0000
  H   H377      1.0  0.30136  0.42907  0.63657  1.0000
  C   C479      1.0  0.49080  0.39075  0.83346  1.0000
  H   H378      1.0  0.27124  0.45582  0.54170  1.0000
  C   C480      1.0  0.48669  0.61566  0.59518  1.0000
  C   C481      1.0  0.46249  0.58332  0.50903  1.0000
  C   C482      1.0  0.14175  0.52107  0.58060  1.0000
  C   C483      1.0  0.45511  0.49261  0.87264  1.0000
  H   H379      1.0  0.41009  0.59075  0.70385  1.0000
  C   C484      1.0  0.38295  0.51233  0.95571  1.0000
  H   H380      1.0  0.44464  0.53633  0.88537  1.0000
  C   C485      1.0  0.19123  0.50071  0.91463  1.0000
  H   H381      1.0  0.09673  0.56418  0.53106  1.0000
  C   C486      1.0  0.20878  0.43962  0.94399  1.0000
  C   C487      1.0  0.03150  0.52713  0.87360  1.0000
  C   C488      1.0  0.07532  0.46245  0.50417  1.0000
  P   P17       1.0  0.49025  0.51323  0.56154  1.0000
  H   H382      1.0  0.17427  0.60546  0.96952  1.0000
  H   H383      1.0  0.44210  0.50631  0.68000  1.0000
  C   C489      1.0  0.32746  0.40559  0.56342  1.0000
  H   H384      1.0  0.31270  0.54305  0.54263  1.0000
  H   H385      1.0  0.43115  0.32737  0.82553  1.0000
  C   C490      1.0  0.01693  0.53207  0.72957  1.0000
  H   H386      1.0  0.12420  0.49014  0.86618  1.0000
  H   H387      1.0  0.34038  0.39468  0.61204  1.0000
  H   H388      1.0  0.18616  0.44431  0.93120  1.0000
  C   C491      1.0  0.48350  0.48814  0.93412  1.0000
  H   H389      1.0  0.09347  0.48213  0.58113  1.0000
  C   C492      1.0  0.17202  0.49006  0.88918  1.0000
  C   C493      1.0  0.25965  0.51815  0.97235  1.0000
  C   C494      1.0  0.17631  0.51865  0.93764  1.0000
  H   H390      1.0  0.05085  0.44635  0.59262  1.0000
  C   C495      1.0  0.12468  0.52954  0.55289  1.0000
  C   C496      1.0  0.11202  0.57493  0.57871  1.0000
  C   C497      1.0  0.14324  0.53902  0.60745  1.0000
  C   C498      1.0  0.25735  0.51806  0.93859  1.0000
  H   H391      1.0  0.15309  0.50020  0.58164  1.0000
  C   C499      1.0  0.04183  0.43658  0.54282  1.0000
  P   P18       1.0  0.12086  0.50482  0.51964  1.0000
  H   H392      1.0  0.46774  0.44818  0.86722  1.0000
  C   C500      1.0  0.11003  0.55681  0.55200  1.0000
  H   H393      1.0  0.28754  0.46362  0.95598  1.0000
  C   C501      1.0  0.02728  0.48837  0.83549  1.0000
  Fe  Fe35      1.0  0.35747  0.33836  0.93751  1.0000
  C   C502      1.0  0.01474  0.41984  0.77782  1.0000
  C   C503      1.0  0.49119  0.54614  0.53885  1.0000
  H   H394      1.0  0.02200  0.42171  0.54815  1.0000
  C   C504      1.0  0.50095  0.60983  0.65124  1.0000
  C   C505      1.0  0.16311  0.46035  0.50034  1.0000
  C   C506      1.0  0.45655  0.44051  0.98513  1.0000
  H   H395      1.0  0.45415  0.65693  0.67791  1.0000
  S   S70       1.0  0.37529  0.43627  0.49695  1.0000
  C   C507      1.0  0.18963  0.50509  0.51399  1.0000
  C   C508      1.0  0.21036  0.41473  0.96260  1.0000
  C   C509      1.0  0.49852  0.47098  0.74408  1.0000
  H   H396      1.0  0.04147  0.41842  0.77568  1.0000
  C   C510      1.0  0.37200  0.53464  0.49408  1.0000
  H   H397      1.0  0.46256  0.32883  0.87645  1.0000
  C   C511      1.0  0.23935  0.40785  0.97914  1.0000
  H   H398      1.0  0.50218  0.50302  0.67058  1.0000
  H   H399      1.0  0.14130  0.44720  0.49782  1.0000
  C   C512      1.0  0.22036  0.49357  0.50518  1.0000
  C   C513      1.0  0.26685  0.42578  0.97694  1.0000
  H   H400      1.0  0.24738  0.50199  0.98657  1.0000
  H   H401      1.0  0.18923  0.40056  0.96376  1.0000
  H   H402      1.0  0.04080  0.50194  0.97708  1.0000
  C   C514      1.0  0.49277  0.59557  0.50050  1.0000
  H   H403      1.0  0.09048  0.47092  0.98015  1.0000
  C   C515      1.0  0.46662  0.45869  0.48826  1.0000
  C   C516      1.0  0.19393  0.44885  0.49178  1.0000
  H   H404      1.0  0.23223  0.61326  0.98721  1.0000
  H   H405      1.0  0.34551  0.70810  0.48086  1.0000
  C   C517      1.0  0.34574  0.75087  0.46061  1.0000
  Fe  Fe36      1.0  0.12651  0.97084  0.26436  1.0000
  S   S71       1.0  0.14884  0.93495  0.29447  1.0000
  S   S72       1.0  0.07170  0.96756  0.25483  1.0000
  H   H406      1.0  0.02400  0.87215  0.04399  1.0000
  S   S73       1.0  0.34813  0.70013  0.04853  1.0000
  Fe  Fe37      1.0  0.36534  0.91390  0.45121  1.0000
  S   S74       1.0  0.36982  0.93216  0.40172  1.0000
  C   C518      1.0  0.02928  0.97826  0.13352  1.0000
  Fe  Fe38      1.0  0.35304  0.85336  0.42665  1.0000
  S   S75       1.0  0.35522  0.86828  0.37470  1.0000
  S   S76       1.0  0.34570  0.80484  0.43325  1.0000
  Fe  Fe39      1.0  0.39976  0.89328  0.38999  1.0000
  S   S77       1.0  0.44134  0.89614  0.35326  1.0000
  Fe  Fe40      1.0  0.32465  0.90623  0.38981  1.0000
  S   S78       1.0  0.29219  0.93496  0.35823  1.0000
  S   S79       1.0  0.39957  0.87657  0.44078  1.0000
  S   S80       1.0  0.31845  0.88971  0.44064  1.0000
  H   H407      1.0  0.46816  0.80565  0.48756  1.0000
  C   C519      1.0  0.48347  0.89493  0.36410  1.0000
  H   H408      1.0  0.50384  0.78758  0.40516  1.0000
  C   C520      1.0  0.31861  0.93745  0.13459  1.0000
  H   H409      1.0  0.47529  0.89193  0.41526  1.0000
  C   C521      1.0  0.47318  0.68149  0.12757  1.0000
  P   P19       1.0  0.29652  0.96708  0.22488  1.0000
  H   H410      1.0  0.25730  0.97657  0.32104  1.0000
  C   C522      1.0  0.47181  0.96978  0.24815  1.0000
  H   H411      1.0  0.35366  0.97309  0.04177  1.0000
  C   C523      1.0  0.45358  0.76897  0.33729  1.0000
  H   H412      1.0  0.48940  0.69179  0.00429  1.0000
  C   C524      1.0  0.46223  0.78641  0.47433  1.0000
  C   C525      1.0  0.49333  0.73183  0.20813  1.0000
  S   S81       1.0  0.35897  0.92871  0.99511  1.0000
  C   C526      1.0  0.43282  0.70671  0.09521  1.0000
  H   H413      1.0  0.40240  0.75575  0.33957  1.0000
  C   C527      1.0  0.14381  0.94351  0.42854  1.0000
  C   C528      1.0  0.35891  0.98314  0.01894  1.0000
  H   H414      1.0  0.23404  0.88786  0.27583  1.0000
  C   C529      1.0  0.25180  0.93451  0.34160  1.0000
  C   C530      1.0  0.24104  0.95846  0.32396  1.0000
  C   C531      1.0  0.20940  0.95916  0.30986  1.0000
  C   C532      1.0  0.18809  0.93587  0.31338  1.0000
  C   C533      1.0  0.19846  0.91225  0.33178  1.0000
  C   C534      1.0  0.23019  0.91151  0.34581  1.0000
  H   H415      1.0  0.41396  0.96334  0.06453  1.0000
  C   C535      1.0  0.10109  0.95932  0.46607  1.0000
  H   H416      1.0  0.18207  0.89416  0.33468  1.0000
  H   H417      1.0  0.23805  0.89304  0.35950  1.0000
  H   H418      1.0  0.25179  0.98703  0.08957  1.0000
  H   H419      1.0  0.49110  0.98311  0.20232  1.0000
  C   C536      1.0  0.43842  0.78742  0.45006  1.0000
  C   C537      1.0  0.45961  0.97154  0.47400  1.0000
  C   C538      1.0  0.01836  0.89014  0.02847  1.0000
  H   H420      1.0  0.49093  0.94776  0.44149  1.0000
  H   H421      1.0  0.43807  0.71764  0.42806  1.0000
  C   C539      1.0  0.42026  0.97520  0.08611  1.0000
  C   C540      1.0  0.30979  0.93911  0.16713  1.0000
  C   C541      1.0  0.43892  0.73165  0.11262  1.0000
  H   H422      1.0  0.34612  0.79608  0.00004  1.0000
  C   C542      1.0  0.32995  0.96098  0.28294  1.0000
  C   C543      1.0  0.26154  0.94351  0.22997  1.0000
  C   C544      1.0  0.33052  0.95518  0.24976  1.0000
  C   C545      1.0  0.35638  0.93844  0.23701  1.0000
  C   C546      1.0  0.38058  0.92697  0.25733  1.0000
  C   C547      1.0  0.37930  0.93230  0.29041  1.0000
  C   C548      1.0  0.46499  0.81607  0.35866  1.0000
  C   C549      1.0  0.43511  0.97606  0.14264  1.0000
  C   C550      1.0  0.26151  0.92209  0.25369  1.0000
  C   C551      1.0  0.23430  0.90391  0.25701  1.0000
  H   H423      1.0  0.48625  0.66193  0.13298  1.0000
  C   C552      1.0  0.23412  0.94623  0.20947  1.0000
  H   H424      1.0  0.36392  0.98213  0.44243  1.0000
  H   H425      1.0  0.38296  0.80055  0.36547  1.0000
  H   H426      1.0  0.23713  0.90133  0.48323  1.0000
  H   H427      1.0  0.43894  0.74053  0.27051  1.0000
  H   H428      1.0  0.46166  0.74911  0.32651  1.0000
  S   S82       1.0  0.13815  0.98254  0.21275  1.0000
  C   C553      1.0  0.36283  0.96615  0.99138  1.0000
  H   H429      1.0  0.06985  0.91333  0.41015  1.0000
  H   H430      1.0  0.32048  0.91681  0.12286  1.0000
  H   H431      1.0  0.30487  0.91957  0.18034  1.0000
  C   C554      1.0  0.46185  0.73146  0.13782  1.0000
  H   H432      1.0  0.35769  0.93361  0.21162  1.0000
  H   H433      1.0  0.40009  0.91357  0.24761  1.0000
  H   H434      1.0  0.39756  0.92288  0.30632  1.0000
  C   C555      1.0  0.35611  0.72471  0.01667  1.0000
  C   C556      1.0  0.47889  0.70618  0.14579  1.0000
  H   H435      1.0  0.28203  0.91948  0.27011  1.0000
  H   H436      1.0  0.28837  0.96590  0.00468  1.0000
  C   C557      1.0  0.47098  0.98545  0.21946  1.0000
  H   H437      1.0  0.23360  0.96265  0.19107  1.0000
  C   C558      1.0  0.01819  0.98797  0.38623  1.0000
  H   H438      1.0  0.45833  0.79063  0.26538  1.0000
  H   H439      1.0  0.49225  0.95535  0.25296  1.0000
  C   C559      1.0  0.41997  0.77260  0.34469  1.0000
  C   C560      1.0  0.01550  0.96100  0.10925  1.0000
  H   H440      1.0  0.16923  0.94384  0.42026  1.0000
  H   H441      1.0  0.03253  0.97267  0.39987  1.0000
  C   C561      1.0  0.03620  0.93268  0.99965  1.0000
  H   H442      1.0  0.41453  0.70670  0.07614  1.0000
  H   H443      1.0  0.33154  0.96102  0.09189  1.0000
  H   H444      1.0  0.30994  0.97326  0.29353  1.0000
  C   C562      1.0  0.44538  0.73663  0.44103  1.0000
  C   C563      1.0  0.04347  0.90904  0.01925  1.0000
  C   C564      1.0  0.07805  0.94237  0.44955  1.0000
  H   H445      1.0  0.42542  0.75100  0.10679  1.0000
  C   C565      1.0  0.44668  0.97320  0.27107  1.0000
  C   C566      1.0  0.23844  0.95396  0.42680  1.0000
  H   H446      1.0  0.42602  0.93760  0.11543  1.0000
  H   H447      1.0  0.33488  0.76010  0.04284  1.0000
  C   C567      1.0  0.32189  0.98900  0.13201  1.0000
  H   H448      1.0  0.18517  0.89385  0.24067  1.0000
  C   C568      1.0  0.35405  0.77986  0.46498  1.0000
  C   C569      1.0  0.24025  0.92658  0.44001  1.0000
  H   H449      1.0  0.44756  0.96126  0.29349  1.0000
  C   C570      1.0  0.13391  0.96045  0.45464  1.0000
  C   C571      1.0  0.35232  0.73018  0.48464  1.0000
  H   H450      1.0  0.46583  0.75097  0.15108  1.0000
  H   H451      1.0  0.49972  0.89767  0.31473  1.0000
  C   C572      1.0  0.30732  0.96576  0.18254  1.0000
  C   C573      1.0  0.49361  0.89286  0.39621  1.0000
  C   C574      1.0  0.47000  0.72486  0.23206  1.0000
  H   H452      1.0  0.17867  0.97913  0.03414  1.0000
  H   H453      1.0  0.20162  0.97754  0.29601  1.0000
  C   C575      1.0  0.42714  0.96073  0.11479  1.0000
  C   C576      1.0  0.12080  0.92651  0.41254  1.0000
  C   C577      1.0  0.08788  0.92609  0.42293  1.0000
  C   C578      1.0  0.13053  0.97054  0.01394  1.0000
  H   H454      1.0  0.42566  0.80728  0.44464  1.0000
  C   C579      1.0  0.08708  0.96020  0.05258  1.0000
  P   P20       1.0  0.50703  0.70500  0.17961  1.0000
  C   C580      1.0  0.47639  0.79071  0.34429  1.0000
  H   H455      1.0  0.12841  0.91398  0.39179  1.0000
  C   C581      1.0  0.35321  0.77401  0.99645  1.0000
  H   H456      1.0  0.35317  0.95348  0.32883  1.0000
  C   C582      1.0  0.23520  0.92258  0.47297  1.0000
  H   H457      1.0  0.24308  0.95666  0.40139  1.0000
  H   H458      1.0  0.24610  0.90853  0.42461  1.0000
  C   C583      1.0  0.45001  0.68168  0.10267  1.0000
  C   C584      1.0  0.47754  0.76047  0.48213  1.0000
  H   H459      1.0  0.43674  0.96430  0.46309  1.0000
  C   C585      1.0  0.50636  0.66997  0.19814  1.0000
  C   C586      1.0  0.20676  0.92824  0.21321  1.0000
  H   H460      1.0  0.33391  0.74437  0.43848  1.0000
  C   C587      1.0  0.46368  0.67302  0.46116  1.0000
  H   H461      1.0  0.06149  0.95556  0.05835  1.0000
  H   H462      1.0  0.46090  0.70325  0.23456  1.0000
  H   H463      1.0  0.45385  0.66312  0.19059  1.0000
  C   C588      1.0  0.10959  0.96359  0.07775  1.0000
  H   H464      1.0  0.41038  0.76321  0.41581  1.0000
  H   H465      1.0  0.05274  0.98857  0.34616  1.0000
  C   C589      1.0  0.34693  0.75354  0.02071  1.0000
  C   C590      1.0  0.15306  0.97385  0.03920  1.0000
  C   C591      1.0  0.42991  0.76253  0.43358  1.0000
  C   C592      1.0  0.40893  0.79784  0.35921  1.0000
  C   C593      1.0  0.43148  0.81950  0.36622  1.0000
  C   C594      1.0  0.45741  0.74601  0.25256  1.0000
  H   H466      1.0  0.06848  0.90524  0.02756  1.0000
  H   H467      1.0  0.15185  0.97457  0.46537  1.0000
  H   H468      1.0  0.43995  0.96441  0.16462  1.0000
  H   H469      1.0  0.42299  0.83901  0.37761  1.0000
  H   H470      1.0  0.48207  0.83317  0.36433  1.0000
  H   H471      1.0  0.49382  0.66287  0.41925  1.0000
  H   H472      1.0  0.15986  0.97302  0.09075  1.0000
  C   C595      1.0  0.09758  0.96278  0.02043  1.0000
  H   H473      1.0  0.18522  0.93089  0.19804  1.0000
  C   C596      1.0  0.14259  0.97028  0.07109  1.0000
  C   C597      1.0  0.20680  0.90719  0.23706  1.0000
  H   H474      1.0  0.49302  0.83802  0.30482  1.0000
  H   H475      1.0  0.44496  0.66224  0.08952  1.0000
  C   C598      1.0  0.32482  0.96237  0.11709  1.0000
  C   C599      1.0  0.35431  0.94964  0.30310  1.0000
  H   H476      1.0  0.02306  0.93887  0.10736  1.0000
  P   P21       1.0  0.48956  0.70201  0.47524  1.0000
  S   S83       1.0  0.05932  0.96341  0.16009  1.0000
  Fe  Fe41      1.0  0.08274  0.98385  0.20482  1.0000
  H   H477      1.0  0.05225  0.94214  0.45661  1.0000
  C   C600      1.0  0.22640  0.97354  0.47943  1.0000
  C   C601      1.0  0.46815  0.77425  0.24951  1.0000
  C   C602      1.0  0.46913  0.73534  0.46561  1.0000
  P   P22       1.0  0.06856  0.95725  0.98802  1.0000
  H   H478      1.0  0.10130  0.96132  0.10252  1.0000
  H   H479      1.0  0.01881  0.99186  0.02156  1.0000
  C   C603      1.0  0.49133  0.78139  0.22577  1.0000
  H   H480      1.0  0.44232  0.72494  0.99558  1.0000
  C   C604      1.0  0.43379  0.66672  0.47710  1.0000
  C   C605      1.0  0.49013  0.96222  0.46190  1.0000
  H   H481      1.0  0.14324  0.98084  0.35123  1.0000
  H   H482      1.0  0.19626  0.97719  0.37957  1.0000
  H   H483      1.0  0.27629  0.91574  0.99089  1.0000
  C   C606      1.0  0.23125  0.97769  0.44622  1.0000
  H   H484      1.0  0.13887  0.97380  0.98940  1.0000
  C   C607      1.0  0.50366  0.76036  0.20497  1.0000
  C   C608      1.0  0.31297  0.99076  0.16456  1.0000
  H   H485      1.0  0.49947  0.80331  0.22320  1.0000
  C   C609      1.0  0.50740  0.89598  0.33956  1.0000
  C   C610      1.0  0.42059  0.99215  0.26519  1.0000
  C   C611      1.0  0.37158  0.71652  0.98789  1.0000
  H   H486      1.0  0.29736  0.99202  0.42619  1.0000
  H   H487      1.0  0.50862  0.96388  0.14264  1.0000
  C   C612      1.0  0.36936  0.78780  0.49380  1.0000
  H   H488      1.0  0.44482  0.71822  0.52790  1.0000
  Fe  Fe42      1.0  0.15382  0.96945  0.75035  1.0000
  S   S84       1.0  0.20009  0.94127  0.75148  1.0000
  S   S85       1.0  0.09913  0.95977  0.74778  1.0000
  C   C613      1.0  0.46419  0.78643  0.88815  1.0000
  S   S86       1.0  0.37676  0.71311  0.54489  1.0000
  Fe  Fe43      1.0  0.35939  0.90079  0.95040  1.0000
  S   S87       1.0  0.35223  0.91729  0.90013  1.0000
  H   H489      1.0  0.33436  0.74421  0.88561  1.0000
  Fe  Fe44      1.0  0.36454  0.83783  0.92933  1.0000
  S   S88       1.0  0.35675  0.85009  0.87739  1.0000
  S   S89       1.0  0.37878  0.79081  0.93689  1.0000
  Fe  Fe45      1.0  0.39251  0.88583  0.88696  1.0000
  S   S90       1.0  0.43242  0.89564  0.84973  1.0000
  Fe  Fe46      1.0  0.31723  0.88045  0.89450  1.0000
  S   S91       1.0  0.26420  0.88484  0.87599  1.0000
  S   S92       1.0  0.40242  0.87222  0.93771  1.0000
  S   S93       1.0  0.32197  0.86536  0.94600  1.0000
  H   H490      1.0  0.44529  0.74366  0.89638  1.0000
  C   C614      1.0  0.47489  0.89174  0.85935  1.0000
  H   H491      1.0  0.06271  0.92766  0.59923  1.0000
  H   H492      1.0  0.01465  0.96104  0.68063  1.0000
  H   H493      1.0  0.46741  0.88619  0.91029  1.0000
  H   H494      1.0  0.23823  0.94230  0.89941  1.0000
  H   H495      1.0  0.35902  0.88859  0.80715  1.0000
  H   H496      1.0  0.49086  0.89690  0.81009  1.0000
  H   H497      1.0  0.37309  0.96642  0.94048  1.0000
  C   C615      1.0  0.36638  0.97935  0.49403  1.0000
  C   C616      1.0  0.36752  0.73815  0.51349  1.0000
  C   C617      1.0  0.50467  0.81227  0.94039  1.0000
  C   C618      1.0  0.22828  0.94605  0.49268  1.0000
  C   C619      1.0  0.47695  0.82831  0.95001  1.0000
  S   S94       1.0  0.07338  0.99199  0.65732  1.0000
  H   H498      1.0  0.39871  0.96753  0.60146  1.0000
  C   C620      1.0  0.08707  0.94110  0.95267  1.0000
  C   C621      1.0  0.43128  0.81545  0.85182  1.0000
  C   C622      1.0  0.27549  0.99014  0.80665  1.0000
  H   H499      1.0  0.49569  0.75993  0.50126  1.0000
  C   C623      1.0  0.24798  0.90413  0.84272  1.0000
  C   C624      1.0  0.26752  0.91201  0.81629  1.0000
  C   C625      1.0  0.25266  0.92405  0.78875  1.0000
  C   C626      1.0  0.21843  0.92966  0.78797  1.0000
  C   C627      1.0  0.19921  0.92327  0.81512  1.0000
  C   C628      1.0  0.21383  0.91011  0.84209  1.0000
  H   H500      1.0  0.29389  0.90823  0.81670  1.0000
  H   H501      1.0  0.26771  0.92892  0.76785  1.0000
  H   H502      1.0  0.17281  0.92722  0.81471  1.0000
  H   H503      1.0  0.19848  0.90407  0.86238  1.0000
  P   P23       1.0  0.25607  0.97249  0.63580  1.0000
  H   H504      1.0  0.27287  0.81531  0.91212  1.0000
  C   C629      1.0  0.29430  0.79193  0.83707  1.0000
  C   C630      1.0  0.02841  0.95490  0.51768  1.0000
  H   H505      1.0  0.19537  0.97687  0.55517  1.0000
  C   C631      1.0  0.08455  0.93071  0.89532  1.0000
  H   H506      1.0  0.26100  0.70260  0.76781  1.0000
  C   C632      1.0  0.36898  0.76588  0.96785  1.0000
  C   C633      1.0  0.19570  0.85446  0.77710  1.0000
  C   C634      1.0  0.32883  0.85117  0.80014  1.0000
  C   C635      1.0  0.00933  0.96971  0.65706  1.0000
  C   C636      1.0  0.41380  0.76739  0.86479  1.0000
  C   C637      1.0  0.31860  0.76188  0.87854  1.0000
  H   H507      1.0  0.35568  0.78939  0.76520  1.0000
  C   C638      1.0  0.31441  0.76873  0.84598  1.0000
  C   C639      1.0  0.25383  0.84563  0.76632  1.0000
  C   C640      1.0  0.46487  0.72729  0.98154  1.0000
  H   H508      1.0  0.12882  0.92198  0.97745  1.0000
  H   H509      1.0  0.22509  0.87933  0.74433  1.0000
  H   H510      1.0  0.40837  0.86778  0.78059  1.0000
  H   H511      1.0  0.39580  0.75039  0.86300  1.0000
  H   H512      1.0  0.50815  0.66658  0.70269  1.0000
  C   C641      1.0  0.35778  0.86728  0.79696  1.0000
  C   C642      1.0  0.27958  0.80874  0.86119  1.0000
  H   H513      1.0  0.22294  0.79730  0.82006  1.0000
  C   C643      1.0  0.48027  0.84994  0.97301  1.0000
  C   C644      1.0  0.44176  0.76383  0.88415  1.0000
  C   C645      1.0  0.41000  0.98840  0.59911  1.0000
  C   C646      1.0  0.26595  0.92589  0.67612  1.0000
  H   H514      1.0  0.32721  0.75620  0.82789  1.0000
  H   H515      1.0  0.27625  0.85145  0.75361  1.0000
  C   C647      1.0  0.49872  0.89354  0.83467  1.0000
  C   C648      1.0  0.13056  0.91314  0.92685  1.0000
  H   H516      1.0  0.18742  0.96893  0.90997  1.0000
  H   H517      1.0  0.01775  0.96324  0.49566  1.0000
  C   C649      1.0  0.22490  0.86134  0.76078  1.0000
  H   H518      1.0  0.30789  0.86005  0.81314  1.0000
  H   H519      1.0  0.42296  0.69560  0.65095  1.0000
  C   C650      1.0  0.43622  0.99243  0.57742  1.0000
  C   C651      1.0  0.19511  0.83133  0.79839  1.0000
  H   H520      1.0  0.11893  0.94856  0.62125  1.0000
  C   C652      1.0  0.07378  0.95052  0.55535  1.0000
  H   H521      1.0  0.30432  0.79485  0.72658  1.0000
  C   C653      1.0  0.38568  0.85545  0.78208  1.0000
  H   H522      1.0  0.30708  0.77342  0.92757  1.0000
  H   H523      1.0  0.26533  0.82755  0.85507  1.0000
  C   C654      1.0  0.28390  0.80191  0.89366  1.0000
  H   H524      1.0  0.17362  0.86724  0.77331  1.0000
  H   H525      1.0  0.22492  0.94294  0.51831  1.0000
  C   C655      1.0  0.31904  0.97131  0.84041  1.0000
  C   C656      1.0  0.30113  0.97932  0.86787  1.0000
  H   H526      1.0  0.21974  0.91899  0.62358  1.0000
  C   C657      1.0  0.25364  0.82279  0.78827  1.0000
  H   H527      1.0  0.26702  0.74336  0.80495  1.0000
  H   H528      1.0  0.44529  0.97431  0.56379  1.0000
  H   H529      1.0  0.39014  0.73047  0.94161  1.0000
  H   H530      1.0  0.27666  0.70757  0.71028  1.0000
  C   C658      1.0  0.20212  0.93639  0.62519  1.0000
  C   C659      1.0  0.11663  0.92529  0.95460  1.0000
  C   C660      1.0  0.30322  0.77839  0.90233  1.0000
  C   C661      1.0  0.22387  0.81530  0.80367  1.0000
  H   H531      1.0  0.07223  0.93306  0.87227  1.0000
  C   C662      1.0  0.38460  0.82751  0.77023  1.0000
  H   H532      1.0  0.37871  0.69445  0.98437  1.0000
  C   C663      1.0  0.11468  0.91605  0.89717  1.0000
  C   C664      1.0  0.03326  0.98609  0.64110  1.0000
  C   C665      1.0  0.40837  0.79330  0.84894  1.0000
  H   H533      1.0  0.25021  0.90410  0.93874  1.0000
  H   H534      1.0  0.42702  0.83556  0.83961  1.0000
  H   H535      1.0  0.38607  0.79645  0.83502  1.0000
  C   C666      1.0  0.24775  0.94795  0.92290  1.0000
  C   C667      1.0  0.35563  0.81133  0.77339  1.0000
  H   H536      1.0  0.17239  0.82592  0.81093  1.0000
  P   P24       1.0  0.08725  0.98178  0.49904  1.0000
  H   H537      1.0  0.12562  0.90688  0.87561  1.0000
  H   H538      1.0  0.31988  0.97019  0.78854  1.0000
  C   C668      1.0  0.45926  0.72799  0.66179  1.0000
  C   C669      1.0  0.49653  0.75253  0.94050  1.0000
  C   C670      1.0  0.01247  0.98863  0.87204  1.0000
  C   C671      1.0  0.49287  0.69916  0.51864  1.0000
  C   C672      1.0  0.27931  0.96506  0.57283  1.0000
  C   C673      1.0  0.27913  0.94231  0.65081  1.0000
  C   C674      1.0  0.31149  0.93678  0.63993  1.0000
  C   C675      1.0  0.32979  0.91427  0.65321  1.0000
  C   C676      1.0  0.31624  0.89765  0.67795  1.0000
  C   C677      1.0  0.28442  0.90360  0.68952  1.0000
  C   C678      1.0  0.45844  0.99043  0.50006  1.0000
  H   H539      1.0  0.34270  0.96057  0.84288  1.0000
  H   H540      1.0  0.24161  0.93066  0.68598  1.0000
  H   H541      1.0  0.01886  0.96656  0.87605  1.0000
  H   H542      1.0  0.49981  0.75521  0.67488  1.0000
  H   H543      1.0  0.49872  0.79959  0.77165  1.0000
  H   H544      1.0  0.49571  0.75597  0.73844  1.0000
  H   H545      1.0  0.28033  0.94241  0.57805  1.0000
  H   H546      1.0  0.47654  0.82948  0.87353  1.0000
  C   C679      1.0  0.07061  0.94282  0.92304  1.0000
  C   C680      1.0  0.06147  0.96072  0.52586  1.0000
  C   C681      1.0  0.14876  0.97916  0.52999  1.0000
  H   H547      1.0  0.45267  0.82376  0.94026  1.0000
  C   C682      1.0  0.46744  0.74925  0.95881  1.0000
  C   C683      1.0  0.36984  0.97928  0.96186  1.0000
  H   H548      1.0  0.15362  0.90127  0.92832  1.0000
  C   C684      1.0  0.14520  0.95289  0.62323  1.0000
  H   H549      1.0  0.32287  0.95005  0.62163  1.0000
  H   H550      1.0  0.35466  0.90994  0.64456  1.0000
  H   H551      1.0  0.33056  0.88042  0.68844  1.0000
  C   C685      1.0  0.15587  0.98088  0.62819  1.0000
  C   C686      1.0  0.46805  0.70503  0.57174  1.0000
  H   H552      1.0  0.15999  0.90895  0.61761  1.0000
  C   C687      1.0  0.16833  0.93066  0.62145  1.0000
  C   C688      1.0  0.25480  0.92621  0.94498  1.0000
  C   C689      1.0  0.37799  0.73702  0.96368  1.0000
  C   C690      1.0  0.02089  0.92863  0.56746  1.0000
  C   C691      1.0  0.26927  0.93274  0.97450  1.0000
  C   C692      1.0  0.46666  0.70853  0.53834  1.0000
  C   C693      1.0  0.48966  0.73383  0.67643  1.0000
  C   C694      1.0  0.05031  0.99164  0.97904  1.0000
  H   H553      1.0  0.49180  0.95730  0.83730  1.0000
  H   H554      1.0  0.29804  0.75377  0.68975  1.0000
  H   H555      1.0  0.40649  0.81820  0.75928  1.0000
  H   H556      1.0  0.49704  0.68972  0.61174  1.0000
  S   S95       1.0  0.36914  0.94160  0.49605  1.0000
  C   C695      1.0  0.29200  0.75146  0.71509  1.0000
  C   C696      1.0  0.27986  0.72543  0.72662  1.0000
  C   C697      1.0  0.27114  0.72261  0.75908  1.0000
  C   C698      1.0  0.27489  0.74571  0.78012  1.0000
  C   C699      1.0  0.28812  0.77164  0.76894  1.0000
  C   C700      1.0  0.29577  0.77459  0.73607  1.0000
  P   P25       1.0  0.29075  0.80217  0.79530  1.0000
  C   C701      1.0  0.32739  0.82324  0.78805  1.0000
  H   H557      1.0  0.09865  0.95523  0.56299  1.0000
  C   C702      1.0  0.44630  0.70033  0.66265  1.0000
  H   H558      1.0  0.14967  0.95695  0.52268  1.0000
  C   C703      1.0  0.46390  0.67847  0.67787  1.0000
  C   C704      1.0  0.50711  0.71208  0.69241  1.0000
  Fe  Fe47      1.0  0.36600  0.66553  0.55513  1.0000
  C   C705      1.0  0.48542  0.88750  0.89106  1.0000
  H   H559      1.0  0.44679  0.76388  0.95578  1.0000
  H   H560      1.0  0.27412  0.89124  0.70919  1.0000
  H   H561      1.0  0.38806  0.77357  0.53980  1.0000
  C   C706      1.0  0.21278  0.96439  0.63133  1.0000
  H   H562      1.0  0.44592  0.74478  0.64933  1.0000
  S   S96       1.0  0.06232  0.98679  0.82702  1.0000
  C   C707      1.0  0.49438  0.68417  0.69231  1.0000
  C   C708      1.0  0.45915  0.81203  0.87129  1.0000
  C   C709      1.0  0.37620  0.76707  0.51771  1.0000
  C   C710      1.0  0.05352  0.93460  0.57603  1.0000
  H   H563      1.0  0.37605  0.80989  0.49762  1.0000
  H   H564      1.0  0.44705  0.71138  0.58645  1.0000
  H   H565      1.0  0.04705  0.95374  0.92140  1.0000
  H   H566      1.0  0.45879  0.86221  0.98046  1.0000
  H   H567      1.0  0.29709  0.95954  0.52405  1.0000
  C   C711      1.0  0.49608  0.69290  0.58592  1.0000
  H   H568      1.0  0.22143  0.98306  0.69657  1.0000
  H   H569      1.0  0.42566  0.67901  0.49773  1.0000
  P   P26       1.0  0.50019  0.78249  0.91329  1.0000
  C   C712      1.0  0.28825  0.97461  0.54204  1.0000
  C   C713      1.0  0.30627  0.97680  0.80981  1.0000
  C   C714      1.0  0.17464  0.99028  0.54841  1.0000
  C   C715      1.0  0.26835  0.98301  0.96063  1.0000
  C   C716      1.0  0.27599  0.96111  0.98231  1.0000
  H   H570      1.0  0.31139  0.97476  0.89140  1.0000
  C   C717      1.0  0.25412  0.97660  0.93066  1.0000
  H   H571      1.0  0.36810  0.98401  0.54550  1.0000
  H   H572      1.0  0.12979  0.97599  0.89267  1.0000
  C   C718      1.0  0.26944  0.98472  0.59660  1.0000
  H   H573      1.0  0.50647  0.94626  0.89367  1.0000
  C   C719      1.0  0.18948  0.98661  0.63236  1.0000
  C   C720      1.0  0.18087  0.98851  0.89780  1.0000
  H   H574      1.0  0.22164  0.99133  0.49530  1.0000
  Fe  Fe48      1.0  0.09540  0.99279  0.70823  1.0000
  C   C721      1.0  0.14799  0.99242  0.88817  1.0000
  C   C722      1.0  0.49145  0.70868  0.98650  1.0000
  H   H575      1.0  0.56463  0.23499  0.19977  1.0000
  C   C723      1.0  0.84380  0.01521  0.11520  1.0000
  C   C724      1.0  0.58050  0.26301  0.30964  1.0000
  H   H576      1.0  0.54908  0.05542  0.12100  1.0000
  H   H577      1.0  0.79784  0.08234  0.45879  1.0000
  C   C725      1.0  0.63026  0.00786  0.02608  1.0000
  Fe  Fe49      1.0  0.69264  0.11574  0.14819  1.0000
  S   S97       1.0  0.68616  0.12922  0.20018  1.0000
  S   S98       1.0  0.74566  0.10465  0.13294  1.0000
  Fe  Fe50      1.0  0.61780  0.11643  0.13657  1.0000
  S   S99       1.0  0.60626  0.12886  0.18757  1.0000
  S   S100      1.0  0.57968  0.10694  0.09769  1.0000
  Fe  Fe51      1.0  0.64795  0.16074  0.18257  1.0000
  S   S101      1.0  0.63573  0.20745  0.19630  1.0000
  Fe  Fe52      1.0  0.64527  0.09659  0.20097  1.0000
  S   S102      1.0  0.63876  0.06652  0.24360  1.0000
  S   S103      1.0  0.65755  0.14971  0.13017  1.0000
  S   S104      1.0  0.65371  0.08161  0.15041  1.0000
  S   S105      1.0  0.69167  0.30358  0.29230  1.0000
  C   C726      1.0  0.65177  0.23367  0.22342  1.0000
  C   C727      1.0  0.67752  0.22786  0.24492  1.0000
  C   C728      1.0  0.68920  0.24943  0.26582  1.0000
  C   C729      1.0  0.67529  0.27710  0.26574  1.0000
  C   C730      1.0  0.64930  0.28284  0.24447  1.0000
  C   C731      1.0  0.63785  0.26134  0.22337  1.0000
  H   H578      1.0  0.68860  0.20680  0.24531  1.0000
  H   H579      1.0  0.70934  0.24470  0.28207  1.0000
  H   H580      1.0  0.63837  0.30394  0.24396  1.0000
  H   H581      1.0  0.61830  0.26628  0.20656  1.0000
  C   C732      1.0  0.63985  0.02883  0.24008  1.0000
  C   C733      1.0  0.88696  0.08898  0.17171  1.0000
  C   C734      1.0  0.64574  0.01518  0.21063  1.0000
  H   H582      1.0  0.63014  0.02250  0.29064  1.0000
  H   H583      1.0  0.64966  0.02775  0.18912  1.0000
  C   C735      1.0  0.53736  0.11521  0.10438  1.0000
  H   H584      1.0  0.52355  0.04269  0.06849  1.0000
  C   C736      1.0  0.70946  0.01218  0.30142  1.0000
  C   C737      1.0  0.72328  0.02252  0.13642  1.0000
  H   H585      1.0  0.54363  0.12988  0.15303  1.0000
  H   H586      1.0  0.64831  0.28294  0.35242  1.0000
  C   C738      1.0  0.87158  0.10356  0.14641  1.0000
  H   H587      1.0  0.86752  0.10815  0.09491  1.0000
  H   H588      1.0  0.90769  0.06920  0.08310  1.0000
  C   C739      1.0  0.52621  0.12592  0.13394  1.0000
  C   C740      1.0  0.78887  0.06909  0.03804  1.0000
  C   C741      1.0  0.80851  0.07225  0.06537  1.0000
  C   C742      1.0  0.79466  0.08313  0.09407  1.0000
  C   C743      1.0  0.76102  0.09067  0.09600  1.0000
  C   C744      1.0  0.74117  0.08727  0.06873  1.0000
  C   C745      1.0  0.75514  0.07674  0.03981  1.0000
  H   H589      1.0  0.83454  0.06700  0.06404  1.0000
  H   H590      1.0  0.81010  0.08600  0.11495  1.0000
  H   H591      1.0  0.71533  0.09333  0.06983  1.0000
  H   H592      1.0  0.73992  0.07472  0.01861  1.0000
  C   C746      1.0  0.61169  0.26119  0.32398  1.0000
  C   C747      1.0  0.90184  0.07479  0.10785  1.0000
  H   H593      1.0  0.81956  0.08409  0.23048  1.0000
  C   C748      1.0  0.94215  0.01308  0.18877  1.0000
  C   C749      1.0  0.65791  0.01607  0.42615  1.0000
  H   H594      1.0  0.85394  0.03348  0.10273  1.0000
  C   C750      1.0  0.54303  0.24070  0.21411  1.0000
  H   H595      1.0  0.73904  0.09770  0.45807  1.0000
  H   H596      1.0  0.85418  0.02525  0.39409  1.0000
  C   C751      1.0  0.73010  0.03071  0.42679  1.0000
  C   C752      1.0  0.60431  0.30845  0.34638  1.0000
  H   H597      1.0  0.80750  0.03992  0.14091  1.0000
  Fe  Fe53      1.0  0.85501  0.03352  0.99342  1.0000
  C   C753      1.0  0.81994  0.01538  0.35601  1.0000
  C   C754      1.0  0.86162  0.02974  0.26515  1.0000
  C   C755      1.0  0.63502  0.01216  0.26782  1.0000
  H   H598      1.0  0.88164  0.01052  0.22250  1.0000
  Fe  Fe54      1.0  0.91936  0.00704  0.01973  1.0000
  H   H599      1.0  0.68772  0.05406  0.30576  1.0000
  C   C756      1.0  0.81252  0.99673  0.33080  1.0000
  C   C757      1.0  0.77900  0.06825  0.44917  1.0000
  H   H600      1.0  0.76568  0.10400  0.24900  1.0000
  C   C758      1.0  0.98209  0.02798  0.35115  1.0000
  H   H601      1.0  0.69034  0.04035  0.10113  1.0000
  H   H602      1.0  0.88124  0.09524  0.19616  1.0000
  P   P27       1.0  0.56448  0.99613  0.04287  1.0000
  C   C759      1.0  0.76370  0.02292  0.42544  1.0000
  H   H603      1.0  0.96811  0.04370  0.33777  1.0000
  H   H604      1.0  0.68217  0.01631  0.01765  1.0000
  H   H605      1.0  0.52267  0.10209  0.05680  1.0000
  H   H606      1.0  0.85378  0.12040  0.15146  1.0000
  C   C760      1.0  0.63064  0.01610  0.40529  1.0000
  H   H607      1.0  0.57388  0.05857  0.04849  1.0000
  C   C761      1.0  0.91677  0.05986  0.13308  1.0000
  H   H608      1.0  0.70216  0.15336  0.98981  1.0000
  C   C762      1.0  0.56171  0.28826  0.31222  1.0000
  H   H609      1.0  0.54944  0.06546  0.22350  1.0000
  H   H610      1.0  0.97598  0.08185  0.15400  1.0000
  H   H611      1.0  0.51014  0.21322  0.18784  1.0000
  C   C763      1.0  0.90983  0.06701  0.16523  1.0000
  H   H612      1.0  0.94747  0.02722  0.39124  1.0000
  S   S106      1.0  0.80580  0.05705  0.00089  1.0000
  H   H613      1.0  0.62296  0.08892  0.04416  1.0000
  C   C764      1.0  0.69599  0.03514  0.31861  1.0000
  H   H614      1.0  0.69585  0.06510  0.43799  1.0000
  C   C765      1.0  0.58423  0.99554  0.13974  1.0000
  C   C766      1.0  0.81765  0.01877  0.13703  1.0000
  C   C767      1.0  0.65818  0.02542  0.02354  1.0000
  H   H615      1.0  0.55954  0.15429  0.44805  1.0000
  C   C768      1.0  0.90679  0.07396  0.25437  1.0000
  C   C769      1.0  0.53639  0.05356  0.14390  1.0000
  H   H616      1.0  0.95243  0.00996  0.27418  1.0000
  H   H617      1.0  0.89933  0.00603  0.15874  1.0000
  C   C770      1.0  0.51424  0.11013  0.07983  1.0000
  C   C771      1.0  0.54599  0.26033  0.23929  1.0000
  H   H618      1.0  0.71491  0.03276  0.20767  1.0000
  C   C772      1.0  0.51862  0.26685  0.25899  1.0000
  H   H619      1.0  0.81363  0.03474  0.43807  1.0000
  C   C773      1.0  0.53656  0.05928  0.20171  1.0000
  P   P28       1.0  0.93208  0.04990  0.19775  1.0000
  H   H620      1.0  0.92349  0.09167  0.25012  1.0000
  C   C774      1.0  0.80411  0.99505  0.15294  1.0000
  C   C775      1.0  0.59878  0.02146  0.41729  1.0000
  C   C776      1.0  0.99591  0.01788  0.11382  1.0000
  S   S107      1.0  0.95039  0.01573  0.06491  1.0000
  C   C777      1.0  0.62491  0.06635  0.03839  1.0000
  H   H621      1.0  0.73525  0.04286  0.14075  1.0000
  C   C778      1.0  0.65551  0.05463  0.02983  1.0000
  C   C779      1.0  0.59690  0.04893  0.04074  1.0000
  H   H622      1.0  0.98685  0.01207  0.21767  1.0000
  H   H623      1.0  0.57166  0.24489  0.29608  1.0000
  C   C780      1.0  0.86292  0.05284  0.28639  1.0000
  C   C781      1.0  0.78792  0.04136  0.43737  1.0000
  H   H624      1.0  0.56981  0.27017  0.24357  1.0000
  H   H625      1.0  0.84629  0.05379  0.30691  1.0000
  C   C782      1.0  0.97032  0.00019  0.20227  1.0000
  H   H626      1.0  0.62698  0.24239  0.32036  1.0000
  C   C783      1.0  0.55078  0.16643  0.46862  1.0000
  C   C784      1.0  0.69243  0.03340  0.35212  1.0000
  C   C785      1.0  0.87928  0.09667  0.11450  1.0000
  C   C786      1.0  0.58674  0.00006  0.10655  1.0000
  H   H627      1.0  0.68206  0.05139  0.36513  1.0000
  C   C787      1.0  0.88320  0.02851  0.23876  1.0000
  H   H628      1.0  0.84379  0.01283  0.26905  1.0000
  C   C788      1.0  0.72140  0.05807  0.43793  1.0000
  C   C789      1.0  0.65270  0.02048  0.45923  1.0000
  C   C790      1.0  0.88547  0.07494  0.28099  1.0000
  H   H629      1.0  0.80398  0.03352  0.36093  1.0000
  H   H630      1.0  0.60840  0.01087  0.09731  1.0000
  C   C791      1.0  0.62084  0.02586  0.47116  1.0000
  C   C792      1.0  0.62371  0.28400  0.34213  1.0000
  P   P29       1.0  0.69877  0.00671  0.41185  1.0000
  S   S108      1.0  0.90759  0.04912  0.99554  1.0000
  C   C793      1.0  0.90625  0.05046  0.23337  1.0000
  C   C794      1.0  0.51087  0.26281  0.47046  1.0000
  C   C795      1.0  0.55280  0.06128  0.17207  1.0000
  H   H631      1.0  0.71364  0.07778  0.23810  1.0000
  H   H632      1.0  0.57803  0.06908  0.17087  1.0000
  H   H633      1.0  0.93401  0.04294  0.12739  1.0000
  H   H634      1.0  0.61347  0.32600  0.36073  1.0000
  P   P30       1.0  0.52290  0.29247  0.29127  1.0000
  C   C796      1.0  0.98664  0.08213  0.17783  1.0000
  H   H635      1.0  0.98913  0.04017  0.11538  1.0000
  H   H636      1.0  0.82140  0.03858  0.20053  1.0000
  H   H637      1.0  0.67729  0.06808  0.02888  1.0000
  C   C797      1.0  0.97065  0.06872  0.20389  1.0000
  H   H638      1.0  0.88631  0.09299  0.29733  1.0000
  C   C798      1.0  0.59388  0.02645  0.45017  1.0000
  C   C799      1.0  0.76822  0.03265  0.20108  1.0000
  H   H639      1.0  0.71148  0.01329  0.27540  1.0000
  C   C800      1.0  0.74581  0.07675  0.44907  1.0000
  C   C801      1.0  0.84802  0.01062  0.37483  1.0000
  C   C802      1.0  0.97026  0.01862  0.38145  1.0000
  C   C803      1.0  0.59920  0.01950  0.03443  1.0000
  C   C804      1.0  0.51127  0.03408  0.04753  1.0000
  C   C805      1.0  0.79775  0.04700  0.20835  1.0000
  C   C806      1.0  0.79684  0.07267  0.22559  1.0000
  C   C807      1.0  0.76654  0.08385  0.23617  1.0000
  C   C808      1.0  0.73718  0.06918  0.22990  1.0000
  C   C809      1.0  0.73799  0.04368  0.21246  1.0000
  H   H640      1.0  0.56915  0.03054  0.45935  1.0000
  H   H641      1.0  0.77118  0.00239  0.41571  1.0000
  H   H642      1.0  0.60383  0.00270  0.15551  1.0000
  H   H643      1.0  0.56612  0.09412  0.98854  1.0000
  C   C810      1.0  0.98589  0.06893  0.23424  1.0000
  C   C811      1.0  0.57349  0.31068  0.33139  1.0000
  C   C812      1.0  0.51234  0.22841  0.20744  1.0000
  H   H644      1.0  0.57782  0.02141  0.40105  1.0000
  H   H645      1.0  0.00644  0.06922  0.44500  1.0000
  H   H646      1.0  0.54138  0.29755  0.45336  1.0000
  C   C813      1.0  0.52558  0.01162  0.02978  1.0000
  H   H647      1.0  0.97490  0.05793  0.25458  1.0000
  C   C814      1.0  0.98152  0.00054  0.09001  1.0000
  C   C815      1.0  0.69788  0.02112  0.11375  1.0000
  C   C816      1.0  0.70195  0.00848  0.36855  1.0000
  H   H648      1.0  0.67326  0.01941  0.47583  1.0000
  H   H649      1.0  0.63372  0.01145  0.37990  1.0000
  H   H650      1.0  0.66332  0.99387  0.08931  1.0000
  P   P31       1.0  0.76877  0.99936  0.17926  1.0000
  C   C817      1.0  0.73346  0.99782  0.15290  1.0000
  C   C818      1.0  0.52107  0.18177  0.46669  1.0000
  H   H651      1.0  0.99049  0.03678  0.00751  1.0000
  C   C819      1.0  0.51638  0.28949  0.45610  1.0000
  S   S109      1.0  0.87562  0.99563  0.45859  1.0000
  H   H652      1.0  0.79072  0.00034  0.31623  1.0000
  H   H653      1.0  0.53194  0.25063  0.47883  1.0000
  C   C820      1.0  0.98851  0.99882  0.39940  1.0000
  C   C821      1.0  0.68267  0.99501  0.10714  1.0000
  C   C822      1.0  0.92144  0.99675  0.16894  1.0000
  H   H654      1.0  0.53406  0.11117  0.49802  1.0000
  S   S110      1.0  0.83628  0.05664  0.51365  1.0000
  C   C823      1.0  0.71118  0.05148  0.52495  1.0000
  H   H655      1.0  0.80121  0.00279  0.75173  1.0000
  H   H656      1.0  0.79943  0.04530  0.93468  1.0000
  C   C824      1.0  0.66495  0.05203  0.81377  1.0000
  Fe  Fe55      1.0  0.68743  0.09314  0.64174  1.0000
  S   S111      1.0  0.68828  0.10664  0.69380  1.0000
  S   S112      1.0  0.72685  0.06117  0.62535  1.0000
  Fe  Fe56      1.0  0.61733  0.11796  0.63275  1.0000
  S   S113      1.0  0.61332  0.13261  0.68412  1.0000
  S   S114      1.0  0.57714  0.12453  0.59524  1.0000
  Fe  Fe57      1.0  0.66546  0.14824  0.67750  1.0000
  S   S115      1.0  0.68635  0.19177  0.69236  1.0000
  Fe  Fe58      1.0  0.63632  0.08991  0.69600  1.0000
  S   S116      1.0  0.61997  0.06286  0.73857  1.0000
  S   S117      1.0  0.66854  0.13590  0.62485  1.0000
  S   S118      1.0  0.63637  0.07423  0.64513  1.0000
  S   S119      1.0  0.62935  0.29124  0.78382  1.0000
  C   C825      1.0  0.66970  0.21925  0.71759  1.0000
  C   C826      1.0  0.64146  0.21512  0.73667  1.0000
  C   C827      1.0  0.62955  0.23737  0.75664  1.0000
  C   C828      1.0  0.64560  0.26408  0.75790  1.0000
  C   C829      1.0  0.67383  0.26820  0.73877  1.0000
  C   C830      1.0  0.68578  0.24591  0.71886  1.0000
  H   H657      1.0  0.62909  0.19466  0.73640  1.0000
  H   H658      1.0  0.60791  0.23376  0.77149  1.0000
  H   H659      1.0  0.68655  0.28849  0.73947  1.0000
  H   H660      1.0  0.70774  0.24937  0.70436  1.0000
  C   C831      1.0  0.62235  0.02515  0.73573  1.0000
  H   H661      1.0  0.78245  0.00073  0.66807  1.0000
  H   H662      1.0  0.70555  0.99409  0.88529  1.0000
  H   H663      1.0  0.61246  0.01888  0.78613  1.0000
  H   H664      1.0  0.63126  0.02383  0.68466  1.0000
  C   C832      1.0  0.53514  0.12301  0.60743  1.0000
  H   H665      1.0  0.69530  0.99544  0.75538  1.0000
  C   C833      1.0  0.52612  0.11698  0.63928  1.0000
  H   H666      1.0  0.86922  0.10121  0.95230  1.0000
  H   H667      1.0  0.54504  0.11360  0.65723  1.0000
  C   C834      1.0  0.51311  0.07365  0.51995  1.0000
  H   H668      1.0  0.77244  0.14606  0.91246  1.0000
  C   C835      1.0  0.77227  0.00647  0.93229  1.0000
  C   C836      1.0  0.54277  0.25858  0.79018  1.0000
  H   H669      1.0  0.54133  0.99822  0.51233  1.0000
  C   C837      1.0  0.80651  0.05833  0.54539  1.0000
  C   C838      1.0  0.80141  0.03529  0.56628  1.0000
  C   C839      1.0  0.77686  0.03673  0.59036  1.0000
  C   C840      1.0  0.75721  0.06127  0.59428  1.0000
  C   C841      1.0  0.76234  0.08454  0.57365  1.0000
  C   C842      1.0  0.78683  0.08300  0.54924  1.0000
  H   H670      1.0  0.81619  0.01624  0.56389  1.0000
  H   H671      1.0  0.77297  0.01859  0.60596  1.0000
  H   H672      1.0  0.74746  0.10362  0.57646  1.0000
  H   H673      1.0  0.79055  0.10099  0.53328  1.0000
  H   H674      1.0  0.74537  0.17485  0.95488  1.0000
  H   H675      1.0  0.64993  0.01075  0.95032  1.0000
  C   C843      1.0  0.85800  0.10038  0.92865  1.0000
  C   C844      1.0  0.87774  0.10231  0.90106  1.0000
  C   C845      1.0  0.65257  0.01118  0.84747  1.0000
  C   C846      1.0  0.59005  0.20309  0.65824  1.0000
  C   C847      1.0  0.57903  0.19741  0.62709  1.0000
  H   H676      1.0  0.57332  0.01549  0.83067  1.0000
  C   C848      1.0  0.75326  0.13645  0.92721  1.0000
  P   P32       1.0  0.60369  0.01041  0.89526  1.0000
  H   H677      1.0  0.55626  0.28598  0.75072  1.0000
  H   H678      1.0  0.61618  0.20680  0.66264  1.0000
  H   H679      1.0  0.59663  0.19640  0.60735  1.0000
  C   C849      1.0  0.87505  0.00651  0.64385  1.0000
  C   C850      1.0  0.99444  0.04511  0.86057  1.0000
  C   C851      1.0  0.51148  0.09988  0.50388  1.0000
  C   C852      1.0  0.61848  0.00855  0.76363  1.0000
  C   C853      1.0  0.59147  0.03689  0.92485  1.0000
  S   S120      1.0  0.94580  0.04664  0.90750  1.0000
  C   C854      1.0  0.80848  0.00226  0.66208  1.0000
  Fe  Fe59      1.0  0.91721  0.02574  0.94898  1.0000
  C   C855      1.0  0.98685  0.00124  0.89032  1.0000
  H   H680      1.0  0.69019  0.03577  0.71696  1.0000
  S   S121      1.0  0.86335  0.01459  0.94415  1.0000
  C   C856      1.0  0.53383  0.19762  0.67875  1.0000
  H   H681      1.0  0.90073  0.00827  0.63625  1.0000
  C   C857      1.0  0.51023  0.12751  0.58450  1.0000
  H   H682      1.0  0.87861  0.10311  0.84938  1.0000
  H   H683      1.0  0.51997  0.06658  0.58789  1.0000
  H   H684      1.0  0.78817  0.99566  0.94946  1.0000
  C   C858      1.0  0.61419  0.05783  0.93469  1.0000
  C   C859      1.0  0.62841  0.02706  0.86409  1.0000
  C   C860      1.0  0.52098  0.02190  0.57446  1.0000
  C   C861      1.0  0.55944  0.03694  0.93828  1.0000
  H   H685      1.0  0.68968  0.01131  0.81026  1.0000
  C   C862      1.0  0.62230  0.05547  0.85481  1.0000
  C   C863      1.0  0.64050  0.06784  0.82968  1.0000
  C   C864      1.0  0.73798  0.15283  0.95122  1.0000
  H   H686      1.0  0.71209  0.07376  0.93960  1.0000
  C   C865      1.0  0.55762  0.04383  0.61350  1.0000
  C   C866      1.0  0.83886  0.02471  0.84858  1.0000
  H   H687      1.0  0.98757  0.06710  0.85600  1.0000
  H   H688      1.0  0.80346  0.00689  0.81568  1.0000
  H   H689      1.0  0.80897  0.09532  0.94759  1.0000
  C   C867      1.0  0.71736  0.00624  0.74673  1.0000
  C   C868      1.0  0.57236  0.01734  0.61952  1.0000
  H   H690      1.0  0.75488  0.03500  0.50146  1.0000
  C   C869      1.0  0.74426  0.10775  0.92272  1.0000
  C   C870      1.0  0.97778  0.02968  0.88483  1.0000
  H   H691      1.0  0.81830  0.09648  0.84392  1.0000
  H   H692      1.0  0.71605  0.07341  0.51810  1.0000
  C   C871      1.0  0.67123  0.02382  0.82293  1.0000
  S   S122      1.0  0.92577  0.01768  0.51616  1.0000
  C   C872      1.0  0.52295  0.19213  0.64729  1.0000
  C   C873      1.0  0.54547  0.19218  0.62161  1.0000
  H   H693      1.0  0.60283  0.06781  0.86626  1.0000
  H   H694      1.0  0.63498  0.08940  0.82173  1.0000
  C   C874      1.0  0.55042  0.05750  0.96117  1.0000
  H   H695      1.0  0.67793  0.06124  0.79338  1.0000
  H   H696      1.0  0.62260  0.09449  0.96502  1.0000
  Fe  Fe60      1.0  0.87052  0.01808  0.50676  1.0000
  H   H697      1.0  0.82744  0.07151  0.63965  1.0000
  H   H698      1.0  0.82215  0.04095  0.85737  1.0000
  C   C875      1.0  0.71442  0.02877  0.72488  1.0000
  H   H699      1.0  0.71815  0.99964  0.66730  1.0000
  H   H700      1.0  0.53432  0.25351  0.70909  1.0000
  P   P33       1.0  0.76522  0.08653  0.89248  1.0000
  C   C876      1.0  0.55914  0.00047  0.84489  1.0000
  C   C877      1.0  0.75837  0.04911  0.90161  1.0000
  H   H701      1.0  0.66765  0.06195  0.55271  1.0000
  C   C878      1.0  0.77871  0.03477  0.92367  1.0000
  C   C879      1.0  0.56760  0.20317  0.68395  1.0000
  C   C880      1.0  0.53182  0.04606  0.59134  1.0000
  C   C881      1.0  0.73139  0.03446  0.88819  1.0000
  C   C882      1.0  0.73303  0.02984  0.51550  1.0000
  C   C883      1.0  0.53704  0.14503  0.72884  1.0000
  H   H702      1.0  0.86177  0.01206  0.73422  1.0000
  C   C884      1.0  0.71937  0.09585  0.94230  1.0000
  H   H703      1.0  0.68555  0.10296  0.98185  1.0000
  C   C885      1.0  0.75008  0.09446  0.85249  1.0000
  C   C886      1.0  0.73213  0.11962  0.84631  1.0000
  C   C887      1.0  0.72095  0.12563  0.81516  1.0000
  C   C888      1.0  0.72762  0.10665  0.78998  1.0000
  C   C889      1.0  0.74543  0.08158  0.79592  1.0000
  C   C890      1.0  0.75656  0.07545  0.82702  1.0000
  H   H704      1.0  0.54115  0.02145  0.93102  1.0000
  C   C891      1.0  0.87089  0.02281  0.86090  1.0000
  H   H705      1.0  0.87938  0.03820  0.87851  1.0000
  H   H706      1.0  0.73962  0.05780  0.69368  1.0000
  C   C892      1.0  0.51915  0.22080  0.74311  1.0000
  C   C893      1.0  0.62865  0.01144  0.70642  1.0000
  C   C894      1.0  0.72775  0.00171  0.52546  1.0000
  H   H707      1.0  0.57686  0.20699  0.70797  1.0000
  H   H708      1.0  0.75663  0.14349  0.69455  1.0000
  H   H709      1.0  0.71481  0.04512  0.87168  1.0000
  C   C895      1.0  0.77714  0.01052  0.74440  1.0000
  H   H710      1.0  0.59202  0.01563  0.63713  1.0000
  C   C896      1.0  0.53834  0.11684  0.73996  1.0000
  H   H711      1.0  0.90439  0.10444  0.90330  1.0000
  H   H712      1.0  0.51069  0.08164  0.75966  1.0000
  H   H713      1.0  0.72671  0.13471  0.86534  1.0000
  H   H714      1.0  0.70715  0.14510  0.81046  1.0000
  H   H715      1.0  0.71875  0.11136  0.76590  1.0000
  H   H716      1.0  0.75031  0.06676  0.77647  1.0000
  H   H717      1.0  0.77018  0.05586  0.83119  1.0000
  C   C897      1.0  0.80904  0.09438  0.89541  1.0000
  H   H718      1.0  0.99077  0.99863  0.57109  1.0000
  C   C898      1.0  0.70420  0.11231  0.96633  1.0000
  H   H719      1.0  0.00489  0.06235  0.95697  1.0000
  H   H720      1.0  0.99847  0.05465  0.50195  1.0000
  C   C899      1.0  0.55814  0.18265  0.52342  1.0000
  C   C900      1.0  0.72555  0.00583  0.89626  1.0000
  H   H721      1.0  0.56161  0.10517  0.73949  1.0000
  C   C901      1.0  0.82890  0.09752  0.86773  1.0000
  H   H722      1.0  0.56575  0.06268  0.62637  1.0000
  H   H723      1.0  0.77122  0.09887  0.72300  1.0000
  H   H724      1.0  0.55954  0.15497  0.72043  1.0000
  C   C902      1.0  0.52858  0.23258  0.79934  1.0000
  H   H725      1.0  0.57244  0.18269  0.54548  1.0000
  C   C903      1.0  0.82379  0.09686  0.92585  1.0000
  C   C904      1.0  0.68394  0.04500  0.54444  1.0000
  H   H726      1.0  0.53708  0.18703  0.59761  1.0000
  C   C905      1.0  0.82848  0.02337  0.67604  1.0000
  C   C906      1.0  0.86180  0.02558  0.66644  1.0000
  P   P34       1.0  0.81108  0.04868  0.70437  1.0000
  C   C907      1.0  0.77435  0.03294  0.72201  1.0000
  C   C908      1.0  0.84049  0.05464  0.73652  1.0000
  C   C909      1.0  0.84194  0.08110  0.75246  1.0000
  C   C910      1.0  0.86487  0.08557  0.77709  1.0000
  C   C911      1.0  0.88661  0.06374  0.78602  1.0000
  C   C912      1.0  0.88540  0.03741  0.77034  1.0000
  C   C913      1.0  0.86231  0.03272  0.74592  1.0000
  C   C914      1.0  0.74271  0.04163  0.71204  1.0000
  C   C915      1.0  0.57319  0.07818  0.97079  1.0000
  H   H727      1.0  0.77723  0.15215  0.63923  1.0000
  H   H728      1.0  0.53712  0.06482  0.52590  1.0000
  C   C916      1.0  0.86315  0.10132  0.87064  1.0000
  C   C917      1.0  0.80110  0.08187  0.68393  1.0000
  C   C918      1.0  0.81264  0.08710  0.65249  1.0000
  C   C919      1.0  0.80434  0.11248  0.63663  1.0000
  C   C920      1.0  0.78422  0.13276  0.65182  1.0000
  C   C921      1.0  0.77264  0.12783  0.68305  1.0000
  C   C922      1.0  0.78101  0.10253  0.69907  1.0000
  H   H729      1.0  0.63899  0.05835  0.92463  1.0000
  C   C923      1.0  0.82827  0.00533  0.82529  1.0000
  H   H730      1.0  0.81290  0.11608  0.61219  1.0000
  H   H731      1.0  0.00495  0.00206  0.77366  1.0000
  H   H732      1.0  0.87746  0.04226  0.67607  1.0000
  H   H733      1.0  0.82582  0.09853  0.74582  1.0000
  H   H734      1.0  0.86613  0.10619  0.78885  1.0000
  H   H735      1.0  0.90464  0.06722  0.80490  1.0000
  H   H736      1.0  0.90258  0.02070  0.77712  1.0000
  H   H737      1.0  0.65789  0.01232  0.57039  1.0000
  C   C924      1.0  0.70082  0.99511  0.54559  1.0000
  C   C925      1.0  0.60505  0.07834  0.95756  1.0000
  C   C926      1.0  0.54454  0.26604  0.75766  1.0000
  H   H738      1.0  0.52108  0.21125  0.54181  1.0000
  C   C927      1.0  0.67865  0.01689  0.55459  1.0000
  C   C928      1.0  0.89188  0.00065  0.85114  1.0000
  C   C929      1.0  0.53242  0.24742  0.73420  1.0000
  C   C930      1.0  0.74872  0.99719  0.75666  1.0000
  C   C931      1.0  0.56800  0.99395  0.87677  1.0000
  C   C932      1.0  0.71357  0.14074  0.97086  1.0000
  H   H739      1.0  0.71388  0.00183  0.60880  1.0000
  C   C933      1.0  0.52879  0.19846  0.52137  1.0000
  H   H740      1.0  0.52742  0.22686  0.82460  1.0000
  H   H741      1.0  0.55305  0.27283  0.80816  1.0000
  H   H742      1.0  0.61709  0.02936  0.49672  1.0000
  H   H743      1.0  0.52562  0.05761  0.97129  1.0000
  H   H744      1.0  0.91655  0.99933  0.86124  1.0000
  H   H745      1.0  0.51703  0.13253  0.55996  1.0000
  C   C934      1.0  0.50966  0.10360  0.75141  1.0000
  C   C935      1.0  0.51672  0.21373  0.77592  1.0000
  C   C936      1.0  0.53535  0.99520  0.58113  1.0000
  H   H746      1.0  0.98609  0.99965  0.71693  1.0000
  C   C937      1.0  0.56111  0.99300  0.60348  1.0000
  C   C938      1.0  0.50957  0.19757  0.49324  1.0000
  C   C939      1.0  0.56914  0.16665  0.49708  1.0000
  H   H747      1.0  0.59196  0.15451  0.49880  1.0000
  S   S123      1.0  0.86544  0.48329  0.02117  1.0000
  C   C940      1.0  0.98672  0.46129  0.11872  1.0000
  H   H748      1.0  0.74450  0.37460  0.00771  1.0000
  S   S124      1.0  0.86795  0.42947  0.44408  1.0000
  Fe  Fe61      1.0  0.92057  0.47574  0.01905  1.0000
  S   S125      1.0  0.94253  0.46399  0.06843  1.0000
  Fe  Fe62      1.0  0.69719  0.40420  0.34003  1.0000
  S   S126      1.0  0.70403  0.38949  0.28866  1.0000
  S   S127      1.0  0.72980  0.43400  0.36996  1.0000
  Fe  Fe63      1.0  0.62441  0.38418  0.34153  1.0000
  S   S128      1.0  0.62570  0.36841  0.29043  1.0000
  S   S129      1.0  0.58263  0.38012  0.37810  1.0000
  C   C941      1.0  0.58179  0.45567  0.09304  1.0000
  Fe  Fe64      1.0  0.65387  0.40910  0.27989  1.0000
  S   S130      1.0  0.64416  0.43537  0.23463  1.0000
  S   S131      1.0  0.67258  0.36330  0.35520  1.0000
  S   S132      1.0  0.64846  0.42604  0.33005  1.0000
  C   C942      1.0  0.54038  0.38509  0.36870  1.0000
  C   C943      1.0  0.52983  0.39261  0.33777  1.0000
  H   H749      1.0  0.77315  0.45323  0.47844  1.0000
  H   H750      1.0  0.54785  0.39557  0.31870  1.0000
  H   H751      1.0  0.52477  0.37551  0.41717  1.0000
  C   C944      1.0  0.64703  0.48773  0.26579  1.0000
  C   C945      1.0  0.64458  0.47321  0.23648  1.0000
  C   C946      1.0  0.64294  0.48910  0.20780  1.0000
  H   H752      1.0  0.64842  0.47586  0.28804  1.0000
  H   H753      1.0  0.64168  0.47812  0.18497  1.0000
  H   H754      1.0  0.86563  0.40314  0.20322  1.0000
  C   C947      1.0  0.72890  0.52182  0.39299  1.0000
  H   H755      1.0  0.79392  0.46689  0.02852  1.0000
  C   C948      1.0  0.60987  0.52516  0.09295  1.0000
  H   H756      1.0  0.90106  0.41918  0.15775  1.0000
  C   C949      1.0  0.83028  0.43103  0.42224  1.0000
  C   C950      1.0  0.81046  0.45550  0.42274  1.0000
  C   C951      1.0  0.77978  0.45563  0.40686  1.0000
  C   C952      1.0  0.76869  0.43166  0.38968  1.0000
  C   C953      1.0  0.78876  0.40728  0.38860  1.0000
  C   C954      1.0  0.81944  0.40702  0.40483  1.0000
  H   H757      1.0  0.81845  0.47417  0.43591  1.0000
  H   H758      1.0  0.76441  0.47441  0.40810  1.0000
  H   H759      1.0  0.78067  0.38868  0.37538  1.0000
  H   H760      1.0  0.83478  0.38806  0.40403  1.0000
  C   C955      1.0  0.98591  0.49433  0.37133  1.0000
  C   C956      1.0  0.99623  0.52029  0.38456  1.0000
  Fe  Fe65      1.0  0.94075  0.51560  0.45634  1.0000
  S   S133      1.0  0.97895  0.53441  0.42092  1.0000
  S   S134      1.0  0.88652  0.51206  0.44492  1.0000
  C   C957      1.0  0.70154  0.41716  0.07649  1.0000
  Fe  Fe66      1.0  0.70621  0.60267  0.13957  1.0000
  S   S135      1.0  0.70726  0.61784  0.19111  1.0000
  S   S136      1.0  0.74830  0.57301  0.12333  1.0000
  Fe  Fe67      1.0  0.63423  0.62308  0.13159  1.0000
  S   S137      1.0  0.62960  0.63870  0.18265  1.0000
  S   S138      1.0  0.59507  0.62816  0.09291  1.0000
  C   C958      1.0  0.63131  0.41149  0.47825  1.0000
  Fe  Fe68      1.0  0.65690  0.59796  0.19518  1.0000
  S   S139      1.0  0.64606  0.57149  0.23977  1.0000
  H   H761      1.0  0.98369  0.52626  0.10522  1.0000
  S   S140      1.0  0.65690  0.58080  0.14485  1.0000
  C   C959      1.0  0.64615  0.53367  0.23776  1.0000
  C   C960      1.0  0.64746  0.51781  0.26643  1.0000
  C   C961      1.0  0.64419  0.51916  0.20837  1.0000
  H   H762      1.0  0.64901  0.52881  0.28927  1.0000
  H   H763      1.0  0.64322  0.53104  0.18612  1.0000
  C   C962      1.0  0.55335  0.61998  0.10149  1.0000
  C   C963      1.0  0.52930  0.62427  0.07764  1.0000
  C   C964      1.0  0.54377  0.60911  0.13142  1.0000
  H   H764      1.0  0.53656  0.63291  0.05450  1.0000
  H   H765      1.0  0.88745  0.55547  0.07661  1.0000
  H   H766      1.0  0.73059  0.36932  0.46279  1.0000
  C   C965      1.0  0.89783  0.46375  0.17030  1.0000
  H   H767      1.0  0.84277  0.49897  0.36460  1.0000
  H   H768      1.0  0.73318  0.53264  0.44328  1.0000
  H   H769      1.0  0.76571  0.43237  0.24569  1.0000
  C   C966      1.0  0.81689  0.56473  0.03441  1.0000
  C   C967      1.0  0.79316  0.58683  0.03574  1.0000
  C   C968      1.0  0.77182  0.58986  0.06264  1.0000
  C   C969      1.0  0.77437  0.57102  0.08873  1.0000
  C   C970      1.0  0.79839  0.54927  0.08755  1.0000
  C   C971      1.0  0.81925  0.54595  0.06053  1.0000
  H   H770      1.0  0.79121  0.60163  0.01583  1.0000
  H   H771      1.0  0.75362  0.60684  0.06329  1.0000
  H   H772      1.0  0.80092  0.53496  0.10781  1.0000
  H   H773      1.0  0.83740  0.52900  0.06005  1.0000
  P   P35       1.0  0.89710  0.52101  0.18949  1.0000
  C   C972      1.0  0.93020  0.52791  0.21769  1.0000
  C   C973      1.0  0.91230  0.52916  0.14943  1.0000
  C   C974      1.0  0.94573  0.52408  0.14174  1.0000
  C   C975      1.0  0.98451  0.53745  0.25836  1.0000
  C   C976      1.0  0.93689  0.54161  0.08757  1.0000
  C   C977      1.0  0.90364  0.54676  0.09493  1.0000
  C   C978      1.0  0.70039  0.37924  0.03673  1.0000
  H   H774      1.0  0.79127  0.54935  0.43827  1.0000
  H   H775      1.0  0.62346  0.51140  0.10926  1.0000
  C   C979      1.0  0.57401  0.46920  0.12233  1.0000
  C   C980      1.0  0.93951  0.50729  0.24061  1.0000
  H   H776      1.0  0.52494  0.51072  0.23760  1.0000
  C   C981      1.0  0.69475  0.41937  0.45251  1.0000
  H   H777      1.0  0.94622  0.54581  0.06352  1.0000
  C   C982      1.0  0.59926  0.49153  0.99758  1.0000
  C   C983      1.0  0.66719  0.41904  0.43225  1.0000
  Fe  Fe69      1.0  0.88972  0.46894  0.46809  1.0000
  H   H778      1.0  0.52167  0.48917  0.18335  1.0000
  H   H779      1.0  0.92663  0.48716  0.24272  1.0000
  C   C984      1.0  0.73975  0.58551  0.27070  1.0000
  C   C985      1.0  0.75577  0.61165  0.27493  1.0000
  C   C986      1.0  0.78479  0.61297  0.29311  1.0000
  C   C987      1.0  0.79800  0.58810  0.30678  1.0000
  C   C988      1.0  0.78271  0.56160  0.30161  1.0000
  C   C989      1.0  0.75295  0.56063  0.28421  1.0000
  C   C990      1.0  0.84263  0.52866  0.32440  1.0000
  C   C991      1.0  0.86267  0.54340  0.30226  1.0000
  C   C992      1.0  0.89719  0.54229  0.30483  1.0000
  C   C993      1.0  0.91192  0.52602  0.32913  1.0000
  C   C994      1.0  0.89216  0.51047  0.35055  1.0000
  C   C995      1.0  0.85765  0.51150  0.34801  1.0000
  C   C996      1.0  0.78170  0.47636  0.24497  1.0000
  C   C997      1.0  0.78959  0.50028  0.26355  1.0000
  H   H780      1.0  0.71672  0.58457  0.25736  1.0000
  H   H781      1.0  0.74532  0.63094  0.26456  1.0000
  H   H782      1.0  0.79669  0.63339  0.29708  1.0000
  H   H783      1.0  0.81982  0.58963  0.32175  1.0000
  H   H784      1.0  0.85167  0.55575  0.28308  1.0000
  H   H785      1.0  0.91263  0.55405  0.28806  1.0000
  H   H786      1.0  0.93867  0.52537  0.33135  1.0000
  H   H787      1.0  0.90362  0.49769  0.36926  1.0000
  S   S141      1.0  0.84316  0.56136  0.99997  1.0000
  H   H788      1.0  0.78290  0.47757  0.21894  1.0000
  H   H789      1.0  0.79692  0.51986  0.25162  1.0000
  C   C998      1.0  0.74893  0.52658  0.01298  1.0000
  Fe  Fe70      1.0  0.67534  0.34977  0.30291  1.0000
  C   C999      1.0  0.85831  0.44565  0.22192  1.0000
  C   C1000     1.0  0.89130  0.54058  0.12571  1.0000
  H   H790      1.0  0.66001  0.38911  0.06882  1.0000
  H   H791      1.0  0.57221  0.37677  0.23786  1.0000
  H   H792      1.0  0.82797  0.51520  0.17022  1.0000
  C   C1001     1.0  0.72594  0.52493  0.03816  1.0000
  H   H793      1.0  0.83499  0.35300  0.45789  1.0000
  C   C1002     1.0  0.60178  0.43070  0.15097  1.0000
  C   C1003     1.0  0.77490  0.48303  0.03164  1.0000
  H   H794      1.0  0.57467  0.46532  0.07038  1.0000
  C   C1004     1.0  0.00159  0.48338  0.34345  1.0000
  P   P36       1.0  0.55316  0.50348  0.12194  1.0000
  C   C1005     1.0  0.69086  0.41500  0.48577  1.0000
  H   H795      1.0  0.97409  0.49585  0.27789  1.0000
  C   C1006     1.0  0.83006  0.53428  0.18484  1.0000
  H   H796      1.0  0.96609  0.48251  0.38275  1.0000
  C   C1007     1.0  0.53525  0.63032  0.22366  1.0000
  H   H797      1.0  0.81953  0.54836  0.38569  1.0000
  H   H798      1.0  0.84349  0.43857  0.24223  1.0000
  C   C1008     1.0  0.63554  0.41486  0.44504  1.0000
  C   C1009     1.0  0.52133  0.32695  0.27186  1.0000
  H   H799      1.0  0.65424  0.54442  0.07397  1.0000
  C   C1010     1.0  0.57584  0.56312  0.05301  1.0000
  C   C1011     1.0  0.73242  0.38644  0.02692  1.0000
  C   C1012     1.0  0.83447  0.58440  0.22111  1.0000
  H   H800      1.0  0.77380  0.41440  0.03351  1.0000
  C   C1013     1.0  0.78787  0.49890  0.29731  1.0000
  C   C1014     1.0  0.55405  0.52031  0.16107  1.0000
  C   C1015     1.0  0.57213  0.54549  0.16611  1.0000
  C   C1016     1.0  0.57313  0.55794  0.19663  1.0000
  C   C1017     1.0  0.55653  0.54524  0.22247  1.0000
  H   H801      1.0  0.70771  0.54171  0.04121  1.0000
  C   C1018     1.0  0.51908  0.38036  0.24111  1.0000
  C   C1019     1.0  0.98281  0.46701  0.08563  1.0000
  H   H802      1.0  0.56204  0.60618  0.15006  1.0000
  C   C1020     1.0  0.54944  0.36662  0.24573  1.0000
  C   C1021     1.0  0.81421  0.36432  0.46851  1.0000
  C   C1022     1.0  0.79444  0.54038  0.38741  1.0000
  H   H803      1.0  0.88593  0.57441  0.22628  1.0000
  H   H804      1.0  0.86545  0.54479  0.13059  1.0000
  C   C1023     1.0  0.68488  0.39470  0.06136  1.0000
  H   H805      1.0  0.61365  0.49904  0.01784  1.0000
  H   H806      1.0  0.00828  0.47933  0.04219  1.0000
  H   H807      1.0  0.60467  0.41927  0.07013  1.0000
  H   H808      1.0  0.58766  0.57706  0.20043  1.0000
  H   H809      1.0  0.55868  0.55433  0.24636  1.0000
  C   C1024     1.0  0.60892  0.41717  0.12178  1.0000
  C   C1025     1.0  0.74555  0.53205  0.42008  1.0000
  H   H810      1.0  0.51835  0.40122  0.22983  1.0000
  H   H811      1.0  0.76470  0.42932  0.30540  1.0000
  C   C1026     1.0  0.96654  0.51210  0.26077  1.0000
  C   C1027     1.0  0.58442  0.45659  0.15131  1.0000
  P   P37       1.0  0.79806  0.52978  0.32118  1.0000
  S   S142      1.0  0.94468  0.47138  0.47736  1.0000
  H   H812      1.0  0.96239  0.51472  0.15923  1.0000
  H   H813      1.0  0.68895  0.42918  0.09517  1.0000
  H   H814      1.0  0.77776  0.34281  0.43971  1.0000
  C   C1028     1.0  0.61043  0.56280  0.05299  1.0000
  S   S143      1.0  0.68358  0.64400  0.12247  1.0000
  H   H815      1.0  0.71092  0.47970  0.21304  1.0000
  C   C1029     1.0  0.77831  0.54132  0.41728  1.0000
  H   H816      1.0  0.61007  0.42133  0.17348  1.0000
  H   H817      1.0  0.98974  0.57759  0.23358  1.0000
  H   H818      1.0  0.78250  0.58983  0.21076  1.0000
  C   C1030     1.0  0.77232  0.45085  0.25998  1.0000
  C   C1031     1.0  0.72946  0.49655  0.16816  1.0000
  C   C1032     1.0  0.71922  0.47470  0.18881  1.0000
  C   C1033     1.0  0.71987  0.44635  0.17837  1.0000
  C   C1034     1.0  0.73075  0.43981  0.14719  1.0000
  C   C1035     1.0  0.74032  0.46172  0.12594  1.0000
  C   C1036     1.0  0.74076  0.49006  0.13713  1.0000
  P   P38       1.0  0.75611  0.45288  0.08636  1.0000
  C   C1037     1.0  0.79918  0.44390  0.09197  1.0000
  C   C1038     1.0  0.73416  0.42389  0.06741  1.0000
  C   C1039     1.0  0.74912  0.40887  0.04190  1.0000
  C   C1040     1.0  0.53778  0.52059  0.21753  1.0000
  C   C1041     1.0  0.89078  0.43471  0.17438  1.0000
  H   H819      1.0  0.58569  0.55562  0.14673  1.0000
  C   C1042     1.0  0.87091  0.42567  0.20005  1.0000
  C   C1043     1.0  0.82279  0.46573  0.09420  1.0000
  C   C1044     1.0  0.85642  0.45907  0.09669  1.0000
  C   C1045     1.0  0.86669  0.43057  0.09697  1.0000
  C   C1046     1.0  0.84324  0.40868  0.09631  1.0000
  C   C1047     1.0  0.80951  0.41529  0.09418  1.0000
  C   C1048     1.0  0.75274  0.48177  0.05773  1.0000
  C   C1049     1.0  0.72744  0.50232  0.06019  1.0000
  C   C1050     1.0  0.62745  0.54379  0.07291  1.0000
  H   H820      1.0  0.72850  0.51858  0.17619  1.0000
  C   C1051     1.0  0.77968  0.47297  0.31218  1.0000
  H   H821      1.0  0.73180  0.41765  0.13976  1.0000
  H   H822      1.0  0.74977  0.50729  0.12207  1.0000
  C   C1052     1.0  0.55056  0.33989  0.26080  1.0000
  H   H823      1.0  0.71909  0.42281  0.44209  1.0000
  H   H824      1.0  0.70363  0.51428  0.39515  1.0000
  H   H825      1.0  0.81532  0.48787  0.09295  1.0000
  H   H826      1.0  0.87475  0.47599  0.09708  1.0000
  H   H827      1.0  0.89291  0.42552  0.09745  1.0000
  H   H828      1.0  0.85130  0.38659  0.09678  1.0000
  H   H829      1.0  0.79174  0.39804  0.09361  1.0000
  H   H830      1.0  0.70933  0.50134  0.07944  1.0000
  C   C1053     1.0  0.97541  0.55813  0.23575  1.0000
  H   H831      1.0  0.55279  0.50275  0.01928  1.0000
  H   H832      1.0  0.53140  0.54640  0.07408  1.0000
  C   C1054     1.0  0.57506  0.52545  0.09322  1.0000
  H   H833      1.0  0.73951  0.54077  0.28143  1.0000
  H   H834      1.0  0.55922  0.33015  0.33432  1.0000
  H   H835      1.0  0.96557  0.45473  0.13284  1.0000
  C   C1055     1.0  0.77165  0.44912  0.29358  1.0000
  H   H836      1.0  0.83609  0.60398  0.23491  1.0000
  H   H837      1.0  0.77933  0.47115  0.33815  1.0000
  C   C1056     1.0  0.86074  0.54242  0.19773  1.0000
  C   C1057     1.0  0.86554  0.47466  0.21807  1.0000
  H   H838      1.0  0.58001  0.46676  0.17431  1.0000
  H   H839      1.0  0.62401  0.57827  0.03870  1.0000
  H   H840      1.0  0.68760  0.36169  0.02518  1.0000
  H   H841      1.0  0.71175  0.42951  0.19456  1.0000
  C   C1058     1.0  0.75534  0.37414  0.47102  1.0000
  C   C1059     1.0  0.86271  0.56755  0.21607  1.0000
  C   C1060     1.0  0.77815  0.52947  0.36023  1.0000
  C   C1061     1.0  0.74510  0.52054  0.36316  1.0000
  C   C1062     1.0  0.88527  0.48392  0.19215  1.0000
  H   H842      1.0  0.91326  0.47026  0.15023  1.0000
  Fe  Fe71      1.0  0.68024  0.65750  0.17478  1.0000
  H   H843      1.0  0.73183  0.51244  0.34247  1.0000
  C   C1063     1.0  0.80204  0.55134  0.18967  1.0000
  H   H844      1.0  0.85649  0.48979  0.23579  1.0000
  C   C1064     1.0  0.77314  0.50544  0.00952  1.0000
  H   H845      1.0  0.62236  0.39709  0.12178  1.0000
  H   H846      1.0  0.94227  0.56926  0.19740  1.0000
  C   C1065     1.0  0.80421  0.57640  0.20771  1.0000
  C   C1066     1.0  0.94846  0.55336  0.21539  1.0000
  C   C1067     1.0  0.59896  0.42966  0.09279  1.0000
  H   H847      1.0  0.77874  0.54559  0.17869  1.0000
  H   H848      1.0  0.59283  0.65383  0.43967  1.0000
  H   H849      1.0  0.61433  0.41430  0.42909  1.0000
  C   C1068     1.0  0.55812  0.54475  0.07329  1.0000
  H   H850      1.0  0.67038  0.42191  0.40651  1.0000
  S   S144      1.0  0.93046  0.51571  0.99000  1.0000
  C   C1069     1.0  0.78200  0.35873  0.45816  1.0000
  C   C1070     1.0  0.95797  0.53058  0.11107  1.0000
  H   H851      1.0  0.99591  0.45943  0.43243  1.0000
  H   H852      1.0  0.56285  0.57885  0.03869  1.0000
  H   H853      1.0  0.53255  0.44540  0.02008  1.0000
  H   H854      1.0  0.51375  0.40051  0.04502  1.0000
  C   C1071     1.0  0.53618  0.50835  0.18684  1.0000
  H   H855      1.0  0.74854  0.54459  0.99662  1.0000
  H   H856      1.0  0.71779  0.44560  0.99144  1.0000
  H   H857      1.0  0.79132  0.50677  0.99031  1.0000
  C   C1072     1.0  0.56474  0.49396  0.99809  1.0000
  C   C1073     1.0  0.53564  0.65771  0.21017  1.0000
  H   H858      1.0  0.53715  0.65536  0.46453  1.0000
  C   C1074     1.0  0.51676  0.38127  0.39321  1.0000
  H   H859      1.0  0.99343  0.46321  0.33360  1.0000
  H   H860      1.0  0.55808  0.62081  0.23227  1.0000
  H   H861      1.0  0.51502  0.45765  0.08928  1.0000
  C   C1075     1.0  0.51042  0.60224  0.13732  1.0000
  H   H862      1.0  0.57427  0.32937  0.26387  1.0000
  Fe  Fe72      1.0  0.87461  0.52141  0.99044  1.0000
  H   H863      1.0  0.00588  0.54072  0.27368  1.0000
  C   C1076     1.0  0.51012  0.49973  0.11079  1.0000
  H   H864      1.0  0.78612  0.50436  0.48515  1.0000
  S   S145      1.0  0.87681  0.48481  0.51769  1.0000
  C   C1077     1.0  0.80423  0.63921  0.67059  1.0000
  C   C1078     1.0  0.52533  0.45323  0.49791  1.0000
  S   S146      1.0  0.81463  0.43069  0.97082  1.0000
  Fe  Fe73      1.0  0.93183  0.49158  0.52522  1.0000
  S   S147      1.0  0.95291  0.47631  0.57400  1.0000
  Fe  Fe74      1.0  0.69151  0.38242  0.82695  1.0000
  S   S148      1.0  0.68309  0.36727  0.77585  1.0000
  S   S149      1.0  0.74448  0.39631  0.83868  1.0000
  Fe  Fe75      1.0  0.61678  0.38418  0.84080  1.0000
  S   S150      1.0  0.60360  0.37032  0.79082  1.0000
  S   S151      1.0  0.57926  0.39443  0.88026  1.0000
  C   C1079     1.0  0.52050  0.61661  0.58726  1.0000
  Fe  Fe76      1.0  0.64322  0.40100  0.77483  1.0000
  S   S152      1.0  0.63805  0.43053  0.73155  1.0000
  S   S153      1.0  0.65576  0.35012  0.84765  1.0000
  S   S154      1.0  0.65341  0.41735  0.82440  1.0000
  C   C1080     1.0  0.53649  0.39162  0.87148  1.0000
  C   C1081     1.0  0.52314  0.51087  0.59079  1.0000
  P   P39       1.0  0.69940  0.50767  0.89637  1.0000
  C   C1082     1.0  0.67470  0.42683  0.92449  1.0000
  H   H865      1.0  0.75035  0.42519  0.57754  1.0000
  C   C1083     1.0  0.64011  0.48125  0.76633  1.0000
  C   C1084     1.0  0.63978  0.46811  0.73607  1.0000
  C   C1085     1.0  0.64082  0.48525  0.70835  1.0000
  H   H866      1.0  0.63902  0.46838  0.78788  1.0000
  H   H867      1.0  0.64029  0.47530  0.68493  1.0000
  H   H868      1.0  0.56398  0.54119  0.90403  1.0000
  C   C1086     1.0  0.51216  0.48181  0.71560  1.0000
  C   C1087     1.0  0.82713  0.63933  0.69571  1.0000
  H   H869      1.0  0.82820  0.62341  0.85895  1.0000
  H   H870      1.0  0.75513  0.65098  0.65568  1.0000
  C   C1088     1.0  0.79522  0.42195  0.93376  1.0000
  C   C1089     1.0  0.80823  0.43052  0.90399  1.0000
  C   C1090     1.0  0.79238  0.42246  0.87518  1.0000
  C   C1091     1.0  0.76302  0.40627  0.87576  1.0000
  C   C1092     1.0  0.74983  0.39803  0.90551  1.0000
  C   C1093     1.0  0.76603  0.40564  0.93427  1.0000
  H   H871      1.0  0.83085  0.44284  0.90316  1.0000
  H   H872      1.0  0.80302  0.42873  0.85230  1.0000
  H   H873      1.0  0.72760  0.38521  0.90630  1.0000
  H   H874      1.0  0.75599  0.39869  0.95708  1.0000
  H   H875      1.0  0.70153  0.45905  0.55565  1.0000
  H   H876      1.0  0.78337  0.63215  0.82018  1.0000
  Fe  Fe77      1.0  0.92259  0.48728  0.94635  1.0000
  S   S155      1.0  0.94953  0.48016  0.89800  1.0000
  S   S156      1.0  0.86783  0.49722  0.94403  1.0000
  S   S157      1.0  0.93103  0.53636  0.50501  1.0000
  Fe  Fe78      1.0  0.70259  0.60295  0.64493  1.0000
  S   S158      1.0  0.70012  0.61865  0.69621  1.0000
  S   S159      1.0  0.75255  0.58286  0.63174  1.0000
  Fe  Fe79      1.0  0.62823  0.61462  0.63607  1.0000
  S   S160      1.0  0.62096  0.63044  0.68649  1.0000
  S   S161      1.0  0.58686  0.61409  0.59934  1.0000
  H   H877      1.0  0.00385  0.55547  0.80605  1.0000
  Fe  Fe80      1.0  0.65342  0.59304  0.70000  1.0000
  S   S162      1.0  0.64572  0.56594  0.74484  1.0000
  S   S163      1.0  0.67398  0.64089  0.62666  1.0000
  S   S164      1.0  0.65725  0.57543  0.64996  1.0000
  C   C1094     1.0  0.64310  0.52833  0.74094  1.0000
  C   C1095     1.0  0.64143  0.51126  0.76872  1.0000
  C   C1096     1.0  0.64272  0.51516  0.71074  1.0000
  H   H878      1.0  0.64137  0.52124  0.79218  1.0000
  H   H879      1.0  0.64373  0.52792  0.68917  1.0000
  C   C1097     1.0  0.54475  0.61418  0.61113  1.0000
  Fe  Fe81      1.0  0.64439  0.33754  0.79613  1.0000
  C   C1098     1.0  0.53490  0.61091  0.64328  1.0000
  H   H880      1.0  0.52793  0.61934  0.56244  1.0000
  H   H881      1.0  0.55335  0.60875  0.66190  1.0000
  C   C1099     1.0  0.70652  0.44746  0.96789  1.0000
  C   C1100     1.0  0.73478  0.40639  0.57773  1.0000
  H   H882      1.0  0.56580  0.46169  0.63523  1.0000
  H   H883      1.0  0.97741  0.45572  0.63480  1.0000
  H   H884      1.0  0.54242  0.39338  0.82001  1.0000
  C   C1101     1.0  0.81197  0.56703  0.53819  1.0000
  C   C1102     1.0  0.82275  0.55621  0.56773  1.0000
  C   C1103     1.0  0.80457  0.56188  0.59608  1.0000
  C   C1104     1.0  0.77501  0.57784  0.59525  1.0000
  C   C1105     1.0  0.76440  0.58900  0.56578  1.0000
  C   C1106     1.0  0.78306  0.58393  0.53750  1.0000
  H   H885      1.0  0.84514  0.54350  0.56872  1.0000
  H   H886      1.0  0.81335  0.55355  0.61876  1.0000
  H   H887      1.0  0.74193  0.60158  0.56478  1.0000
  H   H888      1.0  0.77465  0.59260  0.51480  1.0000
  H   H889      1.0  0.62998  0.47694  0.60088  1.0000
  C   C1107     1.0  0.56214  0.47163  0.94552  1.0000
  H   H890      1.0  0.53050  0.65326  0.80060  1.0000
  H   H891      1.0  0.82935  0.49288  0.83535  1.0000
  C   C1108     1.0  0.65716  0.52036  0.89762  1.0000
  C   C1109     1.0  0.59661  0.46895  0.94525  1.0000
  C   C1110     1.0  0.81861  0.65124  0.72555  1.0000
  H   H892      1.0  0.91922  0.42501  0.78639  1.0000
  H   H893      1.0  0.75695  0.45387  0.81051  1.0000
  C   C1111     1.0  0.71259  0.50136  0.85544  1.0000
  C   C1112     1.0  0.77293  0.65128  0.67517  1.0000
  H   H894      1.0  0.58493  0.51567  0.85565  1.0000
  H   H895      1.0  0.73750  0.46144  0.86591  1.0000
  C   C1113     1.0  0.69735  0.47467  0.91882  1.0000
  C   C1114     1.0  0.68058  0.62635  0.79967  1.0000
  C   C1115     1.0  0.56148  0.53394  0.62747  1.0000
  C   C1116     1.0  0.57210  0.50726  0.63853  1.0000
  H   H896      1.0  0.66108  0.53819  0.94554  1.0000
  C   C1117     1.0  0.92359  0.44311  0.70127  1.0000
  C   C1118     1.0  0.60176  0.52124  0.87492  1.0000
  C   C1119     1.0  0.73741  0.45204  0.51748  1.0000
  H   H897      1.0  0.76846  0.50049  0.91552  1.0000
  C   C1120     1.0  0.55793  0.48235  0.62619  1.0000
  H   H898      1.0  0.54848  0.46310  0.92537  1.0000
  H   H899      1.0  0.79808  0.41683  0.52271  1.0000
  H   H900      1.0  0.54474  0.54833  0.53658  1.0000
  H   H901      1.0  0.69232  0.54103  0.83708  1.0000
  C   C1121     1.0  0.98785  0.48672  0.59768  1.0000
  H   H902      1.0  0.57221  0.55336  0.63715  1.0000
  H   H903      1.0  0.59105  0.50595  0.65690  1.0000
  H   H904      1.0  0.69737  0.56952  0.91101  1.0000
  H   H905      1.0  0.73865  0.60210  0.93457  1.0000
  H   H906      1.0  0.91036  0.41704  0.66051  1.0000
  H   H907      1.0  0.65277  0.43222  0.62450  1.0000
  C   C1122     1.0  0.52159  0.55808  0.52937  1.0000
  H   H908      1.0  0.83935  0.44753  0.56172  1.0000
  C   C1123     1.0  0.74488  0.57987  0.93048  1.0000
  C   C1124     1.0  0.73075  0.39114  0.60648  1.0000
  H   H909      1.0  0.66847  0.45298  0.88253  1.0000
  H   H910      1.0  0.74390  0.48936  0.76774  1.0000
  C   C1125     1.0  0.80808  0.48024  0.58217  1.0000
  C   C1126     1.0  0.82332  0.45342  0.58165  1.0000
  C   C1127     1.0  0.81769  0.43409  0.60672  1.0000
  C   C1128     1.0  0.79699  0.44164  0.63246  1.0000
  C   C1129     1.0  0.78238  0.46892  0.63365  1.0000
  C   C1130     1.0  0.78752  0.48792  0.60796  1.0000
  P   P40       1.0  0.75395  0.47857  0.66555  1.0000
  C   C1131     1.0  0.76313  0.51310  0.68226  1.0000
  C   C1132     1.0  0.71358  0.47840  0.64708  1.0000
  C   C1133     1.0  0.70067  0.50355  0.63349  1.0000
  C   C1134     1.0  0.67051  0.50298  0.61705  1.0000
  C   C1135     1.0  0.77654  0.56991  0.93811  1.0000
  C   C1136     1.0  0.73151  0.47716  0.84771  1.0000
  C   C1137     1.0  0.69624  0.45267  0.64338  1.0000
  C   C1138     1.0  0.73899  0.52731  0.70072  1.0000
  C   C1139     1.0  0.74596  0.55381  0.71454  1.0000
  C   C1140     1.0  0.77716  0.56617  0.71029  1.0000
  C   C1141     1.0  0.80164  0.55172  0.69277  1.0000
  C   C1142     1.0  0.79476  0.52514  0.67896  1.0000
  C   C1143     1.0  0.75733  0.45505  0.69978  1.0000
  C   C1144     1.0  0.78874  0.44744  0.71149  1.0000
  C   C1145     1.0  0.79161  0.42956  0.73834  1.0000
  C   C1146     1.0  0.76319  0.41982  0.75413  1.0000
  C   C1147     1.0  0.73196  0.42869  0.74373  1.0000
  C   C1148     1.0  0.72900  0.44632  0.71675  1.0000
  H   H911      1.0  0.81215  0.49509  0.56247  1.0000
  H   H912      1.0  0.82924  0.41317  0.60602  1.0000
  H   H913      1.0  0.79226  0.42599  0.65106  1.0000
  H   H914      1.0  0.77542  0.50862  0.60776  1.0000
  H   H915      1.0  0.71402  0.52358  0.63521  1.0000
  C   C1149     1.0  0.65331  0.47730  0.61364  1.0000
  H   H916      1.0  0.75353  0.61715  0.76009  1.0000
  C   C1150     1.0  0.63515  0.51348  0.87270  1.0000
  H   H917      1.0  0.70577  0.43301  0.65350  1.0000
  H   H918      1.0  0.71464  0.51807  0.70412  1.0000
  H   H919      1.0  0.72679  0.56502  0.72779  1.0000
  H   H920      1.0  0.78218  0.58722  0.71982  1.0000
  H   H921      1.0  0.82561  0.56152  0.68905  1.0000
  H   H922      1.0  0.81397  0.51433  0.66537  1.0000
  H   H923      1.0  0.81101  0.45524  0.69982  1.0000
  H   H924      1.0  0.81581  0.42327  0.74707  1.0000
  H   H925      1.0  0.76534  0.40577  0.77479  1.0000
  H   H926      1.0  0.70995  0.42216  0.75679  1.0000
  H   H927      1.0  0.70457  0.45333  0.70960  1.0000
  C   C1151     1.0  0.52341  0.47338  0.52279  1.0000
  H   H928      1.0  0.87204  0.49219  0.74053  1.0000
  H   H929      1.0  0.90066  0.45837  0.62421  1.0000
  H   H930      1.0  0.70354  0.59044  0.77624  1.0000
  H   H931      1.0  0.68550  0.40516  0.96896  1.0000
  H   H932      1.0  0.96007  0.51926  0.80368  1.0000
  C   C1152     1.0  0.90753  0.46184  0.64915  1.0000
  C   C1153     1.0  0.71075  0.47247  0.94989  1.0000
  H   H933      1.0  0.70844  0.35457  0.62947  1.0000
  S   S165      1.0  0.91500  0.44698  0.97572  1.0000
  C   C1154     1.0  0.76773  0.49430  0.50056  1.0000
  H   H934      1.0  0.71150  0.53284  0.78125  1.0000
  C   C1155     1.0  0.76146  0.52259  0.91975  1.0000
  C   C1156     1.0  0.75103  0.51046  0.52376  1.0000
  H   H935      1.0  0.79474  0.58418  0.94856  1.0000
  C   C1157     1.0  0.94589  0.42386  0.78382  1.0000
  H   H936      1.0  0.66093  0.40907  0.91443  1.0000
  H   H937      1.0  0.74287  0.39826  0.62822  1.0000
  H   H938      1.0  0.92827  0.42481  0.71654  1.0000
  H   H939      1.0  0.54583  0.47950  0.53516  1.0000
  C   C1158     1.0  0.61517  0.47892  0.97121  1.0000
  C   C1159     1.0  0.76063  0.46526  0.49712  1.0000
  C   C1160     1.0  0.91323  0.43859  0.66956  1.0000
  C   C1161     1.0  0.97090  0.50662  0.75444  1.0000
  H   H940      1.0  0.66063  0.52249  0.60675  1.0000
  C   C1162     1.0  0.96354  0.44607  0.76881  1.0000
  H   H941      1.0  0.93309  0.47643  0.82393  1.0000
  H   H942      1.0  0.00573  0.51927  0.56548  1.0000
  H   H943      1.0  0.90840  0.50756  0.64425  1.0000
  C   C1163     1.0  0.54586  0.48430  0.97188  1.0000
  C   C1164     1.0  0.71740  0.51746  0.79991  1.0000
  H   H944      1.0  0.60225  0.55245  0.94886  1.0000
  Fe  Fe82      1.0  0.86081  0.45868  0.97507  1.0000
  P   P41       1.0  0.72668  0.41503  0.51164  1.0000
  H   H945      1.0  0.92549  0.51599  0.70056  1.0000
  C   C1165     1.0  0.74282  0.47292  0.81621  1.0000
  H   H946      1.0  0.83666  0.65068  0.74469  1.0000
  C   C1166     1.0  0.72036  0.46856  0.54043  1.0000
  C   C1167     1.0  0.67926  0.45167  0.90631  1.0000
  C   C1168     1.0  0.72140  0.56119  0.91757  1.0000
  H   H947      1.0  0.52205  0.38993  0.92146  1.0000
  H   H948      1.0  0.72431  0.48993  0.96047  1.0000
  H   H949      1.0  0.64345  0.50148  0.85185  1.0000
  H   H950      1.0  0.88452  0.48258  0.85894  1.0000
  C   C1169     1.0  0.64495  0.53411  0.92529  1.0000
  C   C1170     1.0  0.73419  0.62802  0.77342  1.0000
  C   C1171     1.0  0.78489  0.54141  0.93240  1.0000
  H   H951      1.0  0.82346  0.49790  0.77608  1.0000
  H   H952      1.0  0.85143  0.62999  0.69204  1.0000
  C   C1172     1.0  0.68836  0.42470  0.95526  1.0000
  C   C1173     1.0  0.72924  0.53219  0.91300  1.0000
  H   H953      1.0  0.75623  0.53297  0.52610  1.0000
  C   C1174     1.0  0.72741  0.49766  0.54370  1.0000
  C   C1175     1.0  0.53679  0.53575  0.60405  1.0000
  H   H954      1.0  0.98662  0.45937  0.84365  1.0000
  H   H955      1.0  0.99414  0.52837  0.91126  1.0000
  P   P42       1.0  0.94195  0.47716  0.75362  1.0000
  C   C1176     1.0  0.90650  0.48405  0.77945  1.0000
  C   C1177     1.0  0.99400  0.47246  0.62702  1.0000
  H   H956      1.0  0.53864  0.48024  0.71133  1.0000
  H   H957      1.0  0.80954  0.53389  0.93824  1.0000
  C   C1178     1.0  0.70623  0.52185  0.83148  1.0000
  C   C1179     1.0  0.73557  0.49293  0.79224  1.0000
  C   C1180     1.0  0.66620  0.45214  0.62678  1.0000
  C   C1181     1.0  0.87526  0.49021  0.76627  1.0000
  C   C1182     1.0  0.84754  0.49344  0.78636  1.0000
  C   C1183     1.0  0.85080  0.49066  0.81973  1.0000
  C   C1184     1.0  0.88180  0.48481  0.83304  1.0000
  C   C1185     1.0  0.90947  0.48146  0.81304  1.0000
  C   C1186     1.0  0.92831  0.47101  0.71277  1.0000
  C   C1187     1.0  0.92202  0.49427  0.69223  1.0000
  C   C1188     1.0  0.91194  0.48965  0.66048  1.0000
  H   H958      1.0  0.65847  0.61450  0.80610  1.0000
  C   C1189     1.0  0.58997  0.53556  0.90220  1.0000
  C   C1190     1.0  0.70600  0.61276  0.78268  1.0000
  C   C1191     1.0  0.71946  0.39692  0.54939  1.0000
  H   H959      1.0  0.65501  0.40973  0.52432  1.0000
  C   C1192     1.0  0.97502  0.52299  0.78245  1.0000
  H   H960      1.0  0.60880  0.45874  0.92494  1.0000
  H   H961      1.0  0.69046  0.36301  0.52813  1.0000
  C   C1193     1.0  0.96266  0.40015  0.79626  1.0000
  H   H962      1.0  0.94899  0.38341  0.80849  1.0000
  C   C1194     1.0  0.53341  0.48412  0.60251  1.0000
  C   C1195     1.0  0.70108  0.37149  0.55004  1.0000
  S   S166      1.0  0.83290  0.55908  0.50150  1.0000
  H   H963      1.0  0.54892  0.44366  0.49155  1.0000
  C   C1196     1.0  0.98671  0.49270  0.87955  1.0000
  C   C1197     1.0  0.61155  0.54196  0.92739  1.0000
  C   C1198     1.0  0.69677  0.35650  0.57891  1.0000
  H   H964      1.0  0.81049  0.62954  0.64759  1.0000
  H   H965      1.0  0.51446  0.46084  0.76172  1.0000
  C   C1199     1.0  0.99708  0.39820  0.79340  1.0000
  H   H966      1.0  0.64185  0.47669  0.97093  1.0000
  H   H967      1.0  0.71450  0.51046  0.56150  1.0000
  C   C1200     1.0  0.80443  0.64638  0.82033  1.0000
  C   C1201     1.0  0.71149  0.36639  0.60716  1.0000
  C   C1202     1.0  0.82984  0.64131  0.84242  1.0000
  Fe  Fe83      1.0  0.87679  0.52845  0.49530  1.0000
  C   C1203     1.0  0.52499  0.39187  0.83974  1.0000
  C   C1204     1.0  0.99808  0.44360  0.76538  1.0000
  H   H968      1.0  0.52594  0.54311  0.98654  1.0000
  C   C1205     1.0  0.58037  0.65087  0.78215  1.0000
  H   H969      1.0  0.54589  0.59220  0.50379  1.0000
  H   H970      1.0  0.58807  0.63444  0.79895  1.0000
  H   H971      1.0  0.52822  0.55662  0.59655  1.0000
  C   C1206     1.0  0.79323  0.40065  0.50476  1.0000
  C   C1207     1.0  0.65882  0.41188  0.49864  1.0000
  C   C1208     1.0  0.52234  0.58281  0.51043  1.0000
  Fe  Fe84      1.0  0.66832  0.65485  0.67849  1.0000
  H   H972      1.0  0.68248  0.33692  0.57930  1.0000
  H   H973      1.0  0.99033  0.49846  0.70646  1.0000
  C   C1209     1.0  0.68358  0.65518  0.80790  1.0000
  C   C1210     1.0  0.99991  0.54368  0.78394  1.0000
  C   C1211     1.0  0.51341  0.39007  0.89684  1.0000
  C   C1212     1.0  0.99209  0.51138  0.72798  1.0000
  H   H974      1.0  0.52223  0.46467  0.59357  1.0000
  C   C1213     1.0  0.99901  0.47838  0.85212  1.0000
  C   C1214     1.0  0.73720  0.65713  0.78106  1.0000
  C   C1215     1.0  0.81979  0.38519  0.49186  1.0000
  C   C1216     1.0  0.00336  0.51702  0.89038  1.0000
  H   H975      1.0  0.62810  0.65349  0.75884  1.0000
  H   H976      1.0  0.84491  0.39002  0.49915  1.0000
  H   H977      1.0  0.87713  0.65524  0.86031  1.0000
  C   C1217     1.0  0.76086  0.39559  0.49401  1.0000
  C   C1218     1.0  0.85744  0.65924  0.84320  1.0000
  H   H978      1.0  0.60669  0.40845  0.48806  1.0000
  H   H979      1.0  0.61841  0.69813  0.41825  1.0000
  H   H980      1.0  0.88111  0.86808  0.24605  1.0000
  H   H981      1.0  0.54641  0.66746  0.31691  1.0000
  H   H982      1.0  0.57746  0.78208  0.29234  1.0000
  H   H983      1.0  0.56424  0.85422  0.23026  1.0000
  H   H984      1.0  0.51349  0.87222  0.00458  1.0000
  S   S167      1.0  0.69544  0.70357  0.18694  1.0000
  Fe  Fe85      1.0  0.70353  0.89158  0.33107  1.0000
  S   S168      1.0  0.69625  0.87417  0.28082  1.0000
  S   S169      1.0  0.75190  0.91349  0.34435  1.0000
  Fe  Fe86      1.0  0.62983  0.88719  0.34696  1.0000
  S   S170      1.0  0.61695  0.87064  0.29793  1.0000
  S   S171      1.0  0.59409  0.89352  0.38868  1.0000
  Fe  Fe87      1.0  0.66150  0.84196  0.30325  1.0000
  S   S172      1.0  0.65139  0.79410  0.29522  1.0000
  Fe  Fe88      1.0  0.65235  0.90395  0.27927  1.0000
  S   S173      1.0  0.64408  0.93075  0.23417  1.0000
  S   S174      1.0  0.67264  0.85707  0.35391  1.0000
  S   S175      1.0  0.66143  0.92284  0.32794  1.0000
  C   C1219     1.0  0.55156  0.89341  0.37895  1.0000
  C   C1220     1.0  0.54127  0.89514  0.34692  1.0000
  C   C1221     1.0  0.70929  0.91350  0.44649  1.0000
  H   H985      1.0  0.55939  0.89643  0.32780  1.0000
  C   C1222     1.0  0.73604  0.94180  0.24631  1.0000
  C   C1223     1.0  0.68280  0.72820  0.21749  1.0000
  C   C1224     1.0  0.66081  0.72078  0.24229  1.0000
  C   C1225     1.0  0.65138  0.74126  0.26566  1.0000
  C   C1226     1.0  0.66372  0.76941  0.26462  1.0000
  C   C1227     1.0  0.68539  0.77689  0.23964  1.0000
  C   C1228     1.0  0.69488  0.75641  0.21635  1.0000
  H   H986      1.0  0.65121  0.69925  0.24353  1.0000
  H   H987      1.0  0.63464  0.73516  0.28486  1.0000
  H   H988      1.0  0.69513  0.79838  0.23842  1.0000
  H   H989      1.0  0.71182  0.76245  0.19728  1.0000
  H   H990      1.0  0.00315  0.93148  0.29460  1.0000
  C   C1229     1.0  0.64246  0.96848  0.23698  1.0000
  H   H991      1.0  0.62220  0.73998  0.18938  1.0000
  H   H992      1.0  0.72679  0.95202  0.15708  1.0000
  C   C1230     1.0  0.53699  0.70791  0.29389  1.0000
  C   C1231     1.0  0.57689  0.91045  0.02427  1.0000
  C   C1232     1.0  0.97873  0.91742  0.99747  1.0000
  C   C1233     1.0  0.97789  0.97165  0.19556  1.0000
  C   C1234     1.0  0.69290  0.97026  0.12316  1.0000
  C   C1235     1.0  0.98088  0.94441  0.29596  1.0000
  C   C1236     1.0  0.81042  0.91781  0.43888  1.0000
  C   C1237     1.0  0.80827  0.94150  0.41850  1.0000
  C   C1238     1.0  0.78879  0.94020  0.39055  1.0000
  C   C1239     1.0  0.77126  0.91532  0.38254  1.0000
  C   C1240     1.0  0.77313  0.89167  0.40306  1.0000
  C   C1241     1.0  0.79261  0.89296  0.43115  1.0000
  H   H993      1.0  0.82178  0.96074  0.42416  1.0000
  H   H994      1.0  0.78747  0.95852  0.37487  1.0000
  H   H995      1.0  0.76030  0.87218  0.39688  1.0000
  H   H996      1.0  0.79417  0.87450  0.44676  1.0000
  C   C1242     1.0  0.53285  0.97839  0.09927  1.0000
  C   C1243     1.0  0.00379  0.93632  0.98815  1.0000
  C   C1244     1.0  0.54531  0.72583  0.44517  1.0000
  H   H997      1.0  0.52966  0.73838  0.38038  1.0000
  H   H998      1.0  0.53543  0.89081  0.42842  1.0000
  C   C1245     1.0  0.95770  0.95583  0.17507  1.0000
  H   H999      1.0  0.68125  0.94996  0.11795  1.0000
  C   C1246     1.0  0.63671  0.98216  0.26638  1.0000
  C   C1247     1.0  0.71853  0.97156  0.14564  1.0000
  H   H1000     1.0  0.90280  0.99246  0.30246  1.0000
  C   C1248     1.0  0.53045  0.97389  0.13253  1.0000
  H   H1001     1.0  0.96648  0.87985  0.02501  1.0000
  H   H1002     1.0  0.57674  0.89059  0.03774  1.0000
  P   P43       1.0  0.52008  0.78607  0.33592  1.0000
  H   H1003     1.0  0.72463  0.96676  0.36329  1.0000
  H   H1004     1.0  0.60117  0.69062  0.10497  1.0000
  H   H1005     1.0  0.79641  0.87280  0.30884  1.0000
  C   C1249     1.0  0.73705  0.96320  0.22287  1.0000
  C   C1250     1.0  0.72717  0.96282  0.44878  1.0000
  C   C1251     1.0  0.55964  0.69858  0.13655  1.0000
  H   H1006     1.0  0.90856  0.90573  0.27713  1.0000
  H   H1007     1.0  0.85146  0.94294  0.11802  1.0000
  H   H1008     1.0  0.98096  0.95834  0.06948  1.0000
  C   C1252     1.0  0.70362  0.97030  0.42548  1.0000
  H   H1009     1.0  0.82079  0.96800  0.21368  1.0000
  C   C1253     1.0  0.68514  0.92089  0.42398  1.0000
  C   C1254     1.0  0.52616  0.84820  0.26623  1.0000
  H   H1010     1.0  0.71403  0.97257  0.21475  1.0000
  H   H1011     1.0  0.51265  0.97176  0.08390  1.0000
  C   C1255     1.0  0.59188  0.81910  0.39450  1.0000
  H   H1012     1.0  0.91404  0.95615  0.14561  1.0000
  C   C1256     1.0  0.92417  0.97864  0.30052  1.0000
  C   C1257     1.0  0.79586  0.93914  0.24572  1.0000
  C   C1258     1.0  0.71622  0.98588  0.35119  1.0000
  H   H1013     1.0  0.65115  0.97467  0.18622  1.0000
  C   C1259     1.0  0.59272  0.70105  0.12683  1.0000
  C   C1260     1.0  0.85637  0.98798  0.10877  1.0000
  C   C1261     1.0  0.51951  0.97191  0.47580  1.0000
  S   S176      1.0  0.83464  0.91846  0.47435  1.0000
  C   C1262     1.0  0.79697  0.96060  0.22230  1.0000
  H   H1014     1.0  0.58989  0.82712  0.44543  1.0000
  H   H1015     1.0  0.56476  0.73415  0.20805  1.0000
  C   C1263     1.0  0.94014  0.92075  0.41813  1.0000
  C   C1264     1.0  0.92074  0.90005  0.43330  1.0000
  C   C1265     1.0  0.89137  0.89099  0.41907  1.0000
  C   C1266     1.0  0.88151  0.90236  0.38949  1.0000
  C   C1267     1.0  0.90117  0.92281  0.37365  1.0000
  C   C1268     1.0  0.93022  0.93243  0.38871  1.0000
  P   P44       1.0  0.88820  0.93816  0.33567  1.0000
  C   C1269     1.0  0.92431  0.95137  0.31465  1.0000
  C   C1270     1.0  0.86817  0.91110  0.31137  1.0000
  C   C1271     1.0  0.88411  0.89897  0.28445  1.0000
  C   C1272     1.0  0.54784  0.67485  0.45499  1.0000
  C   C1273     1.0  0.56125  0.99117  0.08598  1.0000
  C   C1274     1.0  0.64666  0.98511  0.20906  1.0000
  C   C1275     1.0  0.83627  0.90170  0.31954  1.0000
  C   C1276     1.0  0.54109  0.68996  0.32048  1.0000
  S   S177      1.0  0.97652  0.98777  0.43883  1.0000
  H   H1016     1.0  0.96254  0.92827  0.42958  1.0000
  C   C1277     1.0  0.54872  0.71132  0.16535  1.0000
  C   C1278     1.0  0.95296  0.93437  0.31240  1.0000
  C   C1279     1.0  0.86071  0.96779  0.34406  1.0000
  C   C1280     1.0  0.53843  0.70106  0.35163  1.0000
  C   C1281     1.0  0.57113  0.93640  0.04010  1.0000
  C   C1282     1.0  0.82089  0.88013  0.30185  1.0000
  H   H1017     1.0  0.52738  0.75045  0.27749  1.0000
  H   H1018     1.0  0.92797  0.89158  0.45653  1.0000
  H   H1019     1.0  0.87566  0.87575  0.43148  1.0000
  H   H1020     1.0  0.85826  0.89534  0.37966  1.0000
  H   H1021     1.0  0.94518  0.94919  0.37810  1.0000
  C   C1283     1.0  0.76538  0.92964  0.25760  1.0000
  C   C1284     1.0  0.52763  0.89222  0.40360  1.0000
  C   C1285     1.0  0.57699  0.81834  0.42489  1.0000
  H   H1022     1.0  0.61624  0.82845  0.39156  1.0000
  H   H1023     1.0  0.82329  0.91098  0.33978  1.0000
  C   C1286     1.0  0.57498  0.80891  0.36759  1.0000
  C   C1287     1.0  0.81609  0.96760  0.14552  1.0000
  H   H1024     1.0  0.80473  0.94880  0.15599  1.0000
  C   C1288     1.0  0.95215  0.98861  0.28420  1.0000
  H   H1025     1.0  0.95374  0.91341  0.32349  1.0000
  C   C1289     1.0  0.60459  0.72862  0.17458  1.0000
  C   C1290     1.0  0.52861  0.74850  0.32964  1.0000
  H   H1026     1.0  0.00216  0.97946  0.26953  1.0000
  H   H1027     1.0  0.87669  0.98541  0.09180  1.0000
  H   H1028     1.0  0.81857  0.92974  0.25463  1.0000
  C   C1291     1.0  0.76747  0.97214  0.20998  1.0000
  H   H1029     1.0  0.96441  0.93405  0.16901  1.0000
  C   C1292     1.0  0.83701  0.86803  0.27535  1.0000
  C   C1293     1.0  0.59389  0.69886  0.42902  1.0000
  H   H1030     1.0  0.55900  0.66895  0.20873  1.0000
  H   H1031     1.0  0.82674  0.95900  0.30508  1.0000
  C   C1294     1.0  0.57688  0.72482  0.43118  1.0000
  C   C1295     1.0  0.56225  0.79996  0.28475  1.0000
  S   S178      1.0  0.86588  0.99276  0.01969  1.0000
  H   H1032     1.0  0.53368  0.80644  0.45209  1.0000
  H   H1033     1.0  0.54311  0.96515  0.46585  1.0000
  H   H1034     1.0  0.82506  0.85123  0.26174  1.0000
  H   H1035     1.0  0.95360  0.92063  0.98905  1.0000
  C   C1296     1.0  0.98597  0.89442  0.01775  1.0000
  H   H1036     1.0  0.72999  0.96968  0.30471  1.0000
  C   C1297     1.0  0.86855  0.87756  0.26656  1.0000
  H   H1037     1.0  0.76438  0.91298  0.27570  1.0000
  C   C1298     1.0  0.55509  0.84077  0.24960  1.0000
  H   H1038     1.0  0.00016  0.96207  0.20536  1.0000
  H   H1039     1.0  0.53277  0.74618  0.44663  1.0000
  C   C1299     1.0  0.84237  0.96414  0.12378  1.0000
  H   H1040     1.0  0.58821  0.74421  0.42200  1.0000
  H   H1041     1.0  0.71229  0.89142  0.45379  1.0000
  C   C1300     1.0  0.73024  0.93448  0.45886  1.0000
  H   H1042     1.0  0.66898  0.90464  0.41410  1.0000
  C   C1301     1.0  0.86831  0.98691  0.36896  1.0000
  C   C1302     1.0  0.53037  0.70081  0.45696  1.0000
  H   H1043     1.0  0.74347  0.97850  0.45914  1.0000
  H   H1044     1.0  0.56670  0.93606  0.06580  1.0000
  C   C1303     1.0  0.83292  0.97311  0.32470  1.0000
  H   H1045     1.0  0.54156  0.68715  0.37227  1.0000
  H   H1046     1.0  0.64097  0.71762  0.13857  1.0000
  H   H1047     1.0  0.89004  0.98364  0.38376  1.0000
  H   H1048     1.0  0.59622  0.81136  0.24682  1.0000
  H   H1049     1.0  0.51274  0.86739  0.25969  1.0000
  C   C1304     1.0  0.57305  0.81660  0.25882  1.0000
  H   H1050     1.0  0.66361  0.95448  0.39582  1.0000
  H   H1051     1.0  0.63302  0.96966  0.28798  1.0000
  C   C1305     1.0  0.98037  0.97145  0.28176  1.0000
  C   C1306     1.0  0.92943  0.96834  0.16182  1.0000
  H   H1052     1.0  0.54301  0.68598  0.12196  1.0000
  H   H1053     1.0  0.61901  0.93812  0.46996  1.0000
  C   C1307     1.0  0.52841  0.79633  0.40176  1.0000
  C   C1308     1.0  0.61516  0.71615  0.14577  1.0000
  C   C1309     1.0  0.53201  0.73017  0.35618  1.0000
  H   H1054     1.0  0.58705  0.81028  0.34432  1.0000
  C   C1310     1.0  0.54533  0.80680  0.42856  1.0000
  C   C1311     1.0  0.99167  0.97200  0.08765  1.0000
  C   C1312     1.0  0.53299  0.80704  0.30142  1.0000
  H   H1055     1.0  0.52071  0.76653  0.18600  1.0000
  C   C1313     1.0  0.68227  0.94918  0.41354  1.0000
  H   H1056     1.0  0.71241  0.93473  0.25586  1.0000
  C   C1314     1.0  0.57174  0.72570  0.18475  1.0000
  C   C1315     1.0  0.57154  0.96225  0.02282  1.0000
  H   H1057     1.0  0.51740  0.98242  0.98983  1.0000
  C   C1316     1.0  0.54288  0.79776  0.37091  1.0000
  C   C1317     1.0  0.57941  0.67390  0.44100  1.0000
  C   C1318     1.0  0.51508  0.83141  0.29199  1.0000
  H   H1058     1.0  0.55449  0.97906  0.17856  1.0000
  C   C1319     1.0  0.55622  0.98236  0.15275  1.0000
  H   H1059     1.0  0.74961  0.92873  0.47565  1.0000
  C   C1320     1.0  0.53058  0.73702  0.29842  1.0000
  C   C1321     1.0  0.71964  0.98762  0.31777  1.0000
  H   H1060     1.0  0.53902  0.69931  0.26973  1.0000
  H   H1061     1.0  0.56241  0.84286  0.98893  1.0000
  Fe  Fe89      1.0  0.92993  0.99111  0.47067  1.0000
  H   H1062     1.0  0.63335  0.98512  0.02247  1.0000
  C   C1322     1.0  0.57836  0.96166  0.98959  1.0000
  Fe  Fe90      1.0  0.86831  0.95563  0.48757  1.0000
  C   C1323     1.0  0.58302  0.91008  0.99113  1.0000
  H   H1063     1.0  0.56536  0.67443  0.66405  1.0000
  C   C1324     1.0  0.97208  0.97369  0.61068  1.0000
  C   C1325     1.0  0.55420  0.80406  0.87864  1.0000
  S   S179      1.0  0.85345  0.93255  0.95370  1.0000
  H   H1064     1.0  0.54199  0.68004  0.51902  1.0000
  C   C1326     1.0  0.92206  0.96453  0.75310  1.0000
  S   S180      1.0  0.67534  0.70318  0.68540  1.0000
  Fe  Fe91      1.0  0.69851  0.89861  0.83088  1.0000
  S   S181      1.0  0.69630  0.87904  0.78122  1.0000
  S   S182      1.0  0.74205  0.92755  0.84451  1.0000
  Fe  Fe92      1.0  0.62469  0.88476  0.84366  1.0000
  S   S183      1.0  0.61727  0.86519  0.79490  1.0000
  S   S184      1.0  0.58575  0.88626  0.88340  1.0000
  Fe  Fe93      1.0  0.66622  0.84335  0.80339  1.0000
  S   S185      1.0  0.67098  0.79445  0.80019  1.0000
  Fe  Fe94      1.0  0.64765  0.90242  0.77681  1.0000
  S   S186      1.0  0.63682  0.92771  0.73128  1.0000
  S   S187      1.0  0.67223  0.86128  0.85372  1.0000
  S   S188      1.0  0.65119  0.92354  0.82494  1.0000
  C   C1327     1.0  0.54324  0.88765  0.87339  1.0000
  H   H1065     1.0  0.58844  0.76384  0.67683  1.0000
  C   C1328     1.0  0.53788  0.68212  0.76071  1.0000
  H   H1066     1.0  0.55085  0.89329  0.82245  1.0000
  H   H1067     1.0  0.52734  0.88259  0.92265  1.0000
  C   C1329     1.0  0.67186  0.72815  0.71761  1.0000
  C   C1330     1.0  0.66913  0.71960  0.74977  1.0000
  C   C1331     1.0  0.66838  0.74019  0.77460  1.0000
  C   C1332     1.0  0.66993  0.76963  0.76764  1.0000
  C   C1333     1.0  0.67162  0.77823  0.73539  1.0000
  C   C1334     1.0  0.67281  0.75759  0.71060  1.0000
  H   H1068     1.0  0.66828  0.69710  0.75543  1.0000
  H   H1069     1.0  0.66703  0.73328  0.79942  1.0000
  H   H1070     1.0  0.67287  0.80074  0.72958  1.0000
  H   H1071     1.0  0.67490  0.76447  0.68580  1.0000
  C   C1335     1.0  0.54137  0.75414  0.86972  1.0000
  C   C1336     1.0  0.62995  0.96506  0.73349  1.0000
  H   H1072     1.0  0.55682  0.80458  0.94873  1.0000
  H   H1073     1.0  0.62023  0.96630  0.78447  1.0000
  C   C1337     1.0  0.78699  0.66319  0.73045  1.0000
  C   C1338     1.0  0.55192  0.80149  0.77059  1.0000
  H   H1074     1.0  0.60485  0.79738  0.76632  1.0000
  S   S189      1.0  0.93445  0.96342  0.59181  1.0000
  C   C1339     1.0  0.65133  0.94752  0.50975  1.0000
  H   H1075     1.0  0.57189  0.97238  0.60902  1.0000
  C   C1340     1.0  0.82223  0.93116  0.92349  1.0000
  C   C1341     1.0  0.81805  0.95336  0.90130  1.0000
  C   C1342     1.0  0.79341  0.95159  0.87750  1.0000
  C   C1343     1.0  0.77245  0.92778  0.87540  1.0000
  C   C1344     1.0  0.77663  0.90540  0.89740  1.0000
  C   C1345     1.0  0.80157  0.90703  0.92116  1.0000
  S   S190      1.0  0.86061  0.97813  0.53473  1.0000
  C   C1346     1.0  0.59294  0.68230  0.73739  1.0000
  H   H1076     1.0  0.76086  0.88680  0.89602  1.0000
  H   H1077     1.0  0.80473  0.88958  0.93797  1.0000
  C   C1347     1.0  0.56008  0.69207  0.73715  1.0000
  H   H1078     1.0  0.66382  0.66583  0.82096  1.0000
  H   H1079     1.0  0.52616  0.97604  0.56966  1.0000
  S   S191      1.0  0.93143  0.98450  0.97293  1.0000
  H   H1080     1.0  0.61438  0.94972  0.88055  1.0000
  H   H1081     1.0  0.51276  0.69025  0.76173  1.0000
  C   C1348     1.0  0.88334  0.92042  0.80559  1.0000
  C   C1349     1.0  0.93165  0.93865  0.85098  1.0000
  C   C1350     1.0  0.96322  0.92672  0.84610  1.0000
  C   C1351     1.0  0.96265  0.97938  0.79241  1.0000
  C   C1352     1.0  0.96754  0.91649  0.90315  1.0000
  C   C1353     1.0  0.93582  0.92771  0.90806  1.0000
  C   C1354     1.0  0.91787  0.93865  0.88210  1.0000
  C   C1355     1.0  0.85424  0.91375  0.82263  1.0000
  C   C1356     1.0  0.83503  0.89029  0.81371  1.0000
  C   C1357     1.0  0.84525  0.87278  0.78829  1.0000
  C   C1358     1.0  0.87491  0.87858  0.77203  1.0000
  C   C1359     1.0  0.89408  0.90219  0.78081  1.0000
  H   H1082     1.0  0.52582  0.73566  0.87385  1.0000
  C   C1360     1.0  0.70647  0.98241  0.62093  1.0000
  C   C1361     1.0  0.57959  0.76360  0.74117  1.0000
  C   C1362     1.0  0.84923  0.98320  0.81535  1.0000
  C   C1363     1.0  0.53540  0.81747  0.95490  1.0000
  C   C1364     1.0  0.85510  0.98532  0.63046  1.0000
  H   H1083     1.0  0.61090  0.69040  0.72022  1.0000
  H   H1084     1.0  0.69357  0.90201  0.53038  1.0000
  H   H1085     1.0  0.97397  0.92561  0.82218  1.0000
  H   H1086     1.0  0.96107  0.95007  0.65399  1.0000
  C   C1365     1.0  0.74435  0.88906  0.52668  1.0000
  H   H1087     1.0  0.92475  0.92760  0.93189  1.0000
  H   H1088     1.0  0.79011  0.96907  0.86087  1.0000
  H   H1089     1.0  0.63436  0.71589  0.60091  1.0000
  H   H1090     1.0  0.81222  0.88573  0.82666  1.0000
  H   H1091     1.0  0.83033  0.85457  0.78144  1.0000
  H   H1092     1.0  0.88309  0.86471  0.75267  1.0000
  C   C1366     1.0  0.58362  0.93561  0.97384  1.0000
  H   H1093     1.0  0.89304  0.94668  0.88641  1.0000
  H   H1094     1.0  0.91728  0.90602  0.76838  1.0000
  C   C1367     1.0  0.60293  0.66156  0.75959  1.0000
  H   H1095     1.0  0.57285  0.73227  0.83549  1.0000
  H   H1096     1.0  0.81064  0.92804  0.55090  1.0000
  C   C1368     1.0  0.54792  0.66135  0.78291  1.0000
  H   H1097     1.0  0.57938  0.98134  0.97587  1.0000
  H   H1098     1.0  0.76160  0.71841  0.71709  1.0000
  C   C1369     1.0  0.62285  0.97871  0.76270  1.0000
  C   C1370     1.0  0.53275  0.89144  0.84162  1.0000
  H   H1099     1.0  0.62674  0.76134  0.63074  1.0000
  H   H1100     1.0  0.00483  0.91710  0.58392  1.0000
  H   H1101     1.0  0.83389  0.97188  0.90226  1.0000
  P   P45       1.0  0.90750  0.95109  0.81726  1.0000
  C   C1371     1.0  0.71894  0.90815  0.53484  1.0000
  H   H1102     1.0  0.68680  0.97391  0.97275  1.0000
  C   C1372     1.0  0.94118  0.97688  0.72857  1.0000
  H   H1103     1.0  0.88114  0.69615  0.82245  1.0000
  C   C1373     1.0  0.99563  0.99073  0.59509  1.0000
  C   C1374     1.0  0.70104  0.95615  0.67092  1.0000
  C   C1375     1.0  0.57466  0.71907  0.67460  1.0000
  C   C1376     1.0  0.57844  0.69365  0.65697  1.0000
  P   P46       1.0  0.69400  0.95926  0.56021  1.0000
  C   C1377     1.0  0.68949  0.93244  0.65394  1.0000
  C   C1378     1.0  0.75964  0.94140  0.55539  1.0000
  C   C1379     1.0  0.59147  0.74374  0.66439  1.0000
  H   H1104     1.0  0.67851  0.91481  0.60749  1.0000
  H   H1105     1.0  0.79717  0.88201  0.52510  1.0000
  C   C1380     1.0  0.61713  0.71699  0.62095  1.0000
  H   H1106     1.0  0.57061  0.92733  0.50497  1.0000
  H   H1107     1.0  0.97086  0.98141  0.81706  1.0000
  H   H1108     1.0  0.60246  0.75324  0.73390  1.0000
  C   C1381     1.0  0.65461  0.94906  0.54337  1.0000
  C   C1382     1.0  0.72649  0.93478  0.54856  1.0000
  H   H1109     1.0  0.73859  0.86873  0.51560  1.0000
  H   H1110     1.0  0.60845  0.77438  0.82530  1.0000
  H   H1111     1.0  0.98134  0.90790  0.92327  1.0000
  H   H1112     1.0  0.58822  0.93491  0.94815  1.0000
  H   H1113     1.0  0.54452  0.67500  0.57772  1.0000
  Fe  Fe95      1.0  0.91588  0.97626  0.54178  1.0000
  H   H1114     1.0  0.62841  0.94565  0.58891  1.0000
  H   H1115     1.0  0.58753  0.89008  0.97867  1.0000
  C   C1383     1.0  0.52279  0.68446  0.56667  1.0000
  C   C1384     1.0  0.76624  0.71432  0.76906  1.0000
  C   C1385     1.0  0.68666  0.93361  0.62038  1.0000
  H   H1116     1.0  0.67220  0.95223  0.49420  1.0000
  H   H1117     1.0  0.00561  0.90691  0.86823  1.0000
  C   C1386     1.0  0.71188  0.67049  0.79886  1.0000
  C   C1387     1.0  0.62690  0.94373  0.56299  1.0000
  H   H1118     1.0  0.57551  0.93131  0.56435  1.0000
  C   C1388     1.0  0.76092  0.72914  0.74007  1.0000
  C   C1389     1.0  0.75395  0.75842  0.74042  1.0000
  C   C1390     1.0  0.75211  0.77315  0.76960  1.0000
  C   C1391     1.0  0.75757  0.75869  0.79850  1.0000
  C   C1392     1.0  0.76485  0.72946  0.79827  1.0000
  C   C1393     1.0  0.59671  0.93589  0.54912  1.0000
  H   H1119     1.0  0.55319  0.82056  0.78539  1.0000
  H   H1120     1.0  0.59585  0.82060  0.85191  1.0000
  C   C1394     1.0  0.59963  0.69264  0.63031  1.0000
  C   C1395     1.0  0.61288  0.74256  0.63785  1.0000
  C   C1396     1.0  0.78496  0.92245  0.54678  1.0000
  S   S192      1.0  0.92254  0.94953  0.49730  1.0000
  H   H1121     1.0  0.84051  0.96820  0.79748  1.0000
  C   C1397     1.0  0.97899  0.96346  0.64185  1.0000
  C   C1398     1.0  0.88081  0.98020  0.82902  1.0000
  C   C1399     1.0  0.58074  0.80197  0.85703  1.0000
  C   C1400     1.0  0.70942  0.98112  0.65437  1.0000
  H   H1122     1.0  0.74894  0.76953  0.71805  1.0000
  H   H1123     1.0  0.74542  0.79561  0.76989  1.0000
  H   H1124     1.0  0.75533  0.77010  0.82112  1.0000
  H   H1125     1.0  0.76865  0.71856  0.82097  1.0000
  C   C1401     1.0  0.54887  0.75223  0.73207  1.0000
  H   H1126     1.0  0.63606  0.97113  0.68237  1.0000
  C   C1402     1.0  0.67140  0.94130  0.93961  1.0000
  H   H1127     1.0  0.84631  0.92667  0.84286  1.0000
  H   H1128     1.0  0.54876  0.82465  0.88936  1.0000
  H   H1129     1.0  0.65158  0.91337  0.90331  1.0000
  H   H1130     1.0  0.55507  0.96883  0.91874  1.0000
  H   H1131     1.0  0.65673  0.98884  0.85282  1.0000
  P   P47       1.0  0.77433  0.67623  0.76967  1.0000
  C   C1403     1.0  0.77735  0.89637  0.53229  1.0000
  H   H1132     1.0  0.80629  0.96709  0.62864  1.0000
  H   H1133     1.0  0.89856  0.95489  0.74703  1.0000
  C   C1404     1.0  0.51944  0.88551  0.89803  1.0000
  C   C1405     1.0  0.53507  0.77985  0.88608  1.0000
  H   H1134     1.0  0.71345  0.69281  0.80529  1.0000
  C   C1406     1.0  0.69459  0.95881  0.60366  1.0000
  Fe  Fe96      1.0  0.87650  0.97454  0.97033  1.0000
  H   H1135     1.0  0.98271  0.93493  0.53240  1.0000
  C   C1407     1.0  0.93318  0.96493  0.78513  1.0000
  H   H1136     1.0  0.70279  0.95528  0.69696  1.0000
  C   C1408     1.0  0.52348  0.73420  0.94619  1.0000
  C   C1409     1.0  0.56780  0.75217  0.84790  1.0000
  C   C1410     1.0  0.53862  0.83910  0.97786  1.0000
  H   H1137     1.0  0.73952  0.67174  0.70828  1.0000
  H   H1138     1.0  0.68259  0.91325  0.66700  1.0000
  H   H1139     1.0  0.75092  0.97944  0.77339  1.0000
  C   C1411     1.0  0.52078  0.71221  0.96893  1.0000
  H   H1140     1.0  0.68809  0.92524  0.94916  1.0000
  C   C1412     1.0  0.63178  0.98151  0.70524  1.0000
  H   H1141     1.0  0.86542  0.97076  0.61272  1.0000
  C   C1413     1.0  0.65097  0.93465  0.91368  1.0000
  C   C1414     1.0  0.59389  0.93374  0.51566  1.0000
  C   C1415     1.0  0.58776  0.77596  0.84193  1.0000
  C   C1416     1.0  0.51286  0.96774  0.84833  1.0000
  C   C1417     1.0  0.58105  0.78842  0.75984  1.0000
  C   C1418     1.0  0.98116  0.91586  0.87215  1.0000
  P   P48       1.0  0.54740  0.71943  0.70919  1.0000
  C   C1419     1.0  0.85968  0.68229  0.82187  1.0000
  C   C1420     1.0  0.52115  0.68730  0.53317  1.0000
  C   C1421     1.0  0.80649  0.66953  0.79884  1.0000
  H   H1142     1.0  0.54162  0.69813  0.97334  1.0000
  H   H1143     1.0  0.54678  0.73718  0.93370  1.0000
  H   H1144     1.0  0.76599  0.96140  0.56698  1.0000
  H   H1145     1.0  0.74519  0.98554  0.51782  1.0000
  C   C1422     1.0  0.62115  0.93974  0.49596  1.0000
  H   H1146     1.0  0.83651  0.70528  0.78323  1.0000
  H   H1147     1.0  0.93283  0.97620  0.70379  1.0000
  C   C1423     1.0  0.62982  0.95538  0.90084  1.0000
  C   C1424     1.0  0.51837  0.99053  0.50220  1.0000
  C   C1425     1.0  0.51967  0.76510  0.74362  1.0000
  C   C1426     1.0  0.76423  0.66304  0.70500  1.0000
  C   C1427     1.0  0.52124  0.78971  0.76271  1.0000
  C   C1428     1.0  0.64955  0.98958  0.94004  1.0000
  C   C1429     1.0  0.82184  0.98321  0.63953  1.0000
  H   H1148     1.0  0.60301  0.67280  0.61726  1.0000
  C   C1430     1.0  0.52120  0.96146  0.88015  1.0000
  H   H1149     1.0  0.74151  0.96970  0.92445  1.0000
  C   C1431     1.0  0.83433  0.68743  0.79976  1.0000
  C   C1432     1.0  0.97116  0.99020  0.73593  1.0000
  H   H1150     1.0  0.97411  0.98894  0.90860  1.0000
  C   C1433     1.0  0.54876  0.97431  0.89425  1.0000
  H   H1151     1.0  0.52558  0.99187  0.80588  1.0000
  H   H1152     1.0  0.99775  0.95375  0.97203  1.0000
  C   C1434     1.0  0.67057  0.96872  0.95290  1.0000
  C   C1435     1.0  0.00836  0.93881  0.53836  1.0000
  C   C1436     1.0  0.53185  0.98721  0.83069  1.0000
  C   C1437     1.0  0.98180  0.99154  0.76786  1.0000
  C   C1438     1.0  0.62899  0.98308  0.91383  1.0000
  C   C1439     1.0  0.74580  0.99196  0.91848  1.0000
  C   C1440     1.0  0.51109  0.85547  0.98677  1.0000
