data_image0
_chemical_formula_structural       CHSHC2SHCSCHC3HCHCHCSHCH5C2HCHC2HFeHFeH2SHCSCHCHCH2CHFeS2FeSCFeSFeS3C2FeS2CH2C7H4C3PC2HPC7H6C5SC2HC3PC10H6CH6C10HFeSC6H4C2H6CHCHCH2CHC2H2C2SH3C4H3CH2C3H2CHC2H3C3H7C2HCSFeS2FeSCFeS2FeSFeS3C6HCH2C7HCFeH3C6SH3C5HC2H3CSCHCH2CHCHCHCHPC5HC2HC4HCSC2PHC3H3CHC2SCH2CH4PH2C3HC2HCPC3H2C3HCHC3H4C5HCHC4HCH5CH2CHC6H3C3HCHC5HCH4CHCHC2H7CH2CPC2H2C2HCHC2SCHC3HC3HC2H3CHSCHC2HCSH2CFe2H2CHSCSCHC3HC2HC3SHSCHFe2C2SH2SCHC2HC2Fe2H3C2HCS2HFeH3CHCH5C2HCHCHSCH2C6H2C2H2C2H4C3HCH2C2HCH5C3PC2H2C2HC2HC10FeC2HCH5PH7C3H2CHC4HC6HC3HC2HC2HCHC2SPHCH2C3H2CHC3H2CH4C2H2CSCSCHCSHCHCHCSPHCH2CH3CHC2H2CSH4CFeH2CH2C2PH2CH2C3PC14H2C2HC2HCH7CH2C3HC3H2C2HCHC2H2CHC2H2CH2C2HCH2C6HCHC3H2CHFeC3HSCSC5HCH2C2HSPC2SCH2C2HCH8FeSC4HFeH2SC2HCH2C2FeH3C2SHCFeS4HC6HCH2CFeC2HCH3PCHCH2C2HC4HCHC2H3C2HC3SCH4CHC2HC2H2C2H2FeHCHCHCFeH2CHSHPC2H4CHC2HC2HCH2SFeS2FeS2FeSFeHS3C2HC6HCH2C7H2CHC6H4C2H2CHC8H3CH2CHSH2C2HC4PCH3C3HC2FeH3CHCH4C2HCHC6HCHCHC6HP2H2CH2CSH2C4H2C5HCH2C6HCHCHCH3FeHCH2CSCHC2HCHCHCHSCHC2H2FeS2FeS2FeSFeS3H2CHS2C7H4C3HC7H2C6H3C6PC4H2C7HC4H7CH7CH3C3H3CH2CH2C3HFeH2CHCH6CHC2H2CHCHCH2C4SPC6SCH2FeC3H2SFeS2HCHSHC6H5C2HSCH2C3H2C2SHFeH2CH2CHC2HC6FeC3FeC2HCH2CHC4H2C3PHPCHC2H2FeHCHSH2C2HSC2H3CHCHCHCHC2HCH
_chemical_formula_sum              "C720 H576 S96 Fe48 P24"
_cell_length_a       47.9079
_cell_length_b       38.4431
_cell_length_c       30.5914
_cell_angle_alpha    89.9086
_cell_angle_beta     104.292
_cell_angle_gamma    89.8286

_space_group_name_H-M_alt    "P 1"
_space_group_IT_number       1

loop_
  _space_group_symop_operation_xyz
  'x, y, z'

loop_
  _atom_site_type_symbol
  _atom_site_label
  _atom_site_symmetry_multiplicity
  _atom_site_fract_x
  _atom_site_fract_y
  _atom_site_fract_z
  _atom_site_occupancy
  C   C1        1.0  0.14344  0.23196  0.40208  1.0000
  H   H1        1.0  0.27259  0.02853  0.19773  1.0000
  S   S1        1.0  0.12648  0.02152  0.04243  1.0000
  H   H2        1.0  0.20010  0.08234  0.45466  1.0000
  C   C2        1.0  0.25588  0.01914  0.21277  1.0000
  C   C3        1.0  0.24466  0.16756  0.47435  1.0000
  S   S2        1.0  0.16889  0.00381  0.17309  1.0000
  H   H3        1.0  0.24458  0.99594  0.31424  1.0000
  C   C4        1.0  0.25466  0.13865  0.45488  1.0000
  S   S3        1.0  0.11451  0.44150  0.47553  1.0000
  C   C5        1.0  0.16423  0.21247  0.43264  1.0000
  H   H4        1.0  0.00769  0.13878  0.99836  1.0000
  C   C6        1.0  0.00329  0.43808  0.46381  1.0000
  C   C7        1.0  0.23866  0.10798  0.44797  1.0000
  C   C8        1.0  0.15231  0.28106  0.45301  1.0000
  H   H5        1.0  0.27520  0.13947  0.44608  1.0000
  C   C9        1.0  0.20537  0.00497  0.20478  1.0000
  H   H6        1.0  0.22789  0.43364  0.47850  1.0000
  C   C10       1.0  0.21176  0.99816  0.25139  1.0000
  H   H7        1.0  0.02107  0.42511  0.45460  1.0000
  C   C11       1.0  0.22772  0.01493  0.18543  1.0000
  S   S4        1.0  0.28396  0.99050  0.41270  1.0000
  H   H8        1.0  0.15180  0.09814  0.04498  1.0000
  C   C12       1.0  0.26230  0.01226  0.25942  1.0000
  H   H9        1.0  0.99026  0.01022  0.02793  1.0000
  H   H10       1.0  0.17732  0.15459  0.05132  1.0000
  H   H11       1.0  0.16834  0.18595  0.42417  1.0000
  H   H12       1.0  0.14760  0.30755  0.46138  1.0000
  H   H13       1.0  0.24692  0.08532  0.43405  1.0000
  C   C13       1.0  0.21236  0.10628  0.45982  1.0000
  C   C14       1.0  0.97474  0.42633  0.44632  1.0000
  H   H14       1.0  0.13185  0.22043  0.37054  1.0000
  C   C15       1.0  0.14691  0.11644  0.01708  1.0000
  H   H15       1.0  0.25764  0.19081  0.48000  1.0000
  C   C16       1.0  0.24010  0.00126  0.27846  1.0000
  C   C17       1.0  0.13748  0.26623  0.41226  1.0000
  H   H16       1.0  0.22305  0.02084  0.14977  1.0000
  Fe  Fe1       1.0  0.15203  0.98815  0.09944  1.0000
  H   H17       1.0  0.05366  0.99151  0.11571  1.0000
  Fe  Fe2       1.0  0.15022  0.99298  0.99823  1.0000
  H   H18       1.0  0.07306  0.46097  0.38384  1.0000
  H   H19       1.0  0.12129  0.28128  0.38874  1.0000
  S   S5        1.0  0.04700  0.99551  0.01618  1.0000
  H   H20       1.0  0.02153  0.00651  0.16527  1.0000
  C   C18       1.0  0.17939  0.22731  0.47350  1.0000
  S   S6        1.0  0.29811  0.01817  0.29269  1.0000
  C   C19       1.0  0.20217  0.13516  0.47901  1.0000
  H   H21       1.0  0.19461  0.99067  0.26677  1.0000
  C   C20       1.0  0.16132  0.14823  0.02063  1.0000
  H   H22       1.0  0.97571  0.45567  0.31258  1.0000
  C   C21       1.0  0.98800  0.98930  0.00372  1.0000
  H   H23       1.0  0.18816  0.07631  0.98488  1.0000
  H   H24       1.0  0.23424  0.25853  0.47684  1.0000
  C   C22       1.0  0.17314  0.26171  0.48344  1.0000
  H   H25       1.0  0.16691  0.19596  0.98692  1.0000
  Fe  Fe3       1.0  0.25037  0.15203  0.72097  1.0000
  S   S7        1.0  0.20707  0.15590  0.73822  1.0000
  S   S8        1.0  0.25926  0.10391  0.68146  1.0000
  Fe  Fe4       1.0  0.27291  0.21682  0.77748  1.0000
  S   S9        1.0  0.23182  0.22434  0.79799  1.0000
  C   C23       1.0  0.28541  0.05220  0.58153  1.0000
  Fe  Fe5       1.0  0.23201  0.16635  0.80940  1.0000
  S   S10       1.0  0.22165  0.14964  0.87589  1.0000
  Fe  Fe6       1.0  0.21028  0.21348  0.72562  1.0000
  S   S11       1.0  0.17138  0.24751  0.69490  1.0000
  S   S12       1.0  0.27528  0.15946  0.79360  1.0000
  S   S13       1.0  0.25157  0.20900  0.70370  1.0000
  C   C24       1.0  0.15524  0.19214  0.60386  1.0000
  C   C25       1.0  0.24453  0.45780  0.54318  1.0000
  Fe  Fe7       1.0  0.14272  0.41665  0.53832  1.0000
  S   S14       1.0  0.11719  0.44001  0.58365  1.0000
  S   S15       1.0  0.16310  0.36246  0.54206  1.0000
  C   C26       1.0  0.26617  0.27968  0.53235  1.0000
  H   H26       1.0  0.20990  0.25811  0.91468  1.0000
  H   H27       1.0  0.15679  0.15250  0.65413  1.0000
  C   C27       1.0  0.28859  0.11348  0.56665  1.0000
  C   C28       1.0  0.18144  0.05056  0.92089  1.0000
  C   C29       1.0  0.18537  0.05315  0.87685  1.0000
  C   C30       1.0  0.19816  0.08283  0.86272  1.0000
  C   C31       1.0  0.20718  0.11047  0.89255  1.0000
  C   C32       1.0  0.20332  0.10783  0.93664  1.0000
  C   C33       1.0  0.19067  0.07805  0.95080  1.0000
  H   H28       1.0  0.17841  0.03205  0.85339  1.0000
  H   H29       1.0  0.20078  0.08447  0.82865  1.0000
  H   H30       1.0  0.21005  0.12905  0.96000  1.0000
  H   H31       1.0  0.23141  0.98680  0.97420  1.0000
  C   C34       1.0  0.27162  0.09533  0.63195  1.0000
  C   C35       1.0  0.27856  0.12183  0.60509  1.0000
  C   C36       1.0  0.12683  0.10769  0.97711  1.0000
  P   P1        1.0  0.09476  0.11989  0.88853  1.0000
  C   C37       1.0  0.18031  0.24733  0.85092  1.0000
  C   C38       1.0  0.18469  0.41278  0.86245  1.0000
  H   H32       1.0  0.27611  0.14872  0.61385  1.0000
  P   P2        1.0  0.20573  0.20238  0.51415  1.0000
  C   C39       1.0  0.00320  0.06214  0.94193  1.0000
  C   C40       1.0  0.16763  0.33406  0.58925  1.0000
  C   C41       1.0  0.14791  0.33342  0.61620  1.0000
  C   C42       1.0  0.14985  0.30735  0.64932  1.0000
  C   C43       1.0  0.17180  0.28207  0.65648  1.0000
  C   C44       1.0  0.19236  0.28369  0.63103  1.0000
  C   C45       1.0  0.19015  0.30943  0.59743  1.0000
  H   H33       1.0  0.13048  0.35215  0.61032  1.0000
  H   H34       1.0  0.13391  0.30643  0.66891  1.0000
  H   H35       1.0  0.20934  0.26442  0.63619  1.0000
  H   H36       1.0  0.20578  0.31003  0.57729  1.0000
  H   H37       1.0  0.24252  0.20884  0.60597  1.0000
  H   H38       1.0  0.15845  0.42948  0.67453  1.0000
  C   C46       1.0  0.21492  0.43239  0.93372  1.0000
  C   C47       1.0  0.08875  0.00039  0.87516  1.0000
  C   C48       1.0  0.19917  0.26840  0.88181  1.0000
  C   C49       1.0  0.20558  0.38797  0.85866  1.0000
  C   C50       1.0  0.99808  0.11717  0.97735  1.0000
  S   S16       1.0  0.16506  0.01236  0.93639  1.0000
  C   C51       1.0  0.11928  0.38283  0.73279  1.0000
  C   C52       1.0  0.12524  0.40450  0.69954  1.0000
  H   H39       1.0  0.28105  0.30577  0.92870  1.0000
  C   C53       1.0  0.17634  0.39814  0.73306  1.0000
  C   C54       1.0  0.17059  0.37581  0.76616  1.0000
  C   C55       1.0  0.14184  0.36882  0.76630  1.0000
  P   P3        1.0  0.19974  0.35911  0.81063  1.0000
  C   C56       1.0  0.23146  0.35732  0.78885  1.0000
  C   C57       1.0  0.25000  0.38609  0.79331  1.0000
  C   C58       1.0  0.27320  0.38579  0.77316  1.0000
  C   C59       1.0  0.27799  0.35689  0.74829  1.0000
  C   C60       1.0  0.25967  0.32817  0.74377  1.0000
  C   C61       1.0  0.23641  0.32840  0.76378  1.0000
  C   C62       1.0  0.19193  0.31546  0.82671  1.0000
  C   C63       1.0  0.17354  0.29374  0.79554  1.0000
  C   C64       1.0  0.16749  0.26005  0.80782  1.0000
  C   C65       1.0  0.20494  0.30230  0.86986  1.0000
  H   H40       1.0  0.09715  0.37708  0.73267  1.0000
  H   H41       1.0  0.21880  0.44983  0.96239  1.0000
  H   H42       1.0  0.16485  0.41543  0.83655  1.0000
  H   H43       1.0  0.13688  0.35266  0.79237  1.0000
  H   H44       1.0  0.28002  0.25080  0.64074  1.0000
  H   H45       1.0  0.24628  0.40913  0.81145  1.0000
  C   C66       1.0  0.13509  0.16304  0.94455  1.0000
  H   H46       1.0  0.11665  0.08251  0.97494  1.0000
  H   H47       1.0  0.26348  0.30552  0.72502  1.0000
  H   H48       1.0  0.22217  0.30614  0.75909  1.0000
  H   H49       1.0  0.16441  0.30238  0.76125  1.0000
  H   H50       1.0  0.15378  0.24335  0.78313  1.0000
  H   H51       1.0  0.22001  0.31771  0.89418  1.0000
  C   C67       1.0  0.14450  0.15415  0.80610  1.0000
  C   C68       1.0  0.12468  0.17035  0.77069  1.0000
  C   C69       1.0  0.09545  0.17086  0.77048  1.0000
  C   C70       1.0  0.08607  0.15536  0.80581  1.0000
  C   C71       1.0  0.10601  0.13948  0.84185  1.0000
  C   C72       1.0  0.13519  0.13872  0.84138  1.0000
  C   C73       1.0  0.23570  0.40771  0.93028  1.0000
  C   C74       1.0  0.00864  0.46700  0.49237  1.0000
  C   C75       1.0  0.09214  0.07314  0.88243  1.0000
  C   C76       1.0  0.10612  0.05545  0.85374  1.0000
  H   H52       1.0  0.06606  0.06694  0.93050  1.0000
  Fe  Fe8       1.0  0.09134  0.46846  0.52203  1.0000
  S   S17       1.0  0.28283  0.46738  0.91021  1.0000
  C   C77       1.0  0.07641  0.05399  0.90735  1.0000
  C   C78       1.0  0.15375  0.41225  0.69985  1.0000
  C   C79       1.0  0.03050  0.18045  0.91581  1.0000
  C   C80       1.0  0.05759  0.16673  0.91583  1.0000
  C   C81       1.0  0.24899  0.22837  0.58501  1.0000
  C   C82       1.0  0.25171  0.48114  0.70528  1.0000
  H   H53       1.0  0.98458  0.17533  0.89030  1.0000
  H   H54       1.0  0.15896  0.22862  0.55299  1.0000
  H   H55       1.0  0.19817  0.40504  0.73273  1.0000
  H   H56       1.0  0.26896  0.47293  0.69053  1.0000
  C   C83       1.0  0.27905  0.27773  0.57857  1.0000
  C   C84       1.0  0.00763  0.13519  0.86458  1.0000
  H   H57       1.0  0.16718  0.15356  0.80637  1.0000
  H   H58       1.0  0.13204  0.18246  0.74347  1.0000
  H   H59       1.0  0.08010  0.18336  0.74290  1.0000
  H   H60       1.0  0.13828  0.20679  0.61335  1.0000
  H   H61       1.0  0.15075  0.12631  0.86862  1.0000
  H   H62       1.0  0.11908  0.06926  0.83509  1.0000
  C   C85       1.0  0.16584  0.16170  0.62711  1.0000
  H   H63       1.0  0.28732  0.40814  0.77682  1.0000
  C   C86       1.0  0.18944  0.43497  0.89976  1.0000
  H   H64       1.0  0.02890  0.20335  0.93566  1.0000
  C   C87       1.0  0.27516  0.06052  0.61986  1.0000
  H   H65       1.0  0.98829  0.12279  0.84497  1.0000
  H   H66       1.0  0.28028  0.26047  0.87057  1.0000
  C   C88       1.0  0.29228  0.31025  0.90257  1.0000
  H   H67       1.0  0.11602  0.00561  0.82917  1.0000
  C   C89       1.0  0.03467  0.12149  0.86439  1.0000
  C   C90       1.0  0.23544  0.23069  0.53890  1.0000
  H   H68       1.0  0.26993  0.03974  0.64034  1.0000
  H   H69       1.0  0.03591  0.09881  0.84394  1.0000
  C   C91       1.0  0.20069  0.15605  0.58216  1.0000
  C   C92       1.0  0.18865  0.14374  0.61641  1.0000
  S   S18       1.0  0.17548  0.45948  0.54852  1.0000
  H   H70       1.0  0.06338  0.15607  0.80491  1.0000
  H   H71       1.0  0.21871  0.14204  0.57505  1.0000
  H   H72       1.0  0.19739  0.12054  0.63518  1.0000
  C   C93       1.0  0.29215  0.07867  0.55448  1.0000
  C   C94       1.0  0.23128  0.38597  0.89262  1.0000
  C   C95       1.0  0.27050  0.25202  0.60481  1.0000
  C   C96       1.0  0.18979  0.18633  0.55800  1.0000
  H   H73       1.0  0.24805  0.36777  0.88989  1.0000
  H   H74       1.0  0.25564  0.40593  0.95632  1.0000
  H   H75       1.0  0.03865  0.09106  0.98247  1.0000
  C   C97       1.0  0.16719  0.20454  0.56957  1.0000
  H   H76       1.0  0.10780  0.41557  0.67372  1.0000
  H   H77       1.0  0.17660  0.22070  0.85975  1.0000
  C   C98       1.0  0.23509  0.45765  0.49618  1.0000
  C   C99       1.0  0.29173  0.28454  0.86949  1.0000
  C   C100      1.0  0.05988  0.13709  0.89017  1.0000
  H   H78       1.0  0.27251  0.29986  0.51202  1.0000
  H   H79       1.0  0.29337  0.13422  0.54599  1.0000
  C   C101      1.0  0.21842  0.16592  0.48696  1.0000
  H   H80       1.0  0.07664  0.17945  0.93569  1.0000
  C   C102      1.0  0.12071  0.13092  0.94046  1.0000
  C   C103      1.0  0.01557  0.09039  0.96825  1.0000
  H   H81       1.0  0.01668  0.04081  0.93609  1.0000
  H   H82       1.0  0.29604  0.35662  0.73295  1.0000
  H   H83       1.0  0.28801  0.02531  0.57292  1.0000
  C   C104      1.0  0.10431  0.01922  0.85006  1.0000
  C   C105      1.0  0.15542  0.17151  0.98437  1.0000
  C   C106      1.0  0.00554  0.16474  0.89014  1.0000
  H   H84       1.0  0.29538  0.29639  0.59417  1.0000
  H   H85       1.0  0.13088  0.18144  0.91684  1.0000
  H   H86       1.0  0.17347  0.45441  0.90216  1.0000
  H   H87       1.0  0.06330  0.00309  0.92415  1.0000
  H   H88       1.0  0.18412  0.27359  0.51501  1.0000
  H   H89       1.0  0.18180  0.13329  0.48825  1.0000
  H   H90       1.0  0.24461  0.43385  0.56195  1.0000
  C   C107      1.0  0.24444  0.25626  0.51253  1.0000
  C   C108      1.0  0.97333  0.06030  0.92525  1.0000
  H   H91       1.0  0.21923  0.47969  0.64189  1.0000
  C   C109      1.0  0.07477  0.01778  0.90379  1.0000
  S   S19       1.0  0.29629  0.76765  0.29791  1.0000
  Fe  Fe9       1.0  0.14324  0.92249  0.04311  1.0000
  S   S20       1.0  0.11824  0.94618  0.08881  1.0000
  S   S21       1.0  0.15920  0.86646  0.04195  1.0000
  Fe  Fe10      1.0  0.26258  0.72474  0.27526  1.0000
  S   S22       1.0  0.21838  0.72258  0.28732  1.0000
  C   C110      1.0  0.29356  0.68518  0.00873  1.0000
  Fe  Fe11      1.0  0.25255  0.65786  0.21576  1.0000
  S   S23       1.0  0.20714  0.65155  0.22469  1.0000
  S   S24       1.0  0.27918  0.62112  0.18080  1.0000
  Fe  Fe12      1.0  0.20335  0.70991  0.21365  1.0000
  S   S25       1.0  0.16280  0.73715  0.17320  1.0000
  Fe  Fe13      1.0  0.22546  0.66464  0.29818  1.0000
  S   S26       1.0  0.21269  0.64448  0.36178  1.0000
  S   S27       1.0  0.24706  0.71534  0.20050  1.0000
  S   S28       1.0  0.27115  0.66770  0.29050  1.0000
  C   C111      1.0  0.01277  0.97600  0.99240  1.0000
  C   C112      1.0  0.22439  0.89649  0.02707  1.0000
  C   C113      1.0  0.27943  0.59879  0.12916  1.0000
  C   C114      1.0  0.25697  0.60160  0.09008  1.0000
  C   C115      1.0  0.25862  0.58420  0.05000  1.0000
  C   C116      1.0  0.28269  0.56361  0.04788  1.0000
  H   H92       1.0  0.23281  0.68069  0.11372  1.0000
  C   C117      1.0  0.98504  0.50937  0.33041  1.0000
  H   H93       1.0  0.23818  0.61696  0.09073  1.0000
  H   H94       1.0  0.24093  0.58653  0.02038  1.0000
  C   C118      1.0  0.10781  0.60358  0.45005  1.0000
  C   C119      1.0  0.19900  0.60517  0.37961  1.0000
  C   C120      1.0  0.19023  0.60510  0.42034  1.0000
  C   C121      1.0  0.17896  0.57485  0.43591  1.0000
  C   C122      1.0  0.17580  0.54429  0.41043  1.0000
  C   C123      1.0  0.18445  0.54438  0.36961  1.0000
  C   C124      1.0  0.19612  0.57447  0.35440  1.0000
  H   H95       1.0  0.19212  0.62873  0.43997  1.0000
  C   C125      1.0  0.04557  0.62691  0.34928  1.0000
  Fe  Fe14      1.0  0.09435  0.97744  0.02835  1.0000
  H   H96       1.0  0.20272  0.57395  0.32305  1.0000
  H   H97       1.0  0.98140  0.81030  0.09969  1.0000
  H   H98       1.0  0.15067  0.68896  0.44908  1.0000
  C   C126      1.0  0.16207  0.83498  0.08546  1.0000
  C   C127      1.0  0.18668  0.81362  0.09688  1.0000
  C   C128      1.0  0.18780  0.78444  0.12533  1.0000
  C   C129      1.0  0.16400  0.77603  0.14214  1.0000
  C   C130      1.0  0.13968  0.79791  0.13164  1.0000
  C   C131      1.0  0.13879  0.82740  0.10384  1.0000
  S   S29       1.0  0.29566  0.89102  0.43855  1.0000
  H   H99       1.0  0.20664  0.76782  0.13299  1.0000
  H   H100      1.0  0.12123  0.79166  0.14446  1.0000
  H   H101      1.0  0.11957  0.84326  0.09497  1.0000
  C   C132      1.0  0.30330  0.57768  0.12732  1.0000
  C   C133      1.0  0.24712  0.89538  0.13928  1.0000
  C   C134      1.0  0.13908  0.62592  0.28286  1.0000
  C   C135      1.0  0.10425  0.62250  0.40966  1.0000
  C   C136      1.0  0.27221  0.72465  0.09033  1.0000
  H   H102      1.0  0.19488  0.93211  0.18269  1.0000
  C   C137      1.0  0.28774  0.85086  0.05464  1.0000
  C   C138      1.0  0.20944  0.87903  0.19355  1.0000
  H   H103      1.0  0.25847  0.77823  0.09374  1.0000
  H   H104      1.0  0.19466  0.87265  0.21406  1.0000
  H   H105      1.0  0.22763  0.82755  0.19764  1.0000
  C   C139      1.0  0.04577  0.85047  0.17000  1.0000
  S   S30       1.0  0.17806  0.96300  0.05647  1.0000
  C   C140      1.0  0.21797  0.77737  0.01084  1.0000
  H   H106      1.0  0.23964  0.54376  0.47524  1.0000
  C   C141      1.0  0.01474  0.67419  0.36205  1.0000
  H   H107      1.0  0.09681  0.57920  0.45112  1.0000
  H   H108      1.0  0.05057  0.93445  0.07959  1.0000
  C   C142      1.0  0.02190  0.61215  0.31852  1.0000
  H   H109      1.0  0.25476  0.78758  0.35056  1.0000
  C   C143      1.0  0.04201  0.80885  0.10940  1.0000
  H   H110      1.0  0.29028  0.78885  0.16919  1.0000
  C   C144      1.0  0.07058  0.79500  0.18443  1.0000
  H   H111      1.0  0.20489  0.81954  0.08332  1.0000
  C   C145      1.0  0.22808  0.85365  0.18428  1.0000
  H   H112      1.0  0.28478  0.94227  0.28365  1.0000
  P   P4        1.0  0.01463  0.87232  0.08431  1.0000
  C   C146      1.0  0.24668  0.86165  0.15693  1.0000
  C   C147      1.0  0.20958  0.91253  0.17587  1.0000
  C   C148      1.0  0.27274  0.83335  0.38851  1.0000
  C   C149      1.0  0.27250  0.80574  0.35791  1.0000
  C   C150      1.0  0.09548  0.53740  0.34775  1.0000
  H   H113      1.0  0.22800  0.94679  0.13526  1.0000
  C   C151      1.0  0.03658  0.93990  0.10154  1.0000
  C   C152      1.0  0.97686  0.86107  0.06765  1.0000
  H   H114      1.0  0.25568  0.64456  0.44774  1.0000
  C   C153      1.0  0.18879  0.70128  0.01116  1.0000
  C   C154      1.0  0.01347  0.86447  0.99266  1.0000
  C   C155      1.0  0.22834  0.92071  0.14887  1.0000
  C   C156      1.0  0.99853  0.92393  0.13706  1.0000
  H   H115      1.0  0.97676  0.61684  0.28577  1.0000
  C   C157      1.0  0.05543  0.51138  0.39231  1.0000
  S   S31       1.0  0.28404  0.54389  0.99504  1.0000
  C   C158      1.0  0.27265  0.75764  0.11026  1.0000
  C   C159      1.0  0.24880  0.95178  0.02968  1.0000
  P   P5        1.0  0.27003  0.90591  0.10221  1.0000
  H   H116      1.0  0.14146  0.66883  0.06738  1.0000
  C   C160      1.0  0.07321  0.87089  0.00708  1.0000
  C   C161      1.0  0.12609  0.61438  0.31646  1.0000
  C   C162      1.0  0.18719  0.67317  0.09473  1.0000
  H   H117      1.0  0.26015  0.84122  0.14918  1.0000
  H   H118      1.0  0.25520  0.83596  0.40478  1.0000
  H   H119      1.0  0.30190  0.80846  0.01936  1.0000
  C   C163      1.0  0.29082  0.76396  0.15293  1.0000
  H   H120      1.0  0.20592  0.77091  0.03539  1.0000
  C   C164      1.0  0.26392  0.68371  0.00645  1.0000
  C   C165      1.0  0.24644  0.91897  0.04888  1.0000
  S   S32       1.0  0.16108  0.50537  0.42732  1.0000
  C   C166      1.0  0.29533  0.80158  0.33728  1.0000
  H   H121      1.0  0.00313  0.54065  0.45689  1.0000
  H   H122      1.0  0.04317  0.56449  0.39782  1.0000
  C   C167      1.0  0.29624  0.95594  0.16577  1.0000
  H   H123      1.0  0.22114  0.87198  0.04256  1.0000
  H   H124      1.0  0.04121  0.87564  0.18246  1.0000
  H   H125      1.0  0.13280  0.65129  0.21838  1.0000
  H   H126      1.0  0.18649  0.66246  0.12718  1.0000
  P   P6        1.0  0.08071  0.60702  0.35770  1.0000
  H   H127      1.0  0.13930  0.60272  0.34679  1.0000
  H   H128      1.0  0.11749  0.66859  0.37913  1.0000
  C   C168      1.0  0.12251  0.64179  0.24395  1.0000
  C   C169      1.0  0.21341  0.68399  0.08709  1.0000
  C   C170      1.0  0.07372  0.48861  0.37712  1.0000
  H   H129      1.0  0.08499  0.77743  0.20725  1.0000
  C   C171      1.0  0.04187  0.65826  0.37070  1.0000
  C   C172      1.0  0.99483  0.62817  0.30990  1.0000
  H   H130      1.0  0.99041  0.56175  0.35492  1.0000
  C   C173      1.0  0.16177  0.67668  0.06090  1.0000
  P   P7        1.0  0.24773  0.71533  0.03639  1.0000
  C   C174      1.0  0.23016  0.96114  0.98844  1.0000
  C   C175      1.0  0.09285  0.64584  0.23842  1.0000
  C   C176      1.0  0.06041  0.87359  0.04334  1.0000
  H   H131      1.0  0.02452  0.58843  0.30080  1.0000
  H   H132      1.0  0.28161  0.94831  0.18590  1.0000
  C   C177      1.0  0.21431  0.69894  0.04561  1.0000
  C   C178      1.0  0.29015  0.88955  0.26370  1.0000
  C   C179      1.0  0.26975  0.63125  0.47615  1.0000
  H   H133      1.0  0.18217  0.52091  0.34959  1.0000
  C   C180      1.0  0.09367  0.50160  0.35480  1.0000
  H   H134      1.0  0.16215  0.62316  0.28738  1.0000
  C   C181      1.0  0.03496  0.84145  0.12448  1.0000
  C   C182      1.0  0.98756  0.62713  0.44129  1.0000
  C   C183      1.0  0.09641  0.61872  0.31159  1.0000
  H   H135      1.0  0.30199  0.83846  0.24603  1.0000
  H   H136      1.0  0.07398  0.87780  0.07689  1.0000
  H   H137      1.0  0.26808  0.88245  0.26235  1.0000
  H   H138      1.0  0.06577  0.76102  0.12722  1.0000
  C   C184      1.0  0.23375  0.48873  0.47207  1.0000
  C   C185      1.0  0.07979  0.63443  0.27208  1.0000
  C   C186      1.0  0.20583  0.90592  0.98584  1.0000
  C   C187      1.0  0.07704  0.56048  0.36262  1.0000
  C   C188      1.0  0.06350  0.82727  0.19981  1.0000
  H   H139      1.0  0.05693  0.63857  0.26730  1.0000
  C   C189      1.0  0.05693  0.54714  0.38479  1.0000
  H   H140      1.0  0.10877  0.48406  0.34487  1.0000
  C   C190      1.0  0.03040  0.87077  0.03640  1.0000
  C   C191      1.0  0.05973  0.78574  0.13930  1.0000
  C   C192      1.0  0.11958  0.65364  0.40984  1.0000
  C   C193      1.0  0.30519  0.82227  0.05102  1.0000
  H   H141      1.0  0.03437  0.80164  0.07425  1.0000
  C   C194      1.0  0.01674  0.91523  0.10903  1.0000
  H   H142      1.0  0.11196  0.54680  0.33215  1.0000
  H   H143      1.0  0.08010  0.65835  0.20828  1.0000
  H   H144      1.0  0.04065  0.50133  0.41103  1.0000
  H   H145      1.0  0.01200  0.69841  0.37864  1.0000
  H   H146      1.0  0.05985  0.67056  0.39389  1.0000
  C   C195      1.0  0.29536  0.94009  0.12416  1.0000
  H   H147      1.0  0.27132  0.85882  0.02530  1.0000
  H   H148      1.0  0.07232  0.83464  0.23466  1.0000
  C   C196      1.0  0.00600  0.56862  0.45849  1.0000
  H   H149      1.0  0.98606  0.96329  0.17869  1.0000
  C   C197      1.0  0.98334  0.59105  0.43788  1.0000
  C   C198      1.0  0.97829  0.53801  0.35403  1.0000
  C   C199      1.0  0.00021  0.95674  0.15723  1.0000
  C   C200      1.0  0.99119  0.65907  0.33187  1.0000
  C   C201      1.0  0.03832  0.97260  0.12198  1.0000
  C   C202      1.0  0.28994  0.69813  0.11400  1.0000
  H   H150      1.0  0.28897  0.67197  0.10053  1.0000
  H   H151      1.0  0.09637  0.87326  0.01275  1.0000
  H   H152      1.0  0.00229  0.51105  0.31330  1.0000
  C   C203      1.0  0.29964  0.92322  0.27609  1.0000
  C   C204      1.0  0.29184  0.86877  0.09572  1.0000
  C   C205      1.0  0.16260  0.69041  0.01894  1.0000
  H   H153      1.0  0.17263  0.57520  0.46746  1.0000
  C   C206      1.0  0.02015  0.98107  0.14972  1.0000
  H   H154      1.0  0.22548  0.48879  0.43572  1.0000
  C   C207      1.0  0.13834  0.66542  0.44956  1.0000
  C   C208      1.0  0.29531  0.85773  0.39785  1.0000
  C   C209      1.0  0.03255  0.58204  0.48193  1.0000
  C   C210      1.0  0.30481  0.56001  0.08728  1.0000
  C   C211      1.0  0.23981  0.75513  0.00407  1.0000
  H   H155      1.0  0.98307  0.90531  0.14344  1.0000
  C   C212      1.0  0.01422  0.64051  0.46474  1.0000
  H   H156      1.0  0.26424  0.97076  0.04674  1.0000
  H   H157      1.0  0.19381  0.82442  0.99064  1.0000
  H   H158      1.0  0.01738  0.66838  0.46758  1.0000
  H   H159      1.0  0.14289  0.69299  0.99265  1.0000
  C   C213      1.0  0.21108  0.80782  0.98548  1.0000
  H   H160      1.0  0.99032  0.86197  0.98609  1.0000
  C   C214      1.0  0.20885  0.93810  0.96637  1.0000
  H   H161      1.0  0.05733  0.62831  0.50316  1.0000
  C   C215      1.0  0.28490  0.55167  0.62595  1.0000
  C   C216      1.0  0.12646  0.61557  0.48976  1.0000
  H   H162      1.0  0.20333  0.65986  0.60673  1.0000
  H   H163      1.0  0.22064  0.84015  0.93356  1.0000
  H   H164      1.0  0.25935  0.80119  0.92094  1.0000
  H   H165      1.0  0.29201  0.56141  0.73905  1.0000
  H   H166      1.0  0.20437  0.53268  0.57923  1.0000
  H   H167      1.0  0.01315  0.85716  0.92274  1.0000
  H   H168      1.0  0.19391  0.94584  0.93510  1.0000
  C   C217      1.0  0.17998  0.61172  0.60296  1.0000
  H   H169      1.0  0.18903  0.71207  0.97853  1.0000
  H   H170      1.0  0.24750  0.61139  0.94059  1.0000
  C   C218      1.0  0.25138  0.52048  0.54207  1.0000
  P   P8        1.0  0.26026  0.56103  0.57211  1.0000
  C   C219      1.0  0.24794  0.79461  0.94631  1.0000
  C   C220      1.0  0.25476  0.76393  0.97152  1.0000
  H   H171      1.0  0.19017  0.51260  0.75715  1.0000
  H   H172      1.0  0.24584  0.63297  0.58838  1.0000
  C   C221      1.0  0.02638  0.86159  0.95646  1.0000
  C   C222      1.0  0.22806  0.58093  0.58145  1.0000
  H   H173      1.0  0.16158  0.62332  0.61211  1.0000
  C   C223      1.0  0.25234  0.48910  0.56610  1.0000
  H   H174      1.0  0.16233  0.56010  0.59787  1.0000
  C   C224      1.0  0.26017  0.63253  0.95884  1.0000
  C   C225      1.0  0.20429  0.56056  0.58418  1.0000
  S   S33       1.0  0.16622  0.50543  0.66182  1.0000
  C   C226      1.0  0.18035  0.57603  0.59479  1.0000
  H   H175      1.0  0.12953  0.60038  0.52046  1.0000
  C   C227      1.0  0.23526  0.49891  0.77046  1.0000
  C   C228      1.0  0.00938  0.94917  0.96077  1.0000
  C   C229      1.0  0.03674  0.61798  0.48485  1.0000
  H   H176      1.0  0.97939  0.91529  0.91617  1.0000
  C   C230      1.0  0.20348  0.63221  0.60003  1.0000
  C   C231      1.0  0.98168  0.93588  0.94084  1.0000
  C   C232      1.0  0.25815  0.60858  0.50271  1.0000
  H   H177      1.0  0.06621  0.86303  0.93559  1.0000
  C   C233      1.0  0.20130  0.49682  0.69601  1.0000
  C   C234      1.0  0.22749  0.61688  0.58943  1.0000
  H   H178      1.0  0.25852  0.48877  0.60260  1.0000
  H   H179      1.0  0.08822  0.97225  0.87341  1.0000
  H   H180      1.0  0.22450  0.65514  0.97908  1.0000
  C   C235      1.0  0.22612  0.81655  0.95331  1.0000
  H   H181      1.0  0.15675  0.65524  0.51998  1.0000
  S   S34       1.0  0.04380  0.48523  0.51258  1.0000
  C   C236      1.0  0.28971  0.63380  0.96191  1.0000
  H   H182      1.0  0.02806  0.93899  0.95115  1.0000
  C   C237      1.0  0.25774  0.48825  0.75179  1.0000
  C   C238      1.0  0.27611  0.59065  0.53899  1.0000
  H   H183      1.0  0.25946  0.57730  0.66639  1.0000
  C   C239      1.0  0.20727  0.50351  0.74259  1.0000
  S   S35       1.0  0.12158  0.51453  0.53247  1.0000
  H   H184      1.0  0.98886  0.50569  0.52595  1.0000
  H   H185      1.0  0.23957  0.50450  0.80615  1.0000
  C   C240      1.0  0.14181  0.64638  0.48948  1.0000
  Fe  Fe15      1.0  0.14886  0.48394  0.59092  1.0000
  Fe  Fe16      1.0  0.14598  0.48628  0.48909  1.0000
  H   H186      1.0  0.27147  0.74712  0.96522  1.0000
  H   H187      1.0  0.04975  0.56435  0.49811  1.0000
  C   C241      1.0  0.98503  0.48349  0.50364  1.0000
  H   H188      1.0  0.18826  0.88895  0.96993  1.0000
  S   S36       1.0  0.11687  0.95034  0.98139  1.0000
  C   C242      1.0  0.22359  0.48504  0.67760  1.0000
  S   S37       1.0  0.29391  0.48553  0.78448  1.0000
  C   C243      1.0  0.24727  0.65731  0.98103  1.0000
  H   H189      1.0  0.29962  0.61375  0.94580  1.0000
  C   C244      1.0  0.27881  0.56273  0.66639  1.0000
  C   C245      1.0  0.29731  0.55392  0.70788  1.0000
  C   C246      1.0  0.05621  0.86496  0.96363  1.0000
  H   H190      1.0  0.23510  0.60484  0.49480  1.0000
  C   C247      1.0  0.24171  0.52006  0.49483  1.0000
  C   C248      1.0  0.29945  0.63656  0.48587  1.0000
  H   H191      1.0  0.39778  0.03655  0.22348  1.0000
  C   C249      1.0  0.39661  0.02077  0.25232  1.0000
  C   C250      1.0  0.40564  0.40959  0.08230  1.0000
  C   C251      1.0  0.47785  0.43670  0.01488  1.0000
  S   S38       1.0  0.34158  0.03654  0.41849  1.0000
  H   H192      1.0  0.44222  0.44206  0.08572  1.0000
  S   S39       1.0  0.61177  0.39363  0.05462  1.0000
  C   C252      1.0  0.37784  0.40710  0.08882  1.0000
  H   H193      1.0  0.34387  0.43377  0.11011  1.0000
  Fe  Fe17      1.0  0.58516  0.44240  0.03652  1.0000
  Fe  Fe18      1.0  0.63548  0.40932  0.00227  1.0000
  C   C253      1.0  0.50301  0.45177  0.00709  1.0000
  C   C254      1.0  0.36569  0.43541  0.10607  1.0000
  S   S40       1.0  0.53734  0.43459  0.03612  1.0000
  H   H194      1.0  0.39932  0.02844  0.36409  1.0000
  H   H195      1.0  0.36546  0.38349  0.07969  1.0000
  S   S41       1.0  0.61557  0.47372  0.09012  1.0000
  C   C255      1.0  0.39287  0.98473  0.24773  1.0000
  H   H196      1.0  0.31660  0.99472  0.21386  1.0000
  C   C256      1.0  0.47661  0.00035  0.47309  1.0000
  C   C257      1.0  0.39757  0.01631  0.33153  1.0000
  H   H197      1.0  0.34928  0.01501  0.16802  1.0000
  C   C258      1.0  0.39872  0.03657  0.29412  1.0000
  C   C259      1.0  0.40933  0.46885  0.11069  1.0000
  Fe  Fe19      1.0  0.31473  0.02161  0.46659  1.0000
  Fe  Fe20      1.0  0.31282  0.00241  0.36701  1.0000
  H   H198      1.0  0.47982  0.41471  0.03754  1.0000
  H   H199      1.0  0.41493  0.38787  0.06824  1.0000
  H   H200      1.0  0.40128  0.06450  0.29764  1.0000
  C   C260      1.0  0.38133  0.46619  0.11693  1.0000
  C   C261      1.0  0.42124  0.44044  0.09274  1.0000
  H   H201      1.0  0.42258  0.47142  0.20352  1.0000
  C   C262      1.0  0.33478  0.99359  0.15618  1.0000
  S   S42       1.0  0.41744  0.00289  0.45879  1.0000
  S   S43       1.0  0.34405  0.46625  0.98942  1.0000
  H   H202      1.0  0.43116  0.43774  0.99978  1.0000
  Fe  Fe21      1.0  0.36897  0.98929  0.44275  1.0000
  H   H203      1.0  0.47467  0.02756  0.46380  1.0000
  H   H204      1.0  0.34915  0.98595  0.09554  1.0000
  H   H205      1.0  0.52573  0.45895  0.14503  1.0000
  C   C263      1.0  0.45020  0.44973  0.99358  1.0000
  H   H206      1.0  0.47709  0.46374  0.15876  1.0000
  C   C264      1.0  0.31608  0.98240  0.18179  1.0000
  H   H207      1.0  0.32561  0.16334  0.47979  1.0000
  H   H208      1.0  0.36819  0.33655  0.01576  1.0000
  H   H209      1.0  0.39360  0.28800  0.98846  1.0000
  H   H210      1.0  0.37070  0.39609  0.98620  1.0000
  H   H211      1.0  0.51764  0.36519  0.99054  1.0000
  C   C265      1.0  0.38054  0.34139  0.99110  1.0000
  C   C266      1.0  0.51117  0.47944  0.12895  1.0000
  H   H212      1.0  0.59509  0.07223  0.48293  1.0000
  C   C267      1.0  0.40490  0.39561  0.84152  1.0000
  H   H213      1.0  0.51183  0.03139  0.68406  1.0000
  C   C268      1.0  0.44729  0.47839  0.96457  1.0000
  H   H214      1.0  0.44906  0.06586  0.51511  1.0000
  S   S44       1.0  0.34300  0.44409  0.88482  1.0000
  C   C269      1.0  0.44310  0.08402  0.57881  1.0000
  H   H215      1.0  0.41970  0.29850  0.92957  1.0000
  H   H216      1.0  0.41332  0.23762  0.76874  1.0000
  C   C270      1.0  0.38031  0.29561  0.68368  1.0000
  C   C271      1.0  0.47642  0.39091  0.86903  1.0000
  C   C272      1.0  0.36565  0.15178  0.58731  1.0000
  C   C273      1.0  0.54281  0.14517  0.65358  1.0000
  C   C274      1.0  0.35561  0.30464  0.69768  1.0000
  C   C275      1.0  0.58477  0.10358  0.53512  1.0000
  H   H217      1.0  0.52461  0.14824  0.62472  1.0000
  H   H218      1.0  0.41993  0.08618  0.56662  1.0000
  C   C276      1.0  0.52013  0.39082  0.92915  1.0000
  C   C277      1.0  0.54083  0.98994  0.71151  1.0000
  H   H219      1.0  0.38109  0.13361  0.60695  1.0000
  H   H220      1.0  0.46520  0.39858  0.83517  1.0000
  C   C278      1.0  0.39622  0.00439  0.57544  1.0000
  C   C279      1.0  0.53287  0.02035  0.68619  1.0000
  H   H221      1.0  0.36606  0.04370  0.67117  1.0000
  H   H222      1.0  0.45332  0.99943  0.58576  1.0000
  H   H223      1.0  0.32339  0.08338  0.70109  1.0000
  H   H224      1.0  0.35414  0.07101  0.59531  1.0000
  C   C280      1.0  0.33447  0.16859  0.51531  1.0000
  C   C281      1.0  0.55520  0.11220  0.66531  1.0000
  C   C282      1.0  0.39365  0.27084  0.80923  1.0000
  H   H225      1.0  0.35848  0.47131  0.77625  1.0000
  C   C283      1.0  0.40910  0.35345  0.92280  1.0000
  H   H226      1.0  0.54235  0.39869  0.94241  1.0000
  H   H227      1.0  0.37320  0.04581  0.53408  1.0000
  C   C284      1.0  0.33349  0.10774  0.71399  1.0000
  C   C285      1.0  0.46209  0.37219  0.89642  1.0000
  H   H228      1.0  0.58971  0.19452  0.73048  1.0000
  C   C286      1.0  0.39459  0.31403  0.97533  1.0000
  H   H229      1.0  0.33275  0.32531  0.80941  1.0000
  H   H230      1.0  0.37246  0.36223  0.80036  1.0000
  H   H231      1.0  0.50174  0.06181  0.54148  1.0000
  H   H232      1.0  0.34355  0.41039  0.75888  1.0000
  H   H233      1.0  0.62100  0.37424  0.61329  1.0000
  C   C287      1.0  0.39664  0.30082  0.83569  1.0000
  C   C288      1.0  0.36588  0.23483  0.67913  1.0000
  C   C289      1.0  0.34066  0.24433  0.69188  1.0000
  P   P9        1.0  0.37229  0.18987  0.66683  1.0000
  C   C290      1.0  0.35713  0.16157  0.70228  1.0000
  C   C291      1.0  0.36345  0.41580  0.78374  1.0000
  H   H234      1.0  0.39565  0.31555  0.68055  1.0000
  H   H235      1.0  0.54594  0.20024  0.66749  1.0000
  C   C292      1.0  0.48647  0.08962  0.63900  1.0000
  C   C293      1.0  0.57950  0.17156  0.71310  1.0000
  H   H236      1.0  0.36062  0.12231  0.52578  1.0000
  C   C294      1.0  0.35754  0.17154  0.74667  1.0000
  C   C295      1.0  0.34554  0.15004  0.77404  1.0000
  H   H237      1.0  0.37957  0.30781  0.85153  1.0000
  C   C296      1.0  0.30678  0.28955  0.83616  1.0000
  C   C297      1.0  0.34503  0.12939  0.68619  1.0000
  C   C298      1.0  0.41074  0.18207  0.67894  1.0000
  C   C299      1.0  0.42588  0.18888  0.64591  1.0000
  C   C300      1.0  0.45562  0.18311  0.65513  1.0000
  C   C301      1.0  0.47054  0.17071  0.69743  1.0000
  C   C302      1.0  0.45569  0.16396  0.73052  1.0000
  C   C303      1.0  0.42593  0.16961  0.72139  1.0000
  C   C304      1.0  0.59170  0.13885  0.72530  1.0000
  C   C305      1.0  0.36841  0.04865  0.60215  1.0000
  Fe  Fe22      1.0  0.31900  0.42949  0.93589  1.0000
  C   C306      1.0  0.37504  0.03309  0.64477  1.0000
  C   C307      1.0  0.32160  0.32093  0.83557  1.0000
  H   H238      1.0  0.46682  0.34838  0.96224  1.0000
  C   C308      1.0  0.39620  0.38108  0.94049  1.0000
  H   H239      1.0  0.49659  0.09603  0.67376  1.0000
  H   H240      1.0  0.59001  0.08439  0.71098  1.0000
  H   H241      1.0  0.59588  0.12628  0.52699  1.0000
  H   H242      1.0  0.36663  0.19618  0.76008  1.0000
  H   H243      1.0  0.61143  0.13668  0.75179  1.0000
  P   P10       1.0  0.42462  0.36067  0.87541  1.0000
  H   H244      1.0  0.59419  0.03200  0.65049  1.0000
  H   H245      1.0  0.34374  0.12109  0.65203  1.0000
  H   H246      1.0  0.41476  0.19887  0.61305  1.0000
  H   H247      1.0  0.46713  0.18838  0.62945  1.0000
  H   H248      1.0  0.49362  0.16645  0.70466  1.0000
  H   H249      1.0  0.46728  0.15446  0.76341  1.0000
  H   H250      1.0  0.41498  0.16426  0.74764  1.0000
  C   C309      1.0  0.41312  0.43037  0.85118  1.0000
  C   C310      1.0  0.37988  0.38856  0.80759  1.0000
  C   C311      1.0  0.40910  0.32006  0.94161  1.0000
  H   H251      1.0  0.63142  0.09776  0.67840  1.0000
  H   H252      1.0  0.33350  0.37068  0.86732  1.0000
  C   C312      1.0  0.38181  0.37496  0.97425  1.0000
  H   H253      1.0  0.43149  0.43674  0.87858  1.0000
  C   C313      1.0  0.45651  0.09233  0.62350  1.0000
  C   C314      1.0  0.32178  0.34687  0.86815  1.0000
  C   C315      1.0  0.42150  0.32139  0.84203  1.0000
  C   C316      1.0  0.57204  0.10433  0.57159  1.0000
  H   H254      1.0  0.30938  0.21517  0.51548  1.0000
  C   C317      1.0  0.50616  0.37180  0.95633  1.0000
  C   C318      1.0  0.44320  0.31168  0.82082  1.0000
  C   C319      1.0  0.57899  0.02042  0.66705  1.0000
  C   C320      1.0  0.55894  0.07434  0.58371  1.0000
  C   C321      1.0  0.38537  0.26089  0.67413  1.0000
  C   C322      1.0  0.55490  0.17471  0.67752  1.0000
  H   H255      1.0  0.40462  0.25454  0.66331  1.0000
  C   C323      1.0  0.55185  0.03572  0.66344  1.0000
  C   C324      1.0  0.58439  0.07307  0.51030  1.0000
  C   C325      1.0  0.33344  0.11818  0.75765  1.0000
  H   H256      1.0  0.57332  0.12813  0.59071  1.0000
  C   C326      1.0  0.50006  0.48012  0.97755  1.0000
  C   C327      1.0  0.55884  0.04371  0.55867  1.0000
  H   H257      1.0  0.46249  0.32715  0.82476  1.0000
  C   C328      1.0  0.35673  0.18110  0.60778  1.0000
  C   C329      1.0  0.57953  0.10922  0.70175  1.0000
  H   H258      1.0  0.45724  0.27392  0.77874  1.0000
  C   C330      1.0  0.35442  0.14550  0.54131  1.0000
  H   H259      1.0  0.54933  0.02005  0.56758  1.0000
  C   C331      1.0  0.39204  0.00294  0.65270  1.0000
  C   C332      1.0  0.50325  0.07853  0.60985  1.0000
  S   S45       1.0  0.30609  0.07008  0.50634  1.0000
  P   P11       1.0  0.54197  0.07497  0.63040  1.0000
  H   H260      1.0  0.37420  0.25538  0.80462  1.0000
  C   C333      1.0  0.45957  0.07285  0.54965  1.0000
  H   H261      1.0  0.34495  0.15845  0.80763  1.0000
  H   H262      1.0  0.39670  0.40728  0.92776  1.0000
  C   C334      1.0  0.47725  0.36256  0.94017  1.0000
  C   C335      1.0  0.41556  0.26100  0.78894  1.0000
  C   C336      1.0  0.48954  0.07039  0.56491  1.0000
  H   H263      1.0  0.57208  0.01929  0.50362  1.0000
  H   H264      1.0  0.44364  0.10079  0.64611  1.0000
  C   C337      1.0  0.57157  0.04315  0.52220  1.0000
  H   H265      1.0  0.51617  0.41534  0.86470  1.0000
  C   C338      1.0  0.37913  0.03441  0.56761  1.0000
  C   C339      1.0  0.44027  0.28147  0.79457  1.0000
  C   C340      1.0  0.50530  0.40031  0.88548  1.0000
  H   H266      1.0  0.62944  0.05330  0.61869  1.0000
  H   H267      1.0  0.32328  0.10197  0.77828  1.0000
  C   C341      1.0  0.58682  0.98994  0.69212  1.0000
  H   H268      1.0  0.35185  0.33144  0.70570  1.0000
  H   H269      1.0  0.50285  0.00023  0.57723  1.0000
  H   H270      1.0  0.63382  0.31363  0.59770  1.0000
  H   H271      1.0  0.40336  0.99295  0.54765  1.0000
  C   C342      1.0  0.37190  0.45025  0.79342  1.0000
  C   C343      1.0  0.33624  0.20381  0.58158  1.0000
  H   H272      1.0  0.32865  0.22630  0.59650  1.0000
  H   H273      1.0  0.32487  0.22496  0.69510  1.0000
  C   C344      1.0  0.33572  0.27904  0.70147  1.0000
  S   S46       1.0  0.60720  0.45680  0.98167  1.0000
  C   C345      1.0  0.32527  0.19764  0.53548  1.0000
  S   S47       1.0  0.30850  0.37265  0.94570  1.0000
  C   C346      1.0  0.40272  0.98823  0.61794  1.0000
  H   H274      1.0  0.39580  0.99068  0.68545  1.0000
  C   C347      1.0  0.30734  0.34156  0.90219  1.0000
  S   S48       1.0  0.30897  0.25662  0.79632  1.0000
  H   H275      1.0  0.31658  0.28599  0.71252  1.0000
  C   C348      1.0  0.39679  0.45751  0.82699  1.0000
  H   H276      1.0  0.52303  0.99990  0.48460  1.0000
  C   C349      1.0  0.50423  0.98475  0.48512  1.0000
  H   H277      1.0  0.30681  0.70531  0.02811  1.0000
  C   C350      1.0  0.52050  0.55366  0.20240  1.0000
  S   S49       1.0  0.34230  0.95618  0.38712  1.0000
  P   P12       1.0  0.42827  0.50965  0.12252  1.0000
  H   H278      1.0  0.59662  0.59568  0.03001  1.0000
  C   C351      1.0  0.57272  0.55737  0.22509  1.0000
  H   H279      1.0  0.50773  0.54611  0.05474  1.0000
  H   H280      1.0  0.45366  0.85897  0.44311  1.0000
  C   C352      1.0  0.42898  0.49789  0.21298  1.0000
  H   H281      1.0  0.44508  0.54930  0.30637  1.0000
  H   H282      1.0  0.35442  0.60286  0.08247  1.0000
  H   H283      1.0  0.61681  0.64264  0.08410  1.0000
  C   C353      1.0  0.32681  0.81144  0.08819  1.0000
  H   H284      1.0  0.54084  0.49956  0.09275  1.0000
  C   C354      1.0  0.44191  0.54165  0.27139  1.0000
  C   C355      1.0  0.31806  0.85362  0.37707  1.0000
  H   H285      1.0  0.45930  0.55163  0.06774  1.0000
  H   H286      1.0  0.37134  0.48816  0.12935  1.0000
  C   C356      1.0  0.33111  0.82928  0.12904  1.0000
  S   S50       1.0  0.61472  0.96663  0.48286  1.0000
  H   H287      1.0  0.54536  0.58882  0.17277  1.0000
  H   H288      1.0  0.34773  0.82078  0.15802  1.0000
  H   H289      1.0  0.62023  0.63529  0.16471  1.0000
  H   H290      1.0  0.34005  0.78902  0.08548  1.0000
  C   C357      1.0  0.33457  0.97733  0.11532  1.0000
  Fe  Fe23      1.0  0.31450  0.94518  0.43460  1.0000
  H   H291      1.0  0.35308  0.85373  0.25339  1.0000
  H   H292      1.0  0.38780  0.56496  0.13614  1.0000
  C   C358      1.0  0.36647  0.58268  0.02413  1.0000
  H   H293      1.0  0.45292  0.59201  0.24972  1.0000
  H   H294      1.0  0.33575  0.87180  0.38444  1.0000
  C   C359      1.0  0.43293  0.52210  0.18064  1.0000
  C   C360      1.0  0.58934  0.55752  0.12700  1.0000
  P   P13       1.0  0.60574  0.57623  0.21781  1.0000
  H   H295      1.0  0.35087  0.59828  0.00047  1.0000
  H   H296      1.0  0.42994  0.48909  0.28295  1.0000
  C   C361      1.0  0.59707  0.59277  0.06542  1.0000
  H   H297      1.0  0.63318  0.52039  0.17636  1.0000
  H   H298      1.0  0.32166  0.74203  0.20988  1.0000
  C   C362      1.0  0.32838  0.93224  0.27965  1.0000
  C   C363      1.0  0.34804  0.90732  0.27197  1.0000
  C   C364      1.0  0.44629  0.56572  0.23945  1.0000
  P   P14       1.0  0.38576  0.91774  0.27991  1.0000
  C   C365      1.0  0.40729  0.89817  0.33107  1.0000
  C   C366      1.0  0.39624  0.90202  0.23066  1.0000
  C   C367      1.0  0.42294  0.88559  0.23436  1.0000
  C   C368      1.0  0.43050  0.87335  0.19576  1.0000
  C   C369      1.0  0.41148  0.87736  0.15331  1.0000
  C   C370      1.0  0.38486  0.89366  0.14938  1.0000
  C   C371      1.0  0.37725  0.90590  0.18788  1.0000
  C   C372      1.0  0.43570  0.90948  0.34884  1.0000
  C   C373      1.0  0.45235  0.89522  0.38896  1.0000
  C   C374      1.0  0.44075  0.86973  0.41182  1.0000
  C   C375      1.0  0.41244  0.85852  0.39460  1.0000
  C   C376      1.0  0.39575  0.87273  0.35446  1.0000
  C   C377      1.0  0.36853  0.58521  0.07038  1.0000
  C   C378      1.0  0.59744  0.66796  0.28231  1.0000
  H   H299      1.0  0.40326  0.83898  0.41245  1.0000
  H   H300      1.0  0.31503  0.93814  0.06767  1.0000
  C   C379      1.0  0.33824  0.87357  0.25893  1.0000
  C   C380      1.0  0.40536  0.54007  0.08499  1.0000
  H   H301      1.0  0.32072  0.57481  0.15727  1.0000
  C   C381      1.0  0.44193  0.55596  0.19425  1.0000
  C   C382      1.0  0.40288  0.53753  0.03852  1.0000
  H   H302      1.0  0.33515  0.95854  0.28921  1.0000
  C   C383      1.0  0.60843  0.61921  0.09585  1.0000
  H   H303      1.0  0.43797  0.88207  0.26683  1.0000
  H   H304      1.0  0.45118  0.86075  0.19885  1.0000
  H   H305      1.0  0.41743  0.86789  0.12349  1.0000
  H   H306      1.0  0.37007  0.89679  0.11651  1.0000
  H   H307      1.0  0.35658  0.91858  0.18437  1.0000
  H   H308      1.0  0.44491  0.92963  0.33199  1.0000
  H   H309      1.0  0.47416  0.90436  0.40276  1.0000
  C   C384      1.0  0.61051  0.61476  0.14193  1.0000
  H   H310      1.0  0.44539  0.57484  0.16979  1.0000
  H   H311      1.0  0.37381  0.86408  0.34233  1.0000
  C   C385      1.0  0.63569  0.54702  0.23961  1.0000
  C   C386      1.0  0.58722  0.56210  0.08093  1.0000
  C   C387      1.0  0.57319  0.53103  0.25710  1.0000
  H   H312      1.0  0.33625  0.82188  0.33273  1.0000
  C   C388      1.0  0.60154  0.58354  0.15803  1.0000
  C   C389      1.0  0.48353  0.48203  0.13616  1.0000
  C   C390      1.0  0.52108  0.52742  0.23428  1.0000
  H   H313      1.0  0.58233  0.53321  0.13862  1.0000
  H   H314      1.0  0.32075  0.68353  0.17529  1.0000
  C   C391      1.0  0.46408  0.50731  0.11322  1.0000
  C   C392      1.0  0.38769  0.56374  0.10078  1.0000
  H   H315      1.0  0.31701  0.87127  0.16463  1.0000
  C   C393      1.0  0.54618  0.56863  0.19783  1.0000
  H   H316      1.0  0.41543  0.51841  0.02564  1.0000
  C   C394      1.0  0.43334  0.50774  0.25817  1.0000
  C   C395      1.0  0.30932  0.86485  0.25444  1.0000
  H   H317      1.0  0.57881  0.54144  0.05732  1.0000
  H   H318      1.0  0.58058  0.68248  0.29215  1.0000
  C   C396      1.0  0.59134  0.63585  0.26049  1.0000
  H   H319      1.0  0.54794  0.49560  0.28613  1.0000
  C   C397      1.0  0.31517  0.95038  0.09960  1.0000
  C   C398      1.0  0.54742  0.51613  0.26162  1.0000
  H   H320      1.0  0.39126  0.97312  0.21511  1.0000
  H   H321      1.0  0.30834  0.65407  0.46501  1.0000
  C   C399      1.0  0.50105  0.52859  0.07798  1.0000
  H   H322      1.0  0.56961  0.62591  0.25368  1.0000
  H   H323      1.0  0.50020  0.56211  0.18070  1.0000
  C   C400      1.0  0.61317  0.61717  0.24740  1.0000
  C   C401      1.0  0.47334  0.53121  0.08497  1.0000
  H   H324      1.0  0.32312  0.54364  0.08686  1.0000
  C   C402      1.0  0.62528  0.68167  0.29097  1.0000
  H   H325      1.0  0.39361  0.96515  0.35679  1.0000
  H   H326      1.0  0.59336  0.52171  0.27834  1.0000
  C   C403      1.0  0.31829  0.82534  0.34776  1.0000
  C   C404      1.0  0.31367  0.85778  0.13277  1.0000
  C   C405      1.0  0.39406  0.98032  0.32714  1.0000
  C   C406      1.0  0.38387  0.55908  0.00829  1.0000
  C   C407      1.0  0.30864  0.73754  0.17595  1.0000
  C   C408      1.0  0.51984  0.50256  0.09967  1.0000
  H   H327      1.0  0.50116  0.51565  0.23753  1.0000
  C   C409      1.0  0.39125  0.96425  0.28507  1.0000
  H   H328      1.0  0.63006  0.70678  0.30725  1.0000
  C   C410      1.0  0.45155  0.98107  0.47246  1.0000
  C   C411      1.0  0.30814  0.70462  0.15649  1.0000
  C   C412      1.0  0.45455  0.94575  0.48380  1.0000
  H   H329      1.0  0.43553  0.93047  0.48282  1.0000
  H   H330      1.0  0.32931  0.66111  0.98911  1.0000
  C   C413      1.0  0.30638  0.66026  0.98661  1.0000
  H   H331      1.0  0.39107  0.88836  0.65802  1.0000
  Fe  Fe24      1.0  0.59031  0.94269  0.52990  1.0000
  C   C414      1.0  0.50736  0.94962  0.49756  1.0000
  C   C415      1.0  0.40542  0.90081  0.68652  1.0000
  C   C416      1.0  0.37093  0.91617  0.57432  1.0000
  H   H332      1.0  0.33578  0.52672  0.74184  1.0000
  S   S51       1.0  0.62206  0.89786  0.54833  1.0000
  C   C417      1.0  0.36870  0.87642  0.51219  1.0000
  S   S52       1.0  0.33244  0.52496  0.90807  1.0000
  C   C418      1.0  0.30953  0.53120  0.62785  1.0000
  C   C419      1.0  0.42553  0.90295  0.76736  1.0000
  C   C420      1.0  0.51477  0.95159  0.61114  1.0000
  C   C421      1.0  0.56773  0.97466  0.71429  1.0000
  C   C422      1.0  0.41474  0.89916  0.55379  1.0000
  H   H333      1.0  0.47048  0.51550  0.93420  1.0000
  C   C423      1.0  0.44265  0.93117  0.76173  1.0000
  H   H334      1.0  0.40920  0.86425  0.49723  1.0000
  H   H335      1.0  0.45455  0.96615  0.71460  1.0000
  C   C424      1.0  0.35493  0.89505  0.54003  1.0000
  C   C425      1.0  0.39859  0.87840  0.51915  1.0000
  H   H336      1.0  0.51907  0.49204  0.97112  1.0000
  S   S53       1.0  0.34299  0.97522  0.49254  1.0000
  P   P15       1.0  0.42114  0.94661  0.62520  1.0000
  C   C426      1.0  0.40099  0.91836  0.58154  1.0000
  C   C427      1.0  0.32195  0.53402  0.70944  1.0000
  S   S54       1.0  0.54184  0.92876  0.51556  1.0000
  C   C428      1.0  0.31754  0.61931  0.52237  1.0000
  H   H337      1.0  0.35973  0.93125  0.59464  1.0000
  H   H338      1.0  0.45711  0.94284  0.79088  1.0000
  C   C429      1.0  0.40697  0.88778  0.72978  1.0000
  C   C430      1.0  0.42241  0.92933  0.68062  1.0000
  H   H339      1.0  0.33164  0.89395  0.53388  1.0000
  C   C431      1.0  0.46757  0.97823  0.59972  1.0000
  H   H340      1.0  0.40275  0.48425  0.83584  1.0000
  H   H341      1.0  0.43779  0.90061  0.55798  1.0000
  H   H342      1.0  0.52008  0.90172  0.64393  1.0000
  H   H343      1.0  0.32044  0.58369  0.57703  1.0000
  H   H344      1.0  0.53646  0.95196  0.60628  1.0000
  H   H345      1.0  0.47020  0.89975  0.65277  1.0000
  H   H346      1.0  0.42670  0.89276  0.80083  1.0000
  H   H347      1.0  0.39376  0.86581  0.73412  1.0000
  Fe  Fe25      1.0  0.36583  0.48333  0.93514  1.0000
  S   S55       1.0  0.41306  0.49686  0.93769  1.0000
  C   C432      1.0  0.45805  0.94987  0.62107  1.0000
  C   C433      1.0  0.44115  0.94429  0.71854  1.0000
  C   C434      1.0  0.50550  0.92329  0.63235  1.0000
  C   C435      1.0  0.47725  0.92235  0.63727  1.0000
  H   H348      1.0  0.60772  0.97807  0.69411  1.0000
  Fe  Fe26      1.0  0.30822  0.48393  0.86137  1.0000
  H   H349      1.0  0.57384  0.95092  0.73347  1.0000
  H   H350      1.0  0.34690  0.50659  0.67084  1.0000
  S   S56       1.0  0.61313  0.97477  0.58974  1.0000
  C   C436      1.0  0.47241  0.49338  0.95666  1.0000
  C   C437      1.0  0.30597  0.59647  0.54892  1.0000
  H   H351      1.0  0.34057  0.62363  0.52999  1.0000
  C   C438      1.0  0.48224  0.93027  0.49662  1.0000
  H   H352      1.0  0.48425  0.90309  0.50608  1.0000
  H   H353      1.0  0.31413  0.52151  0.59712  1.0000
  C   C439      1.0  0.32807  0.52261  0.66946  1.0000
  C   C440      1.0  0.49583  0.97899  0.59496  1.0000
  Fe  Fe27      1.0  0.30930  0.50578  0.95979  1.0000
  H   H354      1.0  0.35600  0.86093  0.48480  1.0000
  H   H355      1.0  0.52599  0.97791  0.72848  1.0000
  H   H356      1.0  0.38228  0.55684  0.97245  1.0000
  C   C441      1.0  0.78469  0.37532  0.13055  1.0000
  C   C442      1.0  0.85355  0.24765  0.39239  1.0000
  S   S57       1.0  0.83865  0.39662  0.42102  1.0000
  H   H357      1.0  0.69093  0.34545  0.16883  1.0000
  C   C443      1.0  0.87505  0.19037  0.39463  1.0000
  Fe  Fe28      1.0  0.80832  0.43030  0.36989  1.0000
  S   S58       1.0  0.79055  0.41523  0.29593  1.0000
  S   S59       1.0  0.78490  0.44993  0.42042  1.0000
  S   S60       1.0  0.66052  0.41114  0.17859  1.0000
  S   S61       1.0  0.66924  0.43806  0.05421  1.0000
  H   H358      1.0  0.74148  0.27162  0.05745  1.0000
  C   C444      1.0  0.75410  0.41778  0.26447  1.0000
  C   C445      1.0  0.73120  0.41379  0.28487  1.0000
  C   C446      1.0  0.70267  0.41210  0.25811  1.0000
  C   C447      1.0  0.69668  0.41519  0.21086  1.0000
  C   C448      1.0  0.71950  0.42034  0.19060  1.0000
  C   C449      1.0  0.74806  0.42129  0.21725  1.0000
  H   H359      1.0  0.84650  0.27156  0.37407  1.0000
  C   C450      1.0  0.88332  0.31776  0.46019  1.0000
  H   H360      1.0  0.71517  0.42264  0.15433  1.0000
  H   H361      1.0  0.76556  0.42462  0.20116  1.0000
  C   C451      1.0  0.69106  0.34027  0.13405  1.0000
  Fe  Fe29      1.0  0.86882  0.44249  0.43355  1.0000
  C   C452      1.0  0.75708  0.32603  0.36131  1.0000
  C   C453      1.0  0.74477  0.25158  0.99339  1.0000
  H   H362      1.0  0.83776  0.29720  0.15159  1.0000
  C   C454      1.0  0.69096  0.32795  0.04410  1.0000
  H   H363      1.0  0.64618  0.32657  0.11487  1.0000
  H   H364      1.0  0.94162  0.98578  0.99386  1.0000
  H   H365      1.0  0.79608  0.29687  0.08570  1.0000
  P   P16       1.0  0.74819  0.34700  0.05375  1.0000
  C   C455      1.0  0.71617  0.34547  0.11944  1.0000
  H   H366      1.0  0.84547  0.34682  0.20507  1.0000
  C   C456      1.0  0.77154  0.40581  0.02297  1.0000
  H   H367      1.0  0.81145  0.39659  0.19188  1.0000
  H   H368      1.0  0.76567  0.37178  0.40291  1.0000
  C   C457      1.0  0.74522  0.27807  0.02488  1.0000
  C   C458      1.0  0.77195  0.34516  0.39851  1.0000
  H   H369      1.0  0.75313  0.27660  0.32751  1.0000
  C   C459      1.0  0.87230  0.03616  0.00457  1.0000
  C   C460      1.0  0.89288  0.03337  0.04560  1.0000
  C   C461      1.0  0.80401  0.29608  0.42389  1.0000
  C   C462      1.0  0.92844  0.05898  0.01135  1.0000
  H   H370      1.0  0.73509  0.35431  0.14383  1.0000
  C   C463      1.0  0.66583  0.32944  0.10369  1.0000
  H   H371      1.0  0.80613  0.34531  0.45873  1.0000
  C   C464      1.0  0.71633  0.33944  0.07417  1.0000
  C   C465      1.0  0.77969  0.34694  0.10072  1.0000
  H   H372      1.0  0.97092  0.40429  0.42371  1.0000
  H   H373      1.0  0.73552  0.41088  0.32110  1.0000
  H   H374      1.0  0.76982  0.39711  0.12547  1.0000
  C   C466      1.0  0.95113  0.44313  0.45717  1.0000
  C   C467      1.0  0.71946  0.40366  0.00515  1.0000
  H   H375      1.0  0.86783  0.22487  0.33733  1.0000
  C   C468      1.0  0.82292  0.31901  0.14566  1.0000
  C   C469      1.0  0.82736  0.34701  0.17570  1.0000
  C   C470      1.0  0.79916  0.31890  0.10830  1.0000
  S   S62       1.0  0.91540  0.42871  0.43118  1.0000
  C   C471      1.0  0.80826  0.37516  0.16812  1.0000
  H   H376      1.0  0.73940  0.33796  0.33666  1.0000
  H   H377      1.0  0.95041  0.06733  0.01509  1.0000
  H   H378      1.0  0.68514  0.40817  0.27407  1.0000
  H   H379      1.0  0.88446  0.16995  0.37841  1.0000
  C   C472      1.0  0.86567  0.22128  0.37148  1.0000
  H   H380      1.0  0.93700  0.45142  0.35310  1.0000
  C   C473      1.0  0.92103  0.04449  0.04889  1.0000
  C   C474      1.0  0.66582  0.32312  0.05877  1.0000
  H   H381      1.0  0.84423  0.44627  0.27893  1.0000
  C   C475      1.0  0.76497  0.29155  0.35604  1.0000
  C   C476      1.0  0.78821  0.27649  0.38737  1.0000
  H   H382      1.0  0.93713  0.04188  0.08054  1.0000
  H   H383      1.0  0.85040  0.02773  0.00211  1.0000
  C   C477      1.0  0.84464  0.47405  0.27287  1.0000
  C   C478      1.0  0.77011  0.43795  0.00095  1.0000
  H   H384      1.0  0.88697  0.02232  0.07466  1.0000
  H   H385      1.0  0.78110  0.46030  0.09427  1.0000
  Fe  Fe30      1.0  0.81743  0.41953  0.47288  1.0000
  H   H386      1.0  0.79377  0.24966  0.38294  1.0000
  C   C479      1.0  0.85068  0.24329  0.43669  1.0000
  H   H387      1.0  0.64612  0.31539  0.03485  1.0000
  C   C480      1.0  0.74617  0.38868  0.02579  1.0000
  H   H388      1.0  0.69959  0.39046  0.00540  1.0000
  C   C481      1.0  0.79513  0.33015  0.42989  1.0000
  Fe  Fe31      1.0  0.64357  0.42598  0.10443  1.0000
  H   H389      1.0  0.79241  0.39421  0.03746  1.0000
  H   H390      1.0  0.88538  0.30217  0.43186  1.0000
  C   C482      1.0  0.74980  0.31276  0.01397  1.0000
  H   H391      1.0  0.79982  0.47628  0.23935  1.0000
  S   S63       1.0  0.83972  0.47467  0.37910  1.0000
  H   H392      1.0  0.73142  0.03386  0.45641  1.0000
  P   P17       1.0  0.83499  0.27759  0.46339  1.0000
  C   C483      1.0  0.97008  0.47820  0.32991  1.0000
  C   C484      1.0  0.87235  0.18583  0.43874  1.0000
  H   H393      1.0  0.69034  0.32339  0.00892  1.0000
  H   H394      1.0  0.91906  0.35063  0.45591  1.0000
  H   H395      1.0  0.72788  0.45794  0.07424  1.0000
  H   H396      1.0  0.74082  0.22492  0.00168  1.0000
  C   C485      1.0  0.90264  0.34518  0.47382  1.0000
  H   H397      1.0  0.87968  0.16188  0.45670  1.0000
  C   C486      1.0  0.86024  0.21216  0.45977  1.0000
  C   C487      1.0  0.76899  0.47631  0.11211  1.0000
  H   H398      1.0  0.78971  0.45107  0.99884  1.0000
  C   C488      1.0  0.73897  0.47497  0.10084  1.0000
  C   C489      1.0  0.94819  0.47585  0.35258  1.0000
  H   H399      1.0  0.77930  0.25248  0.47531  1.0000
  C   C490      1.0  0.86146  0.31138  0.48250  1.0000
  H   H400      1.0  0.88901  0.47950  0.30825  1.0000
  H   H401      1.0  0.86613  0.26436  0.55728  1.0000
  S   S64       1.0  0.80138  0.03545  0.92768  1.0000
  Fe  Fe32      1.0  0.76031  0.20193  0.76751  1.0000
  S   S65       1.0  0.71979  0.20770  0.79154  1.0000
  S   S66       1.0  0.79843  0.16559  0.79623  1.0000
  Fe  Fe33      1.0  0.73861  0.25181  0.68565  1.0000
  S   S67       1.0  0.69606  0.25949  0.70384  1.0000
  S   S68       1.0  0.74449  0.27215  0.61723  1.0000
  Fe  Fe34      1.0  0.72190  0.26509  0.77605  1.0000
  S   S69       1.0  0.71693  0.31379  0.81806  1.0000
  Fe  Fe35      1.0  0.69729  0.20175  0.71768  1.0000
  H   H402      1.0  0.72109  0.38587  0.57153  1.0000
  S   S70       1.0  0.76469  0.25975  0.75695  1.0000
  S   S71       1.0  0.73759  0.19357  0.69480  1.0000
  S   S72       1.0  0.81036  0.39375  0.53785  1.0000
  C   C491      1.0  0.75253  0.04400  0.58707  1.0000
  C   C492      1.0  0.70320  0.07433  0.71952  1.0000
  H   H403      1.0  0.74799  0.11692  0.60182  1.0000
  C   C493      1.0  0.73392  0.43056  0.61511  1.0000
  C   C494      1.0  0.66305  0.35112  0.91681  1.0000
  C   C495      1.0  0.68119  0.37381  0.90097  1.0000
  C   C496      1.0  0.69747  0.36183  0.87112  1.0000
  C   C497      1.0  0.69564  0.32710  0.85591  1.0000
  C   C498      1.0  0.67746  0.30438  0.87161  1.0000
  H   H404      1.0  0.78561  0.41544  0.67247  1.0000
  C   C499      1.0  0.72470  0.07727  0.69608  1.0000
  H   H405      1.0  0.71133  0.37977  0.85926  1.0000
  H   H406      1.0  0.67581  0.27759  0.86059  1.0000
  C   C500      1.0  0.64223  0.07642  0.61956  1.0000
  C   C501      1.0  0.76241  0.30707  0.59640  1.0000
  C   C502      1.0  0.78378  0.32724  0.62443  1.0000
  C   C503      1.0  0.79806  0.35352  0.60586  1.0000
  C   C504      1.0  0.79124  0.36020  0.55906  1.0000
  C   C505      1.0  0.76956  0.34033  0.53114  1.0000
  C   C506      1.0  0.75530  0.31407  0.54969  1.0000
  H   H407      1.0  0.78957  0.32229  0.66035  1.0000
  H   H408      1.0  0.81469  0.36868  0.62793  1.0000
  C   C507      1.0  0.89926  0.12355  0.90789  1.0000
  H   H409      1.0  0.73871  0.29888  0.52756  1.0000
  C   C508      1.0  0.79869  0.06937  0.88697  1.0000
  C   C509      1.0  0.81609  0.07034  0.85627  1.0000
  C   C510      1.0  0.81516  0.09947  0.82771  1.0000
  C   C511      1.0  0.79628  0.12749  0.82847  1.0000
  C   C512      1.0  0.77817  0.12590  0.85795  1.0000
  C   C513      1.0  0.77967  0.09726  0.88738  1.0000
  H   H410      1.0  0.83086  0.04917  0.85545  1.0000
  H   H411      1.0  0.82936  0.10051  0.80528  1.0000
  H   H412      1.0  0.76371  0.14733  0.85926  1.0000
  H   H413      1.0  0.76614  0.09686  0.91094  1.0000
  C   C514      1.0  0.65722  0.08144  0.58629  1.0000
  C   C515      1.0  0.74812  0.46279  0.61919  1.0000
  H   H414      1.0  0.72346  0.33897  0.63973  1.0000
  H   H415      1.0  0.77954  0.05711  0.49496  1.0000
  C   C516      1.0  0.80617  0.23648  0.58693  1.0000
  H   H416      1.0  0.84206  0.32960  0.53522  1.0000
  C   C517      1.0  0.83490  0.24556  0.59112  1.0000
  C   C518      1.0  0.90779  0.06193  0.96984  1.0000
  C   C519      1.0  0.64318  0.10182  0.65302  1.0000
  C   C520      1.0  0.75291  0.39098  0.70016  1.0000
  C   C521      1.0  0.74826  0.36715  0.73249  1.0000
  C   C522      1.0  0.77160  0.35121  0.76242  1.0000
  C   C523      1.0  0.79970  0.35810  0.75958  1.0000
  C   C524      1.0  0.80452  0.38135  0.72710  1.0000
  H   H417      1.0  0.90486  0.19757  0.84872  1.0000
  H   H418      1.0  0.76780  0.33330  0.78770  1.0000
  H   H419      1.0  0.81767  0.34519  0.78236  1.0000
  C   C525      1.0  0.73748  0.03656  0.49280  1.0000
  H   H420      1.0  0.75183  0.47739  0.65033  1.0000
  H   H421      1.0  0.86377  0.05031  0.93472  1.0000
  C   C526      1.0  0.87846  0.36063  0.53169  1.0000
  H   H422      1.0  0.72138  0.42207  0.75807  1.0000
  S   S73       1.0  0.64175  0.36463  0.95463  1.0000
  H   H423      1.0  0.76405  0.23182  0.54209  1.0000
  H   H424      1.0  0.72661  0.36092  0.73490  1.0000
  C   C527      1.0  0.78691  0.01690  0.67520  1.0000
  C   C528      1.0  0.76706  0.12058  0.62912  1.0000
  H   H425      1.0  0.76331  0.46678  0.51626  1.0000
  C   C529      1.0  0.86915  0.18523  0.87684  1.0000
  C   C530      1.0  0.70120  0.34704  0.63395  1.0000
  C   C531      1.0  0.90449  0.05388  0.87278  1.0000
  C   C532      1.0  0.88965  0.06763  0.83076  1.0000
  P   P18       1.0  0.76234  0.05037  0.64748  1.0000
  C   C533      1.0  0.91105  0.14824  0.88365  1.0000
  H   H426      1.0  0.67162  0.04093  0.73699  1.0000
  H   H427      1.0  0.91464  0.38854  0.51894  1.0000
  H   H428      1.0  0.78099  0.02879  0.74166  1.0000
  C   C534      1.0  0.72549  0.03088  0.56495  1.0000
  C   C535      1.0  0.81456  0.13182  0.70171  1.0000
  C   C536      1.0  0.74082  0.42487  0.53934  1.0000
  H   H429      1.0  0.74788  0.23917  0.92595  1.0000
  C   C537      1.0  0.79155  0.01216  0.72197  1.0000
  C   C538      1.0  0.65991  0.13198  0.65455  1.0000
  Fe  Fe36      1.0  0.63940  0.99584  0.54430  1.0000
  H   H430      1.0  0.85690  0.20832  0.86350  1.0000
  H   H431      1.0  0.73892  0.40971  0.50892  1.0000
  H   H432      1.0  0.86210  0.11175  0.93415  1.0000
  C   C539      1.0  0.71804  0.02719  0.51802  1.0000
  H   H433      1.0  0.69764  0.09667  0.73731  1.0000
  C   C540      1.0  0.73204  0.04853  0.67277  1.0000
  H   H434      1.0  0.95484  0.13568  0.96974  1.0000
  H   H435      1.0  0.70977  0.02415  0.58346  1.0000
  H   H436      1.0  0.82628  0.38638  0.72442  1.0000
  H   H437      1.0  0.68225  0.40076  0.91094  1.0000
  C   C541      1.0  0.90958  0.01794  0.87677  1.0000
  C   C542      1.0  0.66137  0.31633  0.90180  1.0000
  H   H438      1.0  0.76929  0.17532  0.61564  1.0000
  C   C543      1.0  0.70883  0.44671  0.69217  1.0000
  H   H439      1.0  0.76353  0.34532  0.49529  1.0000
  C   C544      1.0  0.69453  0.47551  0.66824  1.0000
  C   C545      1.0  0.85919  0.33318  0.51827  1.0000
  C   C546      1.0  0.89607  0.17899  0.86833  1.0000
  C   C547      1.0  0.80271  0.09854  0.69391  1.0000
  C   C548      1.0  0.87988  0.04940  0.96652  1.0000
  C   C549      1.0  0.68851  0.04296  0.71928  1.0000
  H   H440      1.0  0.73562  0.10195  0.69690  1.0000
  C   C550      1.0  0.69956  0.47024  0.76104  1.0000
  H   H441      1.0  0.88467  0.09505  0.82652  1.0000
  C   C551      1.0  0.75833  0.47600  0.58343  1.0000
  H   H442      1.0  0.87592  0.37789  0.55844  1.0000
  C   C552      1.0  0.88640  0.01017  0.79759  1.0000
  C   C553      1.0  0.66514  0.39110  0.63495  1.0000
  C   C554      1.0  0.82387  0.26021  0.51132  1.0000
  C   C555      1.0  0.64341  0.36672  0.61887  1.0000
  C   C556      1.0  0.75338  0.29394  0.93970  1.0000
  C   C557      1.0  0.76453  0.04961  0.51455  1.0000
  H   H443      1.0  0.86853  0.05641  0.76148  1.0000
  P   P19       1.0  0.72268  0.41254  0.66267  1.0000
  P   P20       1.0  0.91679  0.08172  0.92137  1.0000
  H   H444      1.0  0.64742  0.29842  0.91354  1.0000
  H   H445      1.0  0.83616  0.16544  0.90670  1.0000
  C   C558      1.0  0.74337  0.45318  0.98163  1.0000
  H   H446      1.0  0.93129  0.14313  0.87509  1.0000
  H   H447      1.0  0.70123  0.46795  0.79692  1.0000
  C   C559      1.0  0.78126  0.39785  0.69759  1.0000
  S   S74       1.0  0.66005  0.16355  0.69698  1.0000
  H   H448      1.0  0.75589  0.30013  0.90629  1.0000
  H   H449      1.0  0.81122  0.18542  0.68070  1.0000
  C   C560      1.0  0.65057  0.33261  0.61005  1.0000
  C   C561      1.0  0.77891  0.09267  0.65741  1.0000
  C   C562      1.0  0.79518  0.25022  0.50720  1.0000
  C   C563      1.0  0.71748  0.01692  0.67338  1.0000
  H   H450      1.0  0.65908  0.41736  0.64131  1.0000
  H   H451      1.0  0.81170  0.07791  0.71719  1.0000
  C   C564      1.0  0.77914  0.15373  0.63679  1.0000
  C   C565      1.0  0.67398  0.11156  0.58770  1.0000
  C   C566      1.0  0.69426  0.38136  0.64273  1.0000
  C   C567      1.0  0.69556  0.01432  0.69605  1.0000
  C   C568      1.0  0.73073  0.41145  0.57508  1.0000
  H   H452      1.0  0.75646  0.34702  0.96089  1.0000
  C   C569      1.0  0.75469  0.45703  0.54353  1.0000
  H   H453      1.0  0.81204  0.98124  0.77951  1.0000
  H   H454      1.0  0.79887  0.22910  0.61644  1.0000
  C   C570      1.0  0.74878  0.25953  0.95076  1.0000
  C   C571      1.0  0.67562  0.13653  0.62198  1.0000
  C   C572      1.0  0.95550  0.08699  0.93443  1.0000
  C   C573      1.0  0.80274  0.15941  0.67330  1.0000
  C   C574      1.0  0.88045  0.04578  0.79349  1.0000
  C   C575      1.0  0.85745  0.16106  0.90132  1.0000
  H   H455      1.0  0.87926  0.99318  0.76882  1.0000
  C   C576      1.0  0.84383  0.25709  0.55339  1.0000
  H   H456      1.0  0.85008  0.24444  0.62385  1.0000
  C   C577      1.0  0.87236  0.13036  0.91680  1.0000
  H   H457      1.0  0.69687  0.01748  0.50117  1.0000
  C   C578      1.0  0.67945  0.32288  0.61734  1.0000
  H   H458      1.0  0.68511  0.29646  0.61042  1.0000
  H   H459      1.0  0.92011  0.00655  0.90900  1.0000
  H   H460      1.0  0.68562  0.11569  0.56201  1.0000
  Fe  Fe37      1.0  0.82108  0.98153  0.92455  1.0000
  H   H461      1.0  0.83209  0.13662  0.73104  1.0000
  C   C579      1.0  0.78646  0.23822  0.54489  1.0000
  H   H462      1.0  0.79300  0.06369  0.57790  1.0000
  H   H463      1.0  0.68847  0.15967  0.62252  1.0000
  C   C580      1.0  0.77206  0.05328  0.56150  1.0000
  S   S75       1.0  0.65383  0.05194  0.54081  1.0000
  C   C581      1.0  0.90018  0.36665  0.50946  1.0000
  H   H464      1.0  0.72330  0.99412  0.65679  1.0000
  C   C582      1.0  0.71107  0.44419  0.73875  1.0000
  C   C583      1.0  0.95654  0.47157  0.48642  1.0000
  H   H465      1.0  0.85842  0.20806  0.49394  1.0000
  C   C584      1.0  0.90115  0.99634  0.83912  1.0000
  H   H466      1.0  0.79659  0.99675  0.61442  1.0000
  C   C585      1.0  0.80027  0.99423  0.65056  1.0000
  H   H467      1.0  0.68424  0.98996  0.69596  1.0000
  C   C586      1.0  0.96817  0.11550  0.96060  1.0000
  H   H468      1.0  0.96442  0.03730  0.90684  1.0000
  S   S76       1.0  0.84930  0.46395  0.48795  1.0000
  C   C587      1.0  0.80936  0.98535  0.74370  1.0000
  H   H469      1.0  0.69729  0.44765  0.96848  1.0000
  C   C588      1.0  0.75377  0.32052  0.97100  1.0000
  C   C589      1.0  0.71809  0.43598  0.98363  1.0000
  H   H470      1.0  0.74216  0.47821  0.96490  1.0000
  H   H471      1.0  0.69187  0.47765  0.63213  1.0000
  Fe  Fe38      1.0  0.74749  0.76557  0.20446  1.0000
  S   S77       1.0  0.70193  0.75502  0.21058  1.0000
  S   S78       1.0  0.75392  0.81180  0.15910  1.0000
  Fe  Fe39      1.0  0.77212  0.70853  0.27414  1.0000
  S   S79       1.0  0.72888  0.69580  0.28461  1.0000
  S   S80       1.0  0.81123  0.67516  0.30752  1.0000
  Fe  Fe40      1.0  0.71360  0.69815  0.20908  1.0000
  S   S81       1.0  0.68315  0.65313  0.18204  1.0000
  Fe  Fe41      1.0  0.72062  0.75362  0.28601  1.0000
  S   S82       1.0  0.69544  0.76957  0.33877  1.0000
  S   S83       1.0  0.75744  0.70853  0.19801  1.0000
  S   S84       1.0  0.76570  0.76653  0.28053  1.0000
  H   H472      1.0  0.77294  0.66155  0.36642  1.0000
  H   H473      1.0  0.97020  0.67149  0.32518  1.0000
  C   C590      1.0  0.72005  0.79687  0.01404  1.0000
  H   H474      1.0  0.73479  0.81703  0.03009  1.0000
  S   S85       1.0  0.80076  0.54741  0.43629  1.0000
  S   S86       1.0  0.65913  0.53765  0.02890  1.0000
  C   C591      1.0  0.91769  0.84590  0.04293  1.0000
  C   C592      1.0  0.77307  0.82480  0.11818  1.0000
  C   C593      1.0  0.77069  0.85954  0.10273  1.0000
  C   C594      1.0  0.78491  0.87116  0.06997  1.0000
  C   C595      1.0  0.80148  0.84811  0.05138  1.0000
  C   C596      1.0  0.80390  0.81335  0.06683  1.0000
  C   C597      1.0  0.78987  0.80175  0.09990  1.0000
  H   H475      1.0  0.75786  0.87774  0.11647  1.0000
  H   H476      1.0  0.78333  0.89809  0.05960  1.0000
  H   H477      1.0  0.81676  0.79520  0.05310  1.0000
  H   H478      1.0  0.79196  0.77498  0.11114  1.0000
  C   C598      1.0  0.68971  0.80703  0.37068  1.0000
  C   C599      1.0  0.67072  0.80442  0.39923  1.0000
  C   C600      1.0  0.66537  0.83307  0.42513  1.0000
  H   H479      1.0  0.67519  0.48329  0.20567  1.0000
  C   C601      1.0  0.70355  0.83888  0.36893  1.0000
  C   C602      1.0  0.72095  0.93459  0.01343  1.0000
  C   C603      1.0  0.69843  0.87917  0.98950  1.0000
  C   C604      1.0  0.68327  0.61966  0.14202  1.0000
  C   C605      1.0  0.68669  0.62681  0.09876  1.0000
  C   C606      1.0  0.68012  0.60112  0.06478  1.0000
  C   C607      1.0  0.67006  0.56812  0.07364  1.0000
  H   H480      1.0  0.69285  0.65265  0.09083  1.0000
  H   H481      1.0  0.68187  0.60726  0.03105  1.0000
  C   C608      1.0  0.80674  0.63864  0.34091  1.0000
  C   C609      1.0  0.82467  0.60929  0.34296  1.0000
  C   C610      1.0  0.82240  0.58061  0.37066  1.0000
  C   C611      1.0  0.80298  0.58161  0.39814  1.0000
  C   C612      1.0  0.78519  0.61099  0.39627  1.0000
  C   C613      1.0  0.78669  0.63908  0.36727  1.0000
  H   H482      1.0  0.84031  0.60864  0.32292  1.0000
  H   H483      1.0  0.83595  0.55802  0.37127  1.0000
  H   H484      1.0  0.77007  0.61203  0.41730  1.0000
  C   C614      1.0  0.80985  0.64861  0.19201  1.0000
  C   C615      1.0  0.80615  0.65043  0.14534  1.0000
  C   C616      1.0  0.79671  0.62121  0.11873  1.0000
  C   C617      1.0  0.79100  0.59015  0.13880  1.0000
  C   C618      1.0  0.79449  0.58824  0.18575  1.0000
  C   C619      1.0  0.80373  0.61780  0.21201  1.0000
  P   P21       1.0  0.78675  0.54870  0.21257  1.0000
  C   C620      1.0  0.76448  0.55898  0.25060  1.0000
  C   C621      1.0  0.76777  0.51933  0.16968  1.0000
  C   C622      1.0  0.73758  0.51787  0.15816  1.0000
  C   C623      1.0  0.72328  0.49576  0.12372  1.0000
  H   H485      1.0  0.76331  0.81234  0.42020  1.0000
  H   H486      1.0  0.80664  0.49988  0.15395  1.0000
  C   C624      1.0  0.67375  0.52591  0.30234  1.0000
  C   C625      1.0  0.76634  0.53908  0.28978  1.0000
  C   C626      1.0  0.74984  0.54802  0.31995  1.0000
  C   C627      1.0  0.73139  0.57678  0.31124  1.0000
  C   C628      1.0  0.72884  0.59609  0.27177  1.0000
  C   C629      1.0  0.74521  0.58723  0.24143  1.0000
  C   C630      1.0  0.81945  0.52731  0.24317  1.0000
  H   H487      1.0  0.97035  0.64496  0.42621  1.0000
  C   C631      1.0  0.69431  0.74384  0.02068  1.0000
  C   C632      1.0  0.92678  0.60413  0.37141  1.0000
  C   C633      1.0  0.86999  0.52889  0.28346  1.0000
  C   C634      1.0  0.84493  0.54609  0.26008  1.0000
  H   H488      1.0  0.81661  0.67140  0.21273  1.0000
  H   H489      1.0  0.81010  0.67469  0.12982  1.0000
  H   H490      1.0  0.79336  0.62279  0.08245  1.0000
  H   H491      1.0  0.78331  0.56811  0.11736  1.0000
  H   H492      1.0  0.80567  0.61716  0.24794  1.0000
  H   H493      1.0  0.72500  0.53395  0.17523  1.0000
  H   H494      1.0  0.68897  0.72324  0.04147  1.0000
  C   C635      1.0  0.69927  0.91033  0.01335  1.0000
  H   H495      1.0  0.91258  0.89622  0.01078  1.0000
  H   H496      1.0  0.68324  0.91556  0.03204  1.0000
  H   H497      1.0  0.78084  0.51706  0.29774  1.0000
  H   H498      1.0  0.75212  0.53328  0.35089  1.0000
  H   H499      1.0  0.71935  0.58438  0.33535  1.0000
  H   H500      1.0  0.71452  0.61836  0.26493  1.0000
  H   H501      1.0  0.74295  0.60275  0.21113  1.0000
  C   C636      1.0  0.92464  0.60361  0.32477  1.0000
  H   H502      1.0  0.87410  0.66730  0.29114  1.0000
  H   H503      1.0  0.84552  0.57395  0.25580  1.0000
  H   H504      1.0  0.65820  0.61735  0.24630  1.0000
  C   C637      1.0  0.74735  0.76816  0.44954  1.0000
  C   C638      1.0  0.92911  0.56012  0.44930  1.0000
  C   C639      1.0  0.93721  0.82174  0.06781  1.0000
  H   H505      1.0  0.65989  0.78003  0.40110  1.0000
  H   H506      1.0  0.68515  0.52699  0.33762  1.0000
  H   H507      1.0  0.87815  0.66906  0.37307  1.0000
  C   C640      1.0  0.90593  0.62655  0.29594  1.0000
  H   H508      1.0  0.89478  0.84024  0.03340  1.0000
  H   H509      1.0  0.66054  0.53525  0.12472  1.0000
  C   C641      1.0  0.81944  0.49122  0.25043  1.0000
  H   H510      1.0  0.65049  0.83052  0.44636  1.0000
  H   H511      1.0  0.93668  0.58495  0.31034  1.0000
  C   C642      1.0  0.67921  0.86492  0.42338  1.0000
  C   C643      1.0  0.78336  0.49860  0.14616  1.0000
  C   C644      1.0  0.94127  0.50452  0.37605  1.0000
  H   H512      1.0  0.71820  0.84154  0.34733  1.0000
  Fe  Fe42      1.0  0.81801  0.49262  0.43195  1.0000
  H   H513      1.0  0.86104  0.53774  0.45342  1.0000
  H   H514      1.0  0.96444  0.90990  0.03295  1.0000
  C   C645      1.0  0.69845  0.86742  0.39524  1.0000
  H   H515      1.0  0.72232  0.77026  0.07684  1.0000
  C   C646      1.0  0.95640  0.53583  0.37714  1.0000
  H   H516      1.0  0.88941  0.54346  0.29726  1.0000
  H   H517      1.0  0.72175  0.95866  0.03208  1.0000
  H   H518      1.0  0.74430  0.75261  0.41914  1.0000
  H   H519      1.0  0.70934  0.89178  0.39343  1.0000
  H   H520      1.0  0.88920  0.55211  0.39860  1.0000
  H   H521      1.0  0.68141  0.86069  0.98955  1.0000
  C   C647      1.0  0.71310  0.77026  0.04063  1.0000
  H   H522      1.0  0.66851  0.67408  0.28405  1.0000
  C   C648      1.0  0.91044  0.62852  0.38877  1.0000
  C   C649      1.0  0.95708  0.88517  0.04280  1.0000
  H   H523      1.0  0.90375  0.62555  0.25985  1.0000
  H   H524      1.0  0.91145  0.62930  0.42455  1.0000
  C   C650      1.0  0.86986  0.49287  0.28957  1.0000
  H   H525      1.0  0.70151  0.48620  0.28619  1.0000
  C   C651      1.0  0.88933  0.65021  0.31345  1.0000
  H   H526      1.0  0.92467  0.50156  0.39416  1.0000
  C   C652      1.0  0.66818  0.50121  0.22811  1.0000
  H   H527      1.0  0.92937  0.79727  0.07762  1.0000
  H   H528      1.0  0.67196  0.58038  0.18461  1.0000
  C   C653      1.0  0.64706  0.66317  0.27812  1.0000
  C   C654      1.0  0.89169  0.65128  0.35983  1.0000
  C   C655      1.0  0.75816  0.80190  0.45020  1.0000
  C   C656      1.0  0.89976  0.55197  0.43426  1.0000
  S   S87       1.0  0.81988  0.86108  0.00942  1.0000
  P   P22       1.0  0.94904  0.57292  0.40890  1.0000
  C   C657      1.0  0.74190  0.92758  0.98995  1.0000
  C   C658      1.0  0.67468  0.58610  0.15135  1.0000
  C   C659      1.0  0.66804  0.56053  0.11743  1.0000
  C   C660      1.0  0.92767  0.87755  0.03036  1.0000
  C   C661      1.0  0.68296  0.50285  0.27349  1.0000
  C   C662      1.0  0.64432  0.52263  0.21144  1.0000
  S   S88       1.0  0.67359  0.90230  0.45546  1.0000
  C   C663      1.0  0.88368  0.54381  0.46522  1.0000
  H   H529      1.0  0.64367  0.56601  0.30827  1.0000
  H   H530      1.0  0.69995  0.49493  0.11458  1.0000
  Fe  Fe43      1.0  0.63972  0.48456  0.03738  1.0000
  C   C664      1.0  0.64110  0.63102  0.25665  1.0000
  C   C665      1.0  0.96673  0.82923  0.08018  1.0000
  C   C666      1.0  0.65026  0.54799  0.28552  1.0000
  H   H531      1.0  0.75900  0.94612  0.99050  1.0000
  H   H532      1.0  0.67675  0.51909  0.75444  1.0000
  S   S89       1.0  0.66304  0.91651  0.67889  1.0000
  Fe  Fe44      1.0  0.81509  0.92174  0.85914  1.0000
  S   S90       1.0  0.79061  0.93593  0.91015  1.0000
  S   S91       1.0  0.79534  0.90581  0.78603  1.0000
  H   H533      1.0  0.64531  0.83276  0.61667  1.0000
  C   C667      1.0  0.74321  0.93745  0.53149  1.0000
  H   H534      1.0  0.81642  0.93596  0.55687  1.0000
  S   S92       1.0  0.84737  0.88932  0.90863  1.0000
  H   H535      1.0  0.78294  0.87125  0.65966  1.0000
  C   C668      1.0  0.70008  0.91714  0.70836  1.0000
  C   C669      1.0  0.70755  0.91406  0.75566  1.0000
  C   C670      1.0  0.73665  0.91245  0.78012  1.0000
  C   C671      1.0  0.75867  0.91332  0.75743  1.0000
  C   C672      1.0  0.75121  0.91747  0.71025  1.0000
  C   C673      1.0  0.72212  0.91949  0.68582  1.0000
  H   H536      1.0  0.69075  0.91273  0.77353  1.0000
  H   H537      1.0  0.74200  0.90967  0.81639  1.0000
  H   H538      1.0  0.76802  0.91922  0.69249  1.0000
  H   H539      1.0  0.71677  0.92206  0.64948  1.0000
  H   H540      1.0  0.83554  0.94136  0.73610  1.0000
  C   C674      1.0  0.77135  0.94918  0.53616  1.0000
  C   C675      1.0  0.75349  0.80948  0.52698  1.0000
  H   H541      1.0  0.82004  0.85282  0.72671  1.0000
  S   S93       1.0  0.92277  0.92994  0.92662  1.0000
  C   C676      1.0  0.66627  0.83241  0.60916  1.0000
  H   H542      1.0  0.67454  0.88666  0.89576  1.0000
  H   H543      1.0  0.73581  0.76521  0.55469  1.0000
  C   C677      1.0  0.78967  0.89309  0.56660  1.0000
  C   C678      1.0  0.78605  0.83286  0.87596  1.0000
  C   C679      1.0  0.73823  0.90372  0.54466  1.0000
  H   H544      1.0  0.76961  0.50062  0.58683  1.0000
  H   H545      1.0  0.88405  0.53710  0.53516  1.0000
  C   C680      1.0  0.76140  0.88125  0.56218  1.0000
  C   C681      1.0  0.82254  0.96283  0.71907  1.0000
  S   S94       1.0  0.84401  0.96853  0.87124  1.0000
  H   H546      1.0  0.75842  0.89055  0.95044  1.0000
  Fe  Fe45      1.0  0.82462  0.90638  0.96161  1.0000
  H   H547      1.0  0.72503  0.95408  0.51669  1.0000
  H   H548      1.0  0.82602  0.80452  0.89546  1.0000
  C   C682      1.0  0.68570  0.49898  0.73708  1.0000
  H   H549      1.0  0.77505  0.97522  0.52545  1.0000
  H   H550      1.0  0.71622  0.89512  0.54011  1.0000
  C   C683      1.0  0.68930  0.77080  0.94732  1.0000
  H   H551      1.0  0.64915  0.82515  0.53769  1.0000
  C   C684      1.0  0.94202  0.56022  0.49585  1.0000
  C   C685      1.0  0.79780  0.79215  0.93827  1.0000
  H   H552      1.0  0.68930  0.84203  0.67787  1.0000
  C   C686      1.0  0.79461  0.92705  0.55385  1.0000
  C   C687      1.0  0.69108  0.83754  0.64368  1.0000
  C   C688      1.0  0.71808  0.83833  0.63395  1.0000
  C   C689      1.0  0.72047  0.83387  0.58943  1.0000
  C   C690      1.0  0.69533  0.82935  0.55481  1.0000
  C   C691      1.0  0.75965  0.83988  0.88585  1.0000
  Fe  Fe46      1.0  0.87466  0.93748  0.92524  1.0000
  C   C692      1.0  0.82632  0.80245  0.69946  1.0000
  C   C693      1.0  0.69222  0.81374  0.84491  1.0000
  C   C694      1.0  0.81369  0.83535  0.69813  1.0000
  Fe  Fe47      1.0  0.64655  0.93214  0.60476  1.0000
  C   C695      1.0  0.81772  0.77992  0.66277  1.0000
  C   C696      1.0  0.79627  0.79011  0.62488  1.0000
  H   H553      1.0  0.80785  0.87590  0.57911  1.0000
  C   C697      1.0  0.75203  0.82299  0.92201  1.0000
  H   H554      1.0  0.67605  0.80181  0.77434  1.0000
  H   H555      1.0  0.93596  0.55152  0.56254  1.0000
  C   C698      1.0  0.78330  0.82304  0.62348  1.0000
  H   H556      1.0  0.67981  0.77059  0.91140  1.0000
  C   C699      1.0  0.89667  0.54364  0.51138  1.0000
  C   C700      1.0  0.69215  0.83759  0.87966  1.0000
  C   C701      1.0  0.79250  0.84570  0.66015  1.0000
  C   C702      1.0  0.67530  0.81980  0.80125  1.0000
  H   H557      1.0  0.73677  0.84309  0.66127  1.0000
  H   H558      1.0  0.82759  0.75444  0.66376  1.0000
  C   C703      1.0  0.66842  0.82821  0.56475  1.0000
  C   C704      1.0  0.81804  0.96729  0.67251  1.0000
  C   C705      1.0  0.92584  0.55186  0.52672  1.0000
  P   P23       1.0  0.75498  0.83676  0.57565  1.0000
  H   H559      1.0  0.82782  0.94937  0.65337  1.0000
  P   P24       1.0  0.71760  0.83225  0.93382  1.0000
  C   C706      1.0  0.80518  0.80911  0.90228  1.0000
  H   H560      1.0  0.78999  0.77222  0.59699  1.0000
  C   C707      1.0  0.95696  0.94881  0.95248  1.0000
  C   C708      1.0  0.77134  0.79904  0.94819  1.0000
  H   H561      1.0  0.84271  0.79443  0.72898  1.0000
  H   H562      1.0  0.79191  0.84646  0.84845  1.0000
  Fe  Fe48      1.0  0.64776  0.92372  0.50454  1.0000
  H   H563      1.0  0.74537  0.85888  0.86559  1.0000
  C   C709      1.0  0.67458  0.86736  0.87010  1.0000
  H   H564      1.0  0.70617  0.79109  0.85124  1.0000
  S   S95       1.0  0.67401  0.95515  0.56273  1.0000
  H   H565      1.0  0.69638  0.82746  0.51990  1.0000
  H   H566      1.0  0.90539  0.96861  0.84257  1.0000
  C   C710      1.0  0.65817  0.84968  0.79193  1.0000
  C   C711      1.0  0.68316  0.50160  0.69069  1.0000
  H   H567      1.0  0.67221  0.52376  0.67204  1.0000
  S   S96       1.0  0.85352  0.95324  0.98046  1.0000
  C   C712      1.0  0.74258  0.77551  0.52598  1.0000
  C   C713      1.0  0.74141  0.89613  0.96685  1.0000
  H   H568      1.0  0.96454  0.56651  0.50864  1.0000
  H   H569      1.0  0.81303  0.77465  0.95960  1.0000
  H   H570      1.0  0.64583  0.85501  0.75775  1.0000
  C   C714      1.0  0.71961  0.87181  0.96620  1.0000
  H   H571      1.0  0.76871  0.84898  0.48764  1.0000
  C   C715      1.0  0.65764  0.87328  0.82641  1.0000
  H   H572      1.0  0.76650  0.78631  0.97696  1.0000
  C   C716      1.0  0.76116  0.82258  0.48865  1.0000
  H   H573      1.0  0.73068  0.72902  0.48635  1.0000
  C   C717      1.0  0.70821  0.79740  0.96720  1.0000
  H   H574      1.0  0.66786  0.72356  0.95870  1.0000
  C   C718      1.0  0.73959  0.75495  0.48741  1.0000
  C   C719      1.0  0.96032  0.97565  0.98424  1.0000
  H   H575      1.0  0.93871  0.48452  0.49536  1.0000
  C   C720      1.0  0.68243  0.74409  0.97405  1.0000
  H   H576      1.0  0.64479  0.89677  0.81891  1.0000
