data_image0
_chemical_formula_structural       CH4CHCHCHC2H2C3H3C4HC4H2PC5HSCHC4HC2HCH2CHC3H2CHC2H3C2HC7HCH2CHC2HCHC3H2C2HCPHC2HC5HC2H3C3H2C2H2CH3CH5CHSHFeS2HPFeS2FeS2FeSFeS3C6H4C3H2C5H2C3HC2HC3H2CH3CHCH2C5HC5PC20H10CH7C10H3CH2C4H4C4HC4H3CH4C4HPH2FeHC2HPHC2H8C2HCH2CH2C4H2CHCSCH2PHCHPC8HC3H2C2HC3HFeHCHCHCHC5H2FeS2C2HFeS2FeS2FeCFeS3C6H4C3H2CHC3H2C2H2CSH3C2HCHCH2CH8SC2HCH2CH2CHC4HFeHC2PC15HC2H2CH3SH6C3H2CHC6PC9HC4HC4H3SH5C2SCHCHCHCH3C2H2CH2C2HCH2C2HCH2C2HC4H2C3SFeSFeSCS2CHC6H4C3HC2H6C3FeCH2SHFeC3HCH2C3H2C2HC2HCHCHC4PC5H2CH4C2SPC2HC2H2C3SC3SCH2CHCH2CHFePH2C3H3FeC6PC3H4C2HCHCH2CHC3H2CHC2HCHSC2HCH2CHC2SCH2C2H3SFeS2C2SCHC2HCH2C2HCH2CH2CH5CSHC6PC4HC2H2C9H2CH2C2H4SC2H3CH2CSC3H2CH3C8HCHCHC2H9CHCHC2FeHCH3SHC3HC2SFeS2FeS2FeSFeS3FeS2HCHC2H3C6H4C6H4C3HC2H2CH6CHPHC2HC7H2C2HC6HC3H2C4HC3H5C3HCH2C7PCH2C9H3CSCH2CH3CHCH2CPC2H2CH2CH2C3HC2HC2HCSCHCHC2HCH2C2H3SCH2C2H2C4HCHFeCH2PCPCFeCSHCHS2CHCHFeS2FeS2FeCFeHS2HCHC2HCH5C2H3C6H2CHCH2C2H3CH3C2H2CH3C6H2C4HCHC2HC3HC3HCHC3H2C3H2C6PC4H3SH2CHCH3C2H2SCH2CFeH2CSCH2FeC7HSH2CHCFeSHFeCH2C3HCFeCSC2FeS2FeS2FeS2FeS2FeSFeS3C5H2C2H4C2HC7H4C2H2CHCHCHC2PCHCH2CHCH2CH2CH2C2H2C2H3SCH2CHC2H3C2H3C2SHC4H8C4HCHCHCH2C2FeSH7C2HC2H2C5HC2HCHCFeH3CHPC2HCHSH2CHC2H2C4H3CH2C2FeCH2C6HSCSCSCH2C2HFeHSC3FeS2FeS2FeHFeS3FeS2CFeCFeHS2C4PCH2C6H6C6H4CH4CH2C2HCH2SHC2H2CHC2HC11SC2H4C2H8C3H3C3HCHSCSH2C3HCSHPC2FeHC3HCH2CH2CPC9H6C3HCH2C2HC2HPC2HCHCH4C2H3CH2C2HC3PH3CHC5H2FeCSCH2C2SCSCSC4HC8HCSH5CH2CH4CHCH2C2HSC4PHCH6C6PHC8HCHFeCH5C2SCHC4HC3H2FeHS2FeSFeSFeS2CFeHFeHS2HCHCHC7H7C6PCH4C3H2C2H2CH2C2H4CH3C6HC2HC3H2C2HCH2C3H3C4H3C2HFeCH4CH2C2HPCHSH3C2HCSCH2C2
_chemical_formula_sum              "C960 H768 P32 S128 Fe64"
_cell_length_a       38.2367
_cell_length_b       38.2682
_cell_length_c       48.6538
_cell_angle_alpha    90.0737
_cell_angle_beta     90.1025
_cell_angle_gamma    89.9286

_space_group_name_H-M_alt    "P 1"
_space_group_IT_number       1

loop_
  _space_group_symop_operation_xyz
  'x, y, z'

loop_
  _atom_site_type_symbol
  _atom_site_label
  _atom_site_symmetry_multiplicity
  _atom_site_fract_x
  _atom_site_fract_y
  _atom_site_fract_z
  _atom_site_occupancy
  C   C1        1.0  0.47763  0.44802  0.07307  1.0000
  H   H1        1.0  0.44054  0.09158  0.17135  1.0000
  H   H2        1.0  0.31870  0.21756  0.04245  1.0000
  H   H3        1.0  0.29815  0.04151  0.31118  1.0000
  H   H4        1.0  0.38867  0.31154  0.01646  1.0000
  C   C2        1.0  0.00860  0.43118  0.23555  1.0000
  H   H5        1.0  0.30116  0.19350  0.29755  1.0000
  C   C3        1.0  0.42103  0.08654  0.03236  1.0000
  H   H6        1.0  0.36856  0.17009  0.22972  1.0000
  C   C4        1.0  0.33640  0.07239  0.28958  1.0000
  H   H7        1.0  0.42569  0.00376  0.27653  1.0000
  C   C5        1.0  0.46248  0.10322  0.26955  1.0000
  C   C6        1.0  0.32903  0.02375  0.24717  1.0000
  H   H8        1.0  0.46590  0.02996  0.24215  1.0000
  H   H9        1.0  0.46641  0.45627  0.14810  1.0000
  C   C7        1.0  0.42950  0.09302  0.27937  1.0000
  C   C8        1.0  0.34540  0.08224  0.02446  1.0000
  C   C9        1.0  0.44656  0.99930  0.20816  1.0000
  H   H10       1.0  0.26960  0.32775  0.31267  1.0000
  H   H11       1.0  0.43361  0.15767  0.03702  1.0000
  H   H12       1.0  0.23138  0.18356  0.29277  1.0000
  C   C10       1.0  0.14557  0.22313  0.28224  1.0000
  C   C11       1.0  0.44674  0.43700  0.06043  1.0000
  C   C12       1.0  0.33764  0.04681  0.02893  1.0000
  C   C13       1.0  0.38972  0.05780  0.08859  1.0000
  H   H13       1.0  0.32189  0.14441  0.26869  1.0000
  C   C14       1.0  0.45460  0.05097  0.00057  1.0000
  C   C15       1.0  0.00201  0.44870  0.28311  1.0000
  C   C16       1.0  0.08515  0.18757  0.29841  1.0000
  C   C17       1.0  0.37531  0.14711  0.28336  1.0000
  H   H14       1.0  0.16907  0.23618  0.27534  1.0000
  H   H15       1.0  0.40322  0.04081  0.07425  1.0000
  P   P1        1.0  0.37956  0.10317  0.04431  1.0000
  C   C18       1.0  0.30917  0.02038  0.27109  1.0000
  C   C19       1.0  0.08696  0.20260  0.27228  1.0000
  C   C20       1.0  0.04263  0.44454  0.23548  1.0000
  C   C21       1.0  0.24154  0.13054  0.30486  1.0000
  C   C22       1.0  0.38420  0.15263  0.21730  1.0000
  H   H16       1.0  0.35112  0.03201  0.04467  1.0000
  S   S1        1.0  0.47320  0.02112  0.18388  1.0000
  C   C23       1.0  0.35685  0.07576  0.26574  1.0000
  H   H17       1.0  0.42578  0.15763  0.30208  1.0000
  C   C24       1.0  0.14356  0.20888  0.30878  1.0000
  C   C25       1.0  0.35296  0.05114  0.24453  1.0000
  C   C26       1.0  0.45103  0.09054  0.04874  1.0000
  C   C27       1.0  0.98828  0.43342  0.25933  1.0000
  H   H18       1.0  0.40067  0.06338  0.99484  1.0000
  C   C28       1.0  0.41135  0.13982  0.17339  1.0000
  C   C29       1.0  0.45816  0.05744  0.31419  1.0000
  H   H19       1.0  0.16654  0.28378  0.31589  1.0000
  C   C30       1.0  0.36997  0.06867  0.13505  1.0000
  H   H20       1.0  0.37313  0.25196  0.03717  1.0000
  H   H21       1.0  0.39888  0.02294  0.12256  1.0000
  C   C31       1.0  0.34373  0.20424  0.04146  1.0000
  H   H22       1.0  0.29177  0.99824  0.27350  1.0000
  C   C32       1.0  0.11722  0.22022  0.26416  1.0000
  C   C33       1.0  0.42327  0.06729  0.00784  1.0000
  C   C34       1.0  0.32839  0.18575  0.29816  1.0000
  H   H23       1.0  0.34167  0.11666  0.14133  1.0000
  H   H24       1.0  0.33533  0.12666  0.99789  1.0000
  C   C35       1.0  0.37440  0.22367  0.03849  1.0000
  H   H25       1.0  0.39099  0.44389  0.05774  1.0000
  C   C36       1.0  0.19458  0.28030  0.31727  1.0000
  C   C37       1.0  0.40832  0.17014  0.03833  1.0000
  H   H26       1.0  0.11880  0.23141  0.24374  1.0000
  H   H27       1.0  0.25999  0.12573  0.28844  1.0000
  H   H28       1.0  0.34621  0.13543  0.09308  1.0000
  C   C38       1.0  0.37517  0.08968  0.07983  1.0000
  C   C39       1.0  0.39796  0.12160  0.22835  1.0000
  H   H29       1.0  0.32130  0.15315  0.04576  1.0000
  C   C40       1.0  0.01041  0.45739  0.14397  1.0000
  C   C41       1.0  0.38665  0.19310  0.31675  1.0000
  C   C42       1.0  0.40667  0.20663  0.03699  1.0000
  C   C43       1.0  0.34020  0.15789  0.28199  1.0000
  C   C44       1.0  0.35775  0.11082  0.09908  1.0000
  C   C45       1.0  0.35512  0.10028  0.12656  1.0000
  C   C46       1.0  0.38723  0.04746  0.11606  1.0000
  H   H30       1.0  0.41678  0.14686  0.15224  1.0000
  C   C47       1.0  0.34532  0.16777  0.04315  1.0000
  H   H31       1.0  0.33944  0.09047  0.30649  1.0000
  H   H32       1.0  0.32709  0.00405  0.23120  1.0000
  C   C48       1.0  0.37764  0.15035  0.04152  1.0000
  H   H33       1.0  0.42881  0.07551  0.21926  1.0000
  C   C49       1.0  0.03628  0.46183  0.28331  1.0000
  C   C50       1.0  0.01991  0.46637  0.11719  1.0000
  H   H34       1.0  0.38061  0.18583  0.18158  1.0000
  C   C51       1.0  0.40274  0.31863  0.99806  1.0000
  H   H35       1.0  0.43042  0.22182  0.03473  1.0000
  C   C52       1.0  0.42477  0.10874  0.18412  1.0000
  C   C53       1.0  0.17357  0.46679  0.31246  1.0000
  C   C54       1.0  0.41493  0.45257  0.06756  1.0000
  H   H36       1.0  0.30795  0.00209  0.01557  1.0000
  H   H37       1.0  0.36905  0.05210  0.22631  1.0000
  C   C55       1.0  0.11345  0.19042  0.31653  1.0000
  C   C56       1.0  0.39097  0.16169  0.18994  1.0000
  H   H38       1.0  0.44747  0.41632  0.04515  1.0000
  C   C57       1.0  0.31332  0.02957  0.01226  1.0000
  P   P2        1.0  0.38983  0.10955  0.26378  1.0000
  H   H39       1.0  0.36825  0.06057  0.15636  1.0000
  C   C58       1.0  0.42477  0.99532  0.25535  1.0000
  C   C59       1.0  0.29663  0.04745  0.99093  1.0000
  H   H40       1.0  0.20555  0.33437  0.30792  1.0000
  C   C60       1.0  0.41803  0.09964  0.21140  1.0000
  C   C61       1.0  0.43960  0.32090  0.99875  1.0000
  C   C62       1.0  0.22557  0.16330  0.30757  1.0000
  C   C63       1.0  0.31282  0.04473  0.29229  1.0000
  C   C64       1.0  0.32883  0.09988  0.00270  1.0000
  H   H41       1.0  0.45370  0.31527  0.01752  1.0000
  C   C65       1.0  0.44754  0.01002  0.23582  1.0000
  C   C66       1.0  0.35156  0.20326  0.31560  1.0000
  H   H42       1.0  0.99690  0.43300  0.14779  1.0000
  H   H43       1.0  0.01378  0.44889  0.10028  1.0000
  H   H44       1.0  0.44998  0.10502  0.06787  1.0000
  C   C67       1.0  0.05640  0.46000  0.25923  1.0000
  C   C68       1.0  0.42764  0.07051  0.30209  1.0000
  C   C69       1.0  0.47827  0.47663  0.16045  1.0000
  H   H45       1.0  0.46478  0.12121  0.25249  1.0000
  H   H46       1.0  0.26931  0.42821  0.31372  1.0000
  C   C70       1.0  0.39855  0.16518  0.30067  1.0000
  C   C71       1.0  0.25270  0.30531  0.31555  1.0000
  H   H47       1.0  0.06505  0.20027  0.25823  1.0000
  H   H48       1.0  0.40266  0.06265  0.31035  1.0000
  C   C72       1.0  0.21650  0.30899  0.31283  1.0000
  H   H49       1.0  0.05818  0.44340  0.21691  1.0000
  H   H50       1.0  0.99765  0.41976  0.21705  1.0000
  H   H51       1.0  0.00723  0.47463  0.18595  1.0000
  C   C73       1.0  0.47678  0.47474  0.09269  1.0000
  H   H52       1.0  0.06186  0.17349  0.30458  1.0000
  H   H53       1.0  0.98546  0.45101  0.30109  1.0000
  H   H54       1.0  0.37767  0.98199  0.00683  1.0000
  H   H55       1.0  0.08252  0.47084  0.25861  1.0000
  H   H56       1.0  0.20170  0.46322  0.31219  1.0000
  C   C74       1.0  0.10064  0.47680  0.31408  1.0000
  H   H57       1.0  0.24605  0.07845  0.32151  1.0000
  S   S2        1.0  0.00793  0.35640  0.44254  1.0000
  H   H58       1.0  0.39815  0.21272  0.51009  1.0000
  Fe  Fe1       1.0  0.32027  0.99649  0.36142  1.0000
  S   S3        1.0  0.37443  0.00645  0.34539  1.0000
  S   S4        1.0  0.28230  0.04069  0.37404  1.0000
  H   H59       1.0  0.14472  0.33458  0.35059  1.0000
  P   P3        1.0  0.37745  0.45221  0.44078  1.0000
  Fe  Fe2       1.0  0.27223  0.25780  0.40299  1.0000
  S   S5        1.0  0.26093  0.26554  0.44797  1.0000
  S   S6        1.0  0.29514  0.20794  0.38260  1.0000
  Fe  Fe3       1.0  0.26802  0.33831  0.39279  1.0000
  S   S7        1.0  0.25816  0.35024  0.43734  1.0000
  S   S8        1.0  0.26978  0.37801  0.35747  1.0000
  Fe  Fe4       1.0  0.29974  0.30965  0.44608  1.0000
  S   S9        1.0  0.33971  0.31056  0.48104  1.0000
  Fe  Fe5       1.0  0.21984  0.30543  0.43551  1.0000
  S   S10       1.0  0.16910  0.31190  0.46094  1.0000
  S   S11       1.0  0.31237  0.30101  0.40171  1.0000
  S   S12       1.0  0.22832  0.29459  0.39029  1.0000
  C   C75       1.0  0.28846  0.08674  0.37867  1.0000
  C   C76       1.0  0.31551  0.10498  0.36575  1.0000
  C   C77       1.0  0.31748  0.14179  0.36779  1.0000
  C   C78       1.0  0.29267  0.16112  0.38293  1.0000
  C   C79       1.0  0.26662  0.14273  0.39700  1.0000
  C   C80       1.0  0.26444  0.10590  0.39469  1.0000
  H   H60       1.0  0.33462  0.09073  0.35390  1.0000
  H   H61       1.0  0.33833  0.15536  0.35738  1.0000
  H   H62       1.0  0.24771  0.15680  0.40925  1.0000
  H   H63       1.0  0.24353  0.09221  0.40500  1.0000
  C   C81       1.0  0.43909  0.33208  0.45472  1.0000
  C   C82       1.0  0.40256  0.32671  0.45489  1.0000
  C   C83       1.0  0.38549  0.31851  0.47947  1.0000
  H   H64       1.0  0.45209  0.33831  0.43562  1.0000
  H   H65       1.0  0.38770  0.32882  0.43603  1.0000
  C   C84       1.0  0.05297  0.34526  0.44845  1.0000
  C   C85       1.0  0.10398  0.33572  0.47792  1.0000
  C   C86       1.0  0.12483  0.32595  0.45526  1.0000
  C   C87       1.0  0.10952  0.32639  0.42914  1.0000
  C   C88       1.0  0.07386  0.33553  0.42584  1.0000
  H   H66       1.0  0.12501  0.31885  0.41157  1.0000
  H   H67       1.0  0.06220  0.33488  0.40560  1.0000
  C   C89       1.0  0.27767  0.44380  0.47084  1.0000
  C   C90       1.0  0.27211  0.42459  0.35789  1.0000
  C   C91       1.0  0.17458  0.40150  0.39028  1.0000
  H   H68       1.0  0.27551  0.43036  0.40179  1.0000
  C   C92       1.0  0.24518  0.24433  0.32732  1.0000
  C   C93       1.0  0.00112  0.46823  0.38660  1.0000
  H   H69       1.0  0.45354  0.15589  0.54180  1.0000
  C   C94       1.0  0.45893  0.32955  0.47906  1.0000
  C   C95       1.0  0.40527  0.31637  0.50380  1.0000
  C   C96       1.0  0.44176  0.32169  0.50363  1.0000
  H   H70       1.0  0.39231  0.31044  0.52296  1.0000
  H   H71       1.0  0.45659  0.31960  0.52251  1.0000
  C   C97       1.0  0.06849  0.34562  0.47456  1.0000
  H   H72       1.0  0.05299  0.35290  0.49224  1.0000
  H   H73       1.0  0.11531  0.33544  0.49830  1.0000
  H   H74       1.0  0.11711  0.24339  0.35628  1.0000
  C   C98       1.0  0.27098  0.02104  0.44183  1.0000
  H   H75       1.0  0.08793  0.36243  0.36236  1.0000
  C   C99       1.0  0.18368  0.40129  0.48635  1.0000
  H   H76       1.0  0.21556  0.20127  0.38445  1.0000
  H   H77       1.0  0.44520  0.05581  0.39869  1.0000
  C   C100      1.0  0.14256  0.41669  0.39779  1.0000
  C   C101      1.0  0.18769  0.42776  0.50590  1.0000
  C   C102      1.0  0.27995  0.41448  0.48783  1.0000
  C   C103      1.0  0.43424  0.06188  0.44180  1.0000
  C   C104      1.0  0.40435  0.17260  0.42303  1.0000
  H   H78       1.0  0.99746  0.42440  0.54667  1.0000
  C   C105      1.0  0.23879  0.03638  0.44806  1.0000
  C   C106      1.0  0.23757  0.06686  0.46389  1.0000
  C   C107      1.0  0.26858  0.08231  0.47315  1.0000
  C   C108      1.0  0.30106  0.06741  0.46648  1.0000
  C   C109      1.0  0.30201  0.03621  0.45123  1.0000
  P   P4        1.0  0.34110  0.08710  0.47870  1.0000
  C   C110      1.0  0.37499  0.07940  0.45350  1.0000
  C   C111      1.0  0.33362  0.13375  0.48184  1.0000
  C   C112      1.0  0.33003  0.15443  0.45815  1.0000
  C   C113      1.0  0.32366  0.19032  0.46038  1.0000
  C   C114      1.0  0.32107  0.20602  0.48620  1.0000
  C   C115      1.0  0.32334  0.18555  0.50987  1.0000
  C   C116      1.0  0.32898  0.14950  0.50773  1.0000
  C   C117      1.0  0.40896  0.06977  0.46159  1.0000
  C   C118      1.0  0.17957  0.46229  0.49906  1.0000
  C   C119      1.0  0.11216  0.37340  0.37002  1.0000
  C   C120      1.0  0.39229  0.07303  0.40565  1.0000
  C   C121      1.0  0.36696  0.08102  0.42536  1.0000
  C   C122      1.0  0.35350  0.06740  0.51104  1.0000
  C   C123      1.0  0.34013  0.03462  0.51861  1.0000
  C   C124      1.0  0.34960  0.01955  0.54370  1.0000
  C   C125      1.0  0.37231  0.03709  0.56146  1.0000
  C   C126      1.0  0.38620  0.06941  0.55390  1.0000
  C   C127      1.0  0.37737  0.08426  0.52858  1.0000
  C   C128      1.0  0.04446  0.44761  0.45350  1.0000
  C   C129      1.0  0.13475  0.23590  0.37265  1.0000
  H   H79       1.0  0.21261  0.07880  0.46867  1.0000
  H   H80       1.0  0.26712  0.10599  0.48529  1.0000
  H   H81       1.0  0.32671  0.02383  0.44616  1.0000
  H   H82       1.0  0.33171  0.14301  0.43788  1.0000
  H   H83       1.0  0.32076  0.20606  0.44200  1.0000
  H   H84       1.0  0.31681  0.23400  0.48783  1.0000
  H   H85       1.0  0.32037  0.19765  0.52987  1.0000
  H   H86       1.0  0.32919  0.13416  0.52636  1.0000
  H   H87       1.0  0.41596  0.06723  0.48304  1.0000
  H   H88       1.0  0.40452  0.20662  0.33041  1.0000
  C   C130      1.0  0.42592  0.06341  0.41388  1.0000
  H   H89       1.0  0.38554  0.07327  0.38404  1.0000
  H   H90       1.0  0.34075  0.08733  0.41864  1.0000
  H   H91       1.0  0.32290  0.02026  0.50508  1.0000
  H   H92       1.0  0.20314  0.08866  0.35843  1.0000
  H   H93       1.0  0.44628  0.42442  0.42388  1.0000
  H   H94       1.0  0.18191  0.40107  0.63567  1.0000
  H   H95       1.0  0.38923  0.10881  0.52269  1.0000
  C   C131      1.0  0.35820  0.38590  0.37629  1.0000
  C   C132      1.0  0.37609  0.40174  0.35464  1.0000
  C   C133      1.0  0.37742  0.43186  0.40726  1.0000
  C   C134      1.0  0.35886  0.40077  0.40255  1.0000
  C   C135      1.0  0.99953  0.43192  0.38888  1.0000
  C   C136      1.0  0.27490  0.44385  0.38227  1.0000
  C   C137      1.0  0.41730  0.44365  0.48847  1.0000
  C   C138      1.0  0.31162  0.39668  0.49052  1.0000
  C   C139      1.0  0.34106  0.40789  0.47608  1.0000
  C   C140      1.0  0.17521  0.37193  0.37337  1.0000
  H   H96       1.0  0.34309  0.36248  0.37252  1.0000
  H   H97       1.0  0.13438  0.44456  0.63829  1.0000
  H   H98       1.0  0.34441  0.38817  0.41888  1.0000
  C   C141      1.0  0.26700  0.27308  0.32300  1.0000
  H   H99       1.0  0.31321  0.37365  0.50341  1.0000
  H   H100      1.0  0.36502  0.39288  0.47775  1.0000
  C   C142      1.0  0.11135  0.40284  0.38709  1.0000
  C   C143      1.0  0.41765  0.22336  0.52389  1.0000
  C   C144      1.0  0.40670  0.24219  0.54699  1.0000
  C   C145      1.0  0.43139  0.25578  0.56532  1.0000
  H   H101      1.0  0.08764  0.41303  0.44647  1.0000
  H   H102      1.0  0.37908  0.24656  0.55051  1.0000
  H   H103      1.0  0.42301  0.27050  0.58317  1.0000
  H   H104      1.0  0.19865  0.21443  0.43237  1.0000
  C   C146      1.0  0.45347  0.21850  0.51875  1.0000
  C   C147      1.0  0.20885  0.24757  0.32407  1.0000
  C   C148      1.0  0.16306  0.44379  0.45298  1.0000
  C   C149      1.0  0.39635  0.44699  0.38560  1.0000
  H   H105      1.0  0.37105  0.20830  0.40081  1.0000
  C   C150      1.0  0.39539  0.43214  0.35934  1.0000
  C   C151      1.0  0.03080  0.42622  0.34586  1.0000
  C   C152      1.0  0.01433  0.41091  0.36852  1.0000
  C   C153      1.0  0.38945  0.20523  0.41764  1.0000
  H   H106      1.0  0.18951  0.37437  0.49167  1.0000
  H   H107      1.0  0.42690  0.25230  0.46902  1.0000
  H   H108      1.0  0.04813  0.46407  0.55324  1.0000
  C   C154      1.0  0.43638  0.19715  0.46180  1.0000
  H   H109      1.0  0.21487  0.02487  0.44025  1.0000
  H   H110      1.0  0.11188  0.17813  0.33655  1.0000
  H   H111      1.0  0.38534  0.25889  0.43070  1.0000
  H   H112      1.0  0.46712  0.09647  0.55735  1.0000
  C   C155      1.0  0.00952  0.42708  0.56676  1.0000
  C   C156      1.0  0.19360  0.14239  0.34722  1.0000
  C   C157      1.0  0.12893  0.41761  0.64350  1.0000
  C   C158      1.0  0.14406  0.35774  0.36338  1.0000
  H   H113      1.0  0.25290  0.45719  0.46838  1.0000
  P   P5        1.0  0.18032  0.21145  0.33196  1.0000
  H   H114      1.0  0.10057  0.25587  0.40431  1.0000
  H   H115      1.0  0.34015  0.99383  0.54914  1.0000
  Fe  Fe6       1.0  0.45802  0.00213  0.63081  1.0000
  H   H116      1.0  0.45992  0.05302  0.44809  1.0000
  C   C159      1.0  0.07778  0.43939  0.44382  1.0000
  C   C160      1.0  0.47217  0.10376  0.53624  1.0000
  H   H117      1.0  0.27196  0.99800  0.42888  1.0000
  P   P6        1.0  0.05989  0.43858  0.65250  1.0000
  H   H118      1.0  0.02886  0.42739  0.46304  1.0000
  C   C161      1.0  0.39748  0.23372  0.43446  1.0000
  C   C162      1.0  0.14827  0.23534  0.42133  1.0000
  H   H119      1.0  0.29491  0.27071  0.32630  1.0000
  H   H120      1.0  0.25718  0.40500  0.49860  1.0000
  H   H121      1.0  0.37988  0.02511  0.58077  1.0000
  H   H122      1.0  0.00028  0.39744  0.63204  1.0000
  H   H123      1.0  0.09944  0.42455  0.33081  1.0000
  H   H124      1.0  0.07510  0.47069  0.59918  1.0000
  H   H125      1.0  0.40925  0.44444  0.34254  1.0000
  H   H126      1.0  0.43821  0.14283  0.44895  1.0000
  C   C163      1.0  0.18058  0.21982  0.41571  1.0000
  C   C164      1.0  0.16689  0.21966  0.36691  1.0000
  H   H127      1.0  0.19682  0.42141  0.52639  1.0000
  C   C165      1.0  0.03919  0.43524  0.61921  1.0000
  H   H128      1.0  0.40427  0.08265  0.56754  1.0000
  H   H129      1.0  0.19995  0.36012  0.36792  1.0000
  C   C166      1.0  0.01093  0.41237  0.61515  1.0000
  H   H130      1.0  0.04074  0.40952  0.32969  1.0000
  H   H131      1.0  0.39763  0.15043  0.41023  1.0000
  C   C167      1.0  0.42092  0.22978  0.45633  1.0000
  C   C168      1.0  0.99606  0.40852  0.58905  1.0000
  C   C169      1.0  0.20927  0.10958  0.34423  1.0000
  C   C170      1.0  0.41650  0.44046  0.45968  1.0000
  H   H132      1.0  0.01232  0.38273  0.37022  1.0000
  H   H133      1.0  0.08629  0.41437  0.39199  1.0000
  C   C171      1.0  0.33930  0.43781  0.45944  1.0000
  H   H134      1.0  0.19909  0.41217  0.39777  1.0000
  C   C172      1.0  0.15588  0.39296  0.64168  1.0000
  S   S13       1.0  0.45766  0.03102  0.59046  1.0000
  C   C173      1.0  0.17137  0.40919  0.46002  1.0000
  H   H135      1.0  0.16742  0.38798  0.44563  1.0000
  H   H136      1.0  0.14131  0.24197  0.44232  1.0000
  P   P7        1.0  0.46774  0.19292  0.48964  1.0000
  H   H137      1.0  0.34220  0.22425  0.32869  1.0000
  C   C174      1.0  0.42750  0.16845  0.44512  1.0000
  H   H138      1.0  0.17479  0.14625  0.36355  1.0000
  P   P8        1.0  0.14219  0.45389  0.42066  1.0000
  C   C175      1.0  0.27139  0.44274  0.33273  1.0000
  C   C176      1.0  0.03791  0.44956  0.57054  1.0000
  C   C177      1.0  0.44616  0.42772  0.44594  1.0000
  C   C178      1.0  0.12535  0.24330  0.39983  1.0000
  C   C179      1.0  0.46483  0.13767  0.52729  1.0000
  C   C180      1.0  0.18997  0.21221  0.38859  1.0000
  C   C181      1.0  0.03343  0.46279  0.34377  1.0000
  C   C182      1.0  0.46702  0.25036  0.56066  1.0000
  H   H139      1.0  0.25665  0.21995  0.33404  1.0000
  C   C183      1.0  0.47604  0.41828  0.46080  1.0000
  C   C184      1.0  0.05289  0.45347  0.59664  1.0000
  C   C185      1.0  0.14919  0.35778  0.64728  1.0000
  H   H140      1.0  0.16341  0.41648  0.32984  1.0000
  H   H141      1.0  0.98617  0.42006  0.40618  1.0000
  C   C186      1.0  0.09826  0.46493  0.43094  1.0000
  C   C187      1.0  0.20229  0.16978  0.32931  1.0000
  H   H142      1.0  0.41136  0.47061  0.38889  1.0000
  C   C188      1.0  0.47360  0.14802  0.50047  1.0000
  C   C189      1.0  0.44716  0.43391  0.50325  1.0000
  C   C190      1.0  0.30729  0.45557  0.45679  1.0000
  H   H143      1.0  0.44749  0.43566  0.52548  1.0000
  Fe  Fe7       1.0  0.46199  0.97852  0.57017  1.0000
  H   H144      1.0  0.45643  0.03957  0.33143  1.0000
  C   C191      1.0  0.16701  0.47025  0.47278  1.0000
  H   H145      1.0  0.39470  0.45323  0.49956  1.0000
  C   C192      1.0  0.23353  0.10378  0.32330  1.0000
  H   H146      1.0  0.37473  0.39055  0.33421  1.0000
  C   C193      1.0  0.47650  0.42119  0.48941  1.0000
  H   H147      1.0  0.17005  0.33867  0.64574  1.0000
  C   C194      1.0  0.09526  0.40735  0.65168  1.0000
  C   C195      1.0  0.47809  0.23187  0.53746  1.0000
  C   C196      1.0  0.11543  0.34716  0.65436  1.0000
  C   C197      1.0  0.15190  0.44058  0.32264  1.0000
  C   C198      1.0  0.11561  0.44542  0.32330  1.0000
  H   H148      1.0  0.02346  0.38983  0.74233  1.0000
  H   H149      1.0  0.29647  0.45504  0.80507  1.0000
  Fe  Fe8       1.0  0.34752  0.02612  0.86817  1.0000
  S   S14       1.0  0.40621  0.02587  0.86754  1.0000
  S   S15       1.0  0.32080  0.07295  0.88967  1.0000
  C   C199      1.0  0.16498  0.07450  0.73720  1.0000
  C   C200      1.0  0.23325  0.04829  0.73626  1.0000
  H   H150      1.0  0.26028  0.45212  0.75737  1.0000
  Fe  Fe9       1.0  0.27183  0.28311  0.89032  1.0000
  S   S16       1.0  0.25564  0.29092  0.93459  1.0000
  S   S17       1.0  0.28047  0.23290  0.86473  1.0000
  Fe  Fe10      1.0  0.28162  0.36277  0.88139  1.0000
  S   S18       1.0  0.26858  0.37495  0.92531  1.0000
  S   S19       1.0  0.29266  0.40171  0.84661  1.0000
  Fe  Fe11      1.0  0.30154  0.32809  0.93652  1.0000
  C   C201      1.0  0.43294  0.01081  0.75738  1.0000
  Fe  Fe12      1.0  0.22352  0.33728  0.91993  1.0000
  S   S20       1.0  0.17281  0.36331  0.93587  1.0000
  S   S21       1.0  0.31843  0.31885  0.89298  1.0000
  S   S22       1.0  0.23601  0.32648  0.87538  1.0000
  C   C202      1.0  0.31205  0.11805  0.88261  1.0000
  C   C203      1.0  0.31714  0.13290  0.85666  1.0000
  C   C204      1.0  0.30852  0.16830  0.85193  1.0000
  C   C205      1.0  0.29450  0.18949  0.87292  1.0000
  C   C206      1.0  0.29028  0.17491  0.89907  1.0000
  C   C207      1.0  0.29886  0.13945  0.90380  1.0000
  H   H151      1.0  0.32749  0.11714  0.84018  1.0000
  H   H152      1.0  0.31239  0.17924  0.83169  1.0000
  H   H153      1.0  0.27936  0.19065  0.91543  1.0000
  H   H154      1.0  0.29464  0.12841  0.92395  1.0000
  C   C208      1.0  0.43915  0.33825  0.95104  1.0000
  C   C209      1.0  0.40239  0.33538  0.95020  1.0000
  C   C210      1.0  0.03766  0.37969  0.88049  1.0000
  H   H155      1.0  0.45306  0.34655  0.93285  1.0000
  H   H156      1.0  0.38829  0.34119  0.93145  1.0000
  C   C211      1.0  0.05262  0.35010  0.94451  1.0000
  H   H157      1.0  0.06037  0.29938  0.92616  1.0000
  C   C212      1.0  0.12650  0.35729  0.93839  1.0000
  C   C213      1.0  0.10960  0.32686  0.92950  1.0000
  C   C214      1.0  0.41814  0.15359  0.82508  1.0000
  H   H158      1.0  0.42331  0.15010  0.80336  1.0000
  H   H159      1.0  0.11887  0.40757  0.95739  1.0000
  C   C215      1.0  0.40062  0.12957  0.86889  1.0000
  C   C216      1.0  0.28541  0.44773  0.84810  1.0000
  H   H160      1.0  0.06223  0.36300  0.66102  1.0000
  H   H161      1.0  0.37299  0.15303  0.95913  1.0000
  C   C217      1.0  0.25937  0.04733  0.83771  1.0000
  S   S23       1.0  0.33747  0.32300  0.97412  1.0000
  H   H162      1.0  0.42903  0.20870  0.82452  1.0000
  H   H163      1.0  0.39722  0.16556  0.90243  1.0000
  H   H164      1.0  0.09959  0.44226  0.87242  1.0000
  C   C218      1.0  0.07443  0.43099  0.87738  1.0000
  C   C219      1.0  0.45699  0.01294  0.71073  1.0000
  H   H165      1.0  0.14326  0.41694  0.80129  1.0000
  C   C220      1.0  0.40544  0.07566  0.93616  1.0000
  H   H166      1.0  0.09121  0.37883  0.86699  1.0000
  C   C221      1.0  0.26016  0.01882  0.85568  1.0000
  H   H167      1.0  0.42933  0.45205  0.73090  1.0000
  H   H168      1.0  0.39635  0.35332  0.84472  1.0000
  C   C222      1.0  0.27654  0.46473  0.87259  1.0000
  H   H169      1.0  0.45409  0.28760  0.91352  1.0000
  H   H170      1.0  0.18354  0.38386  0.87934  1.0000
  H   H171      1.0  0.05430  0.40169  0.96201  1.0000
  H   H172      1.0  0.45917  0.06272  0.93189  1.0000
  H   H173      1.0  0.99323  0.45171  0.90146  1.0000
  H   H174      1.0  0.03433  0.35164  0.87888  1.0000
  H   H175      1.0  0.26538  0.02293  0.87735  1.0000
  H   H176      1.0  0.25952  0.03763  0.73568  1.0000
  S   S24       1.0  0.41613  0.01184  0.66346  1.0000
  C   C223      1.0  0.38092  0.10093  0.94364  1.0000
  C   C224      1.0  0.10610  0.38416  0.95008  1.0000
  H   H177      1.0  0.42986  0.30983  0.87093  1.0000
  C   C225      1.0  0.39452  0.00942  0.71741  1.0000
  H   H178      1.0  0.15645  0.36981  0.83443  1.0000
  H   H179      1.0  0.98561  0.38825  0.89581  1.0000
  C   C226      1.0  0.45289  0.11517  0.94853  1.0000
  H   H180      1.0  0.03259  0.44306  0.79575  1.0000
  H   H181      1.0  0.37691  0.00674  0.75969  1.0000
  C   C227      1.0  0.30431  0.08260  0.98621  1.0000
  H   H182      1.0  0.17886  0.09846  0.77547  1.0000
  C   C228      1.0  0.38391  0.32582  0.97379  1.0000
  C   C229      1.0  0.18576  0.43904  0.87151  1.0000
  C   C230      1.0  0.17745  0.40456  0.86494  1.0000
  C   C231      1.0  0.16201  0.39676  0.83967  1.0000
  H   H183      1.0  0.15806  0.04749  0.69869  1.0000
  Fe  Fe13      1.0  0.40186  0.99735  0.82717  1.0000
  H   H184      1.0  0.43556  0.16572  0.96364  1.0000
  C   C232      1.0  0.46159  0.01344  0.73947  1.0000
  C   C233      1.0  0.42337  0.01113  0.69953  1.0000
  P   P9        1.0  0.41893  0.23415  0.88072  1.0000
  C   C234      1.0  0.39718  0.23410  0.91368  1.0000
  C   C235      1.0  0.39711  0.26597  0.85912  1.0000
  C   C236      1.0  0.40773  0.30113  0.85896  1.0000
  C   C237      1.0  0.38881  0.32604  0.84400  1.0000
  C   C238      1.0  0.35909  0.31615  0.82919  1.0000
  C   C239      1.0  0.34847  0.28124  0.82909  1.0000
  C   C240      1.0  0.36737  0.25626  0.84393  1.0000
  C   C241      1.0  0.36066  0.23705  0.91491  1.0000
  C   C242      1.0  0.34364  0.23829  0.94026  1.0000
  C   C243      1.0  0.36293  0.23690  0.96459  1.0000
  C   C244      1.0  0.39926  0.23325  0.96361  1.0000
  C   C245      1.0  0.41629  0.23119  0.93828  1.0000
  C   C246      1.0  0.41443  0.19137  0.86524  1.0000
  C   C247      1.0  0.40368  0.16260  0.88096  1.0000
  C   C248      1.0  0.15443  0.42358  0.82108  1.0000
  H   H185      1.0  0.27324  0.44966  0.89120  1.0000
  C   C249      1.0  0.40799  0.12500  0.84102  1.0000
  C   C250      1.0  0.04738  0.45169  0.88830  1.0000
  H   H186      1.0  0.27907  0.10673  0.73364  1.0000
  H   H187      1.0  0.19889  0.44467  0.89076  1.0000
  C   C251      1.0  0.47167  0.46314  0.66064  1.0000
  H   H188      1.0  0.37970  0.45092  0.76307  1.0000
  H   H189      1.0  0.44436  0.22808  0.93812  1.0000
  H   H190      1.0  0.16474  0.46311  0.94041  1.0000
  S   S25       1.0  0.00652  0.34367  0.94853  1.0000
  H   H191      1.0  0.34356  0.33579  0.81869  1.0000
  H   H192      1.0  0.32460  0.27375  0.81858  1.0000
  H   H193      1.0  0.35768  0.22970  0.84452  1.0000
  H   H194      1.0  0.34519  0.23908  0.89637  1.0000
  H   H195      1.0  0.31555  0.24167  0.94100  1.0000
  H   H196      1.0  0.98694  0.45841  0.66065  1.0000
  C   C252      1.0  0.01019  0.40036  0.89017  1.0000
  C   C253      1.0  0.16165  0.45858  0.82786  1.0000
  C   C254      1.0  0.24957  0.97959  0.81763  1.0000
  H   H197      1.0  0.40539  0.09934  0.83179  1.0000
  H   H198      1.0  0.11638  0.46617  0.68745  1.0000
  C   C255      1.0  0.42132  0.18669  0.83712  1.0000
  H   H199      1.0  0.21120  0.44590  0.78938  1.0000
  C   C256      1.0  0.33491  0.10145  0.73534  1.0000
  C   C257      1.0  0.36377  0.09129  0.75109  1.0000
  C   C258      1.0  0.35892  0.07923  0.77789  1.0000
  C   C259      1.0  0.32519  0.07667  0.78877  1.0000
  C   C260      1.0  0.29596  0.08508  0.77264  1.0000
  C   C261      1.0  0.30111  0.09869  0.74613  1.0000
  P   P10       1.0  0.25234  0.07916  0.78618  1.0000
  C   C262      1.0  0.25291  0.04227  0.80953  1.0000
  C   C263      1.0  0.23836  0.11848  0.80365  1.0000
  C   C264      1.0  0.21279  0.11687  0.82434  1.0000
  C   C265      1.0  0.20247  0.14718  0.83823  1.0000
  C   C266      1.0  0.21707  0.17939  0.83122  1.0000
  C   C267      1.0  0.24170  0.18137  0.81012  1.0000
  C   C268      1.0  0.25246  0.15106  0.79642  1.0000
  C   C269      1.0  0.08498  0.46385  0.79867  1.0000
  C   C270      1.0  0.07299  0.32326  0.93271  1.0000
  H   H200      1.0  0.39182  0.10756  0.88106  1.0000
  C   C271      1.0  0.39927  0.00871  0.74620  1.0000
  C   C272      1.0  0.45801  0.33084  0.97520  1.0000
  C   C273      1.0  0.22245  0.06940  0.75835  1.0000
  C   C274      1.0  0.18806  0.08236  0.75868  1.0000
  H   H201      1.0  0.39664  0.05055  0.92838  1.0000
  C   C275      1.0  0.17600  0.05362  0.71527  1.0000
  C   C276      1.0  0.21012  0.04051  0.71481  1.0000
  C   C277      1.0  0.21252  0.46904  0.77667  1.0000
  C   C278      1.0  0.01486  0.43629  0.89382  1.0000
  H   H202      1.0  0.38990  0.09242  0.74247  1.0000
  H   H203      1.0  0.38132  0.07101  0.78998  1.0000
  H   H204      1.0  0.32192  0.06772  0.80965  1.0000
  S   S26       1.0  0.44073  0.01111  0.79339  1.0000
  H   H205      1.0  0.20110  0.09215  0.83001  1.0000
  H   H206      1.0  0.18356  0.14573  0.85474  1.0000
  H   H207      1.0  0.20992  0.20280  0.84251  1.0000
  H   H208      1.0  0.25345  0.20638  0.80525  1.0000
  H   H209      1.0  0.27216  0.15316  0.78059  1.0000
  C   C279      1.0  0.05277  0.45831  0.78572  1.0000
  C   C280      1.0  0.24061  0.47248  0.75848  1.0000
  S   S27       1.0  0.34333  0.00082  0.82614  1.0000
  C   C281      1.0  0.06944  0.38080  0.95291  1.0000
  H   H210      1.0  0.26442  0.07318  0.84588  1.0000
  C   C282      1.0  0.44119  0.08275  0.93837  1.0000
  H   H211      1.0  0.12478  0.30588  0.92058  1.0000
  C   C283      1.0  0.46464  0.24529  0.88524  1.0000
  H   H212      1.0  0.29173  0.09622  0.96934  1.0000
  C   C284      1.0  0.24827  0.00805  0.79963  1.0000
  H   H213      1.0  0.34968  0.23994  0.98408  1.0000
  H   H214      1.0  0.35327  0.09553  0.94125  1.0000
  H   H215      1.0  0.21865  0.02419  0.69787  1.0000
  C   C285      1.0  0.99503  0.44269  0.67806  1.0000
  C   C286      1.0  0.39207  0.13318  0.95378  1.0000
  H   H216      1.0  0.33879  0.11101  0.71461  1.0000
  H   H217      1.0  0.06635  0.40227  0.70578  1.0000
  C   C287      1.0  0.42780  0.14029  0.95620  1.0000
  H   H218      1.0  0.46529  0.12141  0.89417  1.0000
  H   H219      1.0  0.13847  0.08455  0.73762  1.0000
  C   C288      1.0  0.03962  0.41103  0.70329  1.0000
  C   C289      1.0  0.06970  0.39503  0.87389  1.0000
  H   H220      1.0  0.36836  0.00829  0.70896  1.0000
  C   C290      1.0  0.47403  0.27297  0.90272  1.0000
  H   H221      1.0  0.08908  0.45310  0.81896  1.0000
  H   H222      1.0  0.24421  0.00296  0.77805  1.0000
  C   C291      1.0  0.17784  0.46601  0.85314  1.0000
  C   C292      1.0  0.02925  0.42955  0.67972  1.0000
  H   H223      1.0  0.10252  0.45659  0.92847  1.0000
  C   C293      1.0  0.01546  0.40406  0.72413  1.0000
  H   H224      1.0  0.27815  0.03392  0.97777  1.0000
  H   H225      1.0  0.02029  0.47067  0.75095  1.0000
  C   C294      1.0  0.28967  0.46789  0.82412  1.0000
  C   C295      1.0  0.04577  0.47386  0.76038  1.0000
  H   H226      1.0  0.41437  0.23315  0.98242  1.0000
  C   C296      1.0  0.98112  0.41632  0.72191  1.0000
  C   C297      1.0  0.25541  0.98497  0.84564  1.0000
  C   C298      1.0  0.38942  0.47569  0.75547  1.0000
  C   C299      1.0  0.41777  0.47650  0.73727  1.0000
  H   H227      1.0  0.45582  0.03484  0.98231  1.0000
  H   H228      1.0  0.11007  0.31978  0.65812  1.0000
  C   C300      1.0  0.47671  0.46847  0.68897  1.0000
  C   C301      1.0  0.08845  0.37177  0.65623  1.0000
  C   C302      1.0  0.40098  0.53121  0.14016  1.0000
  S   S28       1.0  0.00722  0.60940  0.22802  1.0000
  Fe  Fe14      1.0  0.29705  0.60611  0.26250  1.0000
  S   S29       1.0  0.33394  0.60186  0.22555  1.0000
  Fe  Fe15      1.0  0.21742  0.60160  0.27663  1.0000
  S   S30       1.0  0.16651  0.57605  0.26065  1.0000
  C   C303      1.0  0.35564  0.84135  0.25775  1.0000
  S   S31       1.0  0.25177  0.64335  0.25850  1.0000
  S   S32       1.0  0.26192  0.56263  0.27706  1.0000
  C   C304      1.0  0.42958  0.69673  0.27685  1.0000
  H   H229      1.0  0.38035  0.55406  0.10279  1.0000
  C   C305      1.0  0.05102  0.59938  0.23808  1.0000
  C   C306      1.0  0.06404  0.56519  0.23802  1.0000
  C   C307      1.0  0.09931  0.55873  0.24503  1.0000
  C   C308      1.0  0.12193  0.58611  0.25281  1.0000
  C   C309      1.0  0.10877  0.62024  0.25320  1.0000
  C   C310      1.0  0.07365  0.62680  0.24564  1.0000
  H   H230      1.0  0.04712  0.54381  0.23216  1.0000
  H   H231      1.0  0.10928  0.53231  0.24412  1.0000
  H   H232      1.0  0.12577  0.64163  0.25890  1.0000
  H   H233      1.0  0.06395  0.65336  0.24565  1.0000
  C   C311      1.0  0.38014  0.60684  0.22692  1.0000
  C   C312      1.0  0.39829  0.60766  0.25188  1.0000
  C   C313      1.0  0.43506  0.61025  0.25213  1.0000
  H   H234      1.0  0.17588  0.51770  0.29416  1.0000
  C   C314      1.0  0.43603  0.61231  0.20253  1.0000
  C   C315      1.0  0.39924  0.60921  0.20225  1.0000
  H   H235      1.0  0.38401  0.60579  0.27100  1.0000
  H   H236      1.0  0.04039  0.50594  0.09080  1.0000
  H   H237      1.0  0.38172  0.93878  0.21350  1.0000
  H   H238      1.0  0.38545  0.60866  0.18283  1.0000
  H   H239      1.0  0.37033  0.87609  0.29067  1.0000
  H   H240      1.0  0.31259  0.75587  0.25977  1.0000
  C   C316      1.0  0.37385  0.85039  0.28163  1.0000
  C   C317      1.0  0.43740  0.67607  0.29975  1.0000
  C   C318      1.0  0.33566  0.54829  0.16293  1.0000
  Fe  Fe16      1.0  0.47193  0.97734  0.08216  1.0000
  C   C319      1.0  0.37504  0.54723  0.12399  1.0000
  H   H241      1.0  0.35608  0.52750  0.20072  1.0000
  H   H242      1.0  0.45029  0.61459  0.18349  1.0000
  S   S33       1.0  0.22738  0.62037  0.31998  1.0000
  H   H243      1.0  0.30890  0.66746  0.18537  1.0000
  Fe  Fe17      1.0  0.36460  0.96076  0.31685  1.0000
  C   C320      1.0  0.11919  0.54370  0.05975  1.0000
  C   C321      1.0  0.03217  0.51305  0.16042  1.0000
  C   C322      1.0  0.44519  0.59715  0.12083  1.0000
  H   H244      1.0  0.42261  0.86286  0.23642  1.0000
  C   C323      1.0  0.46408  0.73593  0.17302  1.0000
  H   H245      1.0  0.31091  0.55582  0.17209  1.0000
  H   H246      1.0  0.44581  0.65326  0.11688  1.0000
  C   C324      1.0  0.12269  0.50250  0.30289  1.0000
  C   C325      1.0  0.12719  0.62272  0.17338  1.0000
  C   C326      1.0  0.44916  0.76769  0.18101  1.0000
  H   H247      1.0  0.32279  0.56850  0.12291  1.0000
  H   H248      1.0  0.41447  0.79364  0.20883  1.0000
  C   C327      1.0  0.42599  0.76890  0.20322  1.0000
  C   C328      1.0  0.10284  0.54173  0.08540  1.0000
  H   H249      1.0  0.36553  0.68741  0.20274  1.0000
  C   C329      1.0  0.43236  0.70644  0.20920  1.0000
  C   C330      1.0  0.27886  0.70181  0.21129  1.0000
  H   H250      1.0  0.27708  0.79293  0.29015  1.0000
  C   C331      1.0  0.14593  0.59719  0.18769  1.0000
  H   H251      1.0  0.25613  0.73593  0.24170  1.0000
  C   C332      1.0  0.30984  0.68798  0.20072  1.0000
  H   H252      1.0  0.08670  0.63304  0.14389  1.0000
  C   C333      1.0  0.45415  0.61282  0.22755  1.0000
  C   C334      1.0  0.46580  0.90679  0.26801  1.0000
  C   C335      1.0  0.09035  0.59893  0.05104  1.0000
  C   C336      1.0  0.40082  0.96971  0.24738  1.0000
  P   P11       1.0  0.05350  0.48250  0.31381  1.0000
  C   C337      1.0  0.13826  0.56187  0.18367  1.0000
  C   C338      1.0  0.45925  0.56522  0.11163  1.0000
  C   C339      1.0  0.34213  0.69938  0.21081  1.0000
  C   C340      1.0  0.37850  0.68413  0.31662  1.0000
  C   C341      1.0  0.39369  0.52358  0.16783  1.0000
  H   H253      1.0  0.42576  0.59785  0.13696  1.0000
  H   H254      1.0  0.45170  0.91713  0.25053  1.0000
  C   C342      1.0  0.02681  0.60006  0.31061  1.0000
  H   H255      1.0  0.42548  0.68233  0.21945  1.0000
  H   H256      1.0  0.45565  0.79137  0.16995  1.0000
  H   H257      1.0  0.16607  0.60474  0.20226  1.0000
  H   H258      1.0  0.27347  0.49298  0.31228  1.0000
  C   C343      1.0  0.45973  0.92122  0.29400  1.0000
  C   C344      1.0  0.04242  0.52198  0.13364  1.0000
  S   S34       1.0  0.37166  0.95018  0.27101  1.0000
  P   P12       1.0  0.05883  0.56527  0.12702  1.0000
  C   C345      1.0  0.02072  0.59285  0.12942  1.0000
  C   C346      1.0  0.09238  0.57754  0.15131  1.0000
  H   H259      1.0  0.11217  0.52649  0.29459  1.0000
  C   C347      1.0  0.44494  0.87104  0.15899  1.0000
  C   C348      1.0  0.31235  0.73779  0.24267  1.0000
  H   H260      1.0  0.41750  0.77436  0.29267  1.0000
  H   H261      1.0  0.02797  0.51634  0.99377  1.0000
  C   C349      1.0  0.01355  0.61145  0.15364  1.0000
  C   C350      1.0  0.98270  0.63083  0.15604  1.0000
  C   C351      1.0  0.15895  0.49756  0.30235  1.0000
  S   S35       1.0  0.26987  0.72050  0.30552  1.0000
  C   C352      1.0  0.99599  0.59284  0.10807  1.0000
  C   C353      1.0  0.07945  0.56797  0.09376  1.0000
  C   C354      1.0  0.07390  0.59700  0.07666  1.0000
  S   S36       1.0  0.31154  0.62351  0.30515  1.0000
  C   C355      1.0  0.40275  0.97602  0.99775  1.0000
  H   H262      1.0  0.08581  0.62126  0.03781  1.0000
  H   H263      1.0  0.37522  0.86852  0.20218  1.0000
  C   C356      1.0  0.11283  0.57221  0.04252  1.0000
  H   H264      1.0  0.34455  0.71556  0.29189  1.0000
  C   C357      1.0  0.46424  0.96295  0.00289  1.0000
  H   H265      1.0  0.03548  0.53144  0.17722  1.0000
  H   H266      1.0  0.02140  0.62777  0.30884  1.0000
  C   C358      1.0  0.10078  0.61295  0.15501  1.0000
  H   H267      1.0  0.12555  0.57371  0.02266  1.0000
  Fe  Fe18      1.0  0.27290  0.58238  0.31954  1.0000
  P   P13       1.0  0.44434  0.52438  0.12623  1.0000
  H   H268      1.0  0.34554  0.80156  0.22761  1.0000
  H   H269      1.0  0.03119  0.61035  0.17105  1.0000
  C   C359      1.0  0.43194  0.97075  0.01496  1.0000
  C   C360      1.0  0.01394  0.54038  0.29741  1.0000
  C   C361      1.0  0.47352  0.51205  0.15379  1.0000
  H   H270      1.0  0.00041  0.57742  0.08971  1.0000
  H   H271      1.0  0.05712  0.61827  0.08310  1.0000
  H   H272      1.0  0.15265  0.54228  0.19515  1.0000
  Fe  Fe19      1.0  0.26527  0.66007  0.30195  1.0000
  C   C362      1.0  0.34249  0.55563  0.13533  1.0000
  C   C363      1.0  0.28012  0.72651  0.23242  1.0000
  C   C364      1.0  0.39643  0.82627  0.29389  1.0000
  C   C365      1.0  0.40034  0.79285  0.28258  1.0000
  C   C366      1.0  0.38149  0.78323  0.25891  1.0000
  C   C367      1.0  0.35980  0.80810  0.24617  1.0000
  P   P14       1.0  0.38544  0.73943  0.24501  1.0000
  C   C368      1.0  0.41741  0.73826  0.21758  1.0000
  C   C369      1.0  0.39591  0.71084  0.27344  1.0000
  C   C370      1.0  0.34371  0.72486  0.23161  1.0000
  H   H273      1.0  0.25386  0.69230  0.20395  1.0000
  H   H274      1.0  0.44049  0.94177  0.29648  1.0000
  H   H275      1.0  0.41030  0.83336  0.31251  1.0000
  H   H276      1.0  0.44881  0.61019  0.27155  1.0000
  C   C371      1.0  0.37055  0.70458  0.29368  1.0000
  C   C372      1.0  0.36117  0.53215  0.17910  1.0000
  H   H277      1.0  0.13301  0.65009  0.17676  1.0000
  C   C373      1.0  0.01628  0.48084  0.16551  1.0000
  H   H278      1.0  0.41322  0.51199  0.18110  1.0000
  C   C374      1.0  0.11165  0.55198  0.16549  1.0000
  H   H279      1.0  0.99774  0.52243  0.28584  1.0000
  H   H280      1.0  0.10626  0.52448  0.16257  1.0000
  C   C375      1.0  0.40019  0.95861  0.21982  1.0000
  H   H281      1.0  0.38927  0.87347  0.15256  1.0000
  C   C376      1.0  0.00622  0.57606  0.29626  1.0000
  C   C377      1.0  0.41012  0.87116  0.16759  1.0000
  C   C378      1.0  0.42917  0.86561  0.21493  1.0000
  H   H282      1.0  0.33813  0.86022  0.24839  1.0000
  H   H283      1.0  0.46317  0.66455  0.30183  1.0000
  C   C379      1.0  0.46422  0.86641  0.20649  1.0000
  H   H284      1.0  0.13688  0.52313  0.05326  1.0000
  C   C380      1.0  0.42310  0.97314  0.20031  1.0000
  C   C381      1.0  0.40223  0.86835  0.19554  1.0000
  H   H285      1.0  0.45115  0.87299  0.13730  1.0000
  C   C382      1.0  0.41181  0.66959  0.31955  1.0000
  H   H286      1.0  0.10833  0.51966  0.09867  1.0000
  S   S37       1.0  0.47361  0.94800  0.12271  1.0000
  C   C383      1.0  0.47192  0.86872  0.17831  1.0000
  C   C384      1.0  0.45653  0.62875  0.10954  1.0000
  H   H287      1.0  0.38895  0.49034  0.09270  1.0000
  C   C385      1.0  0.45586  0.70535  0.18723  1.0000
  H   H288      1.0  0.44986  0.70125  0.26191  1.0000
  H   H289      1.0  0.42208  0.96462  0.17910  1.0000
  C   C386      1.0  0.44496  0.49059  0.10006  1.0000
  H   H290      1.0  0.29589  0.84649  0.31500  1.0000
  C   C387      1.0  0.28555  0.79093  0.31130  1.0000
  C   C388      1.0  0.41396  0.47914  0.08736  1.0000
  S   S38       1.0  0.42683  0.97426  0.05126  1.0000
  C   C389      1.0  0.04244  0.52844  0.31305  1.0000
  H   H291      1.0  0.46759  0.68073  0.18114  1.0000
  H   H292      1.0  0.98484  0.58526  0.28357  1.0000
  C   C390      1.0  0.03528  0.49879  0.11193  1.0000
  C   C391      1.0  0.45266  0.88800  0.42351  1.0000
  H   H293      1.0  0.28006  0.96020  0.49256  1.0000
  H   H294      1.0  0.39951  0.85117  0.37538  1.0000
  H   H295      1.0  0.10093  0.51988  0.41993  1.0000
  S   S39       1.0  0.28199  0.54533  0.35614  1.0000
  Fe  Fe20      1.0  0.33181  0.91468  0.36113  1.0000
  S   S40       1.0  0.38694  0.92157  0.34642  1.0000
  S   S41       1.0  0.31620  0.85834  0.37296  1.0000
  C   C392      1.0  0.44031  0.80655  0.53527  1.0000
  C   C393      1.0  0.30568  0.78706  0.36622  1.0000
  S   S42       1.0  0.30891  0.95304  0.33087  1.0000
  C   C394      1.0  0.27702  0.49886  0.35614  1.0000
  H   H296      1.0  0.44830  0.78072  0.54192  1.0000
  C   C395      1.0  0.38473  0.80229  0.63091  1.0000
  C   C396      1.0  0.06206  0.55260  0.32843  1.0000
  H   H297      1.0  0.36756  0.60001  0.42785  1.0000
  C   C397      1.0  0.46085  0.97602  0.48708  1.0000
  H   H298      1.0  0.47131  0.83305  0.56593  1.0000
  H   H299      1.0  0.12239  0.49351  0.37190  1.0000
  C   C398      1.0  0.30580  0.82000  0.35318  1.0000
  C   C399      1.0  0.35678  0.51353  0.41416  1.0000
  H   H300      1.0  0.40752  0.78722  0.50295  1.0000
  C   C400      1.0  0.16180  0.53284  0.36629  1.0000
  H   H301      1.0  0.03489  0.50738  0.63527  1.0000
  H   H302      1.0  0.39979  0.57516  0.46771  1.0000
  C   C401      1.0  0.38774  0.55793  0.45276  1.0000
  H   H303      1.0  0.37416  0.84560  0.57016  1.0000
  H   H304      1.0  0.04173  0.53369  0.43643  1.0000
  C   C402      1.0  0.05728  0.51110  0.64859  1.0000
  H   H305      1.0  0.14951  0.54414  0.34830  1.0000
  H   H306      1.0  0.40442  0.51146  0.47347  1.0000
  H   H307      1.0  0.36197  0.78530  0.55400  1.0000
  H   H308      1.0  0.38852  0.85669  0.61850  1.0000
  H   H309      1.0  0.45472  0.88517  0.37939  1.0000
  C   C403      1.0  0.36964  0.57196  0.43035  1.0000
  S   S43       1.0  0.43794  0.97420  0.40487  1.0000
  H   H310      1.0  0.20543  0.56839  0.36519  1.0000
  C   C404      1.0  0.29858  0.77739  0.47032  1.0000
  C   C405      1.0  0.31439  0.74971  0.45626  1.0000
  C   C406      1.0  0.34961  0.75184  0.44883  1.0000
  C   C407      1.0  0.36895  0.78178  0.45519  1.0000
  C   C408      1.0  0.35304  0.81005  0.46878  1.0000
  C   C409      1.0  0.31782  0.80742  0.47667  1.0000
  P   P15       1.0  0.37763  0.84951  0.47541  1.0000
  C   C410      1.0  0.40682  0.84388  0.50443  1.0000
  C   C411      1.0  0.40269  0.86012  0.44507  1.0000
  C   C412      1.0  0.37020  0.76209  0.59382  1.0000
  C   C413      1.0  0.19325  0.54675  0.37588  1.0000
  H   H311      1.0  0.29552  0.73142  0.36240  1.0000
  C   C414      1.0  0.03144  0.48158  0.45079  1.0000
  C   C415      1.0  0.39056  0.85009  0.41894  1.0000
  H   H312      1.0  0.44319  0.88887  0.46675  1.0000
  H   H313      1.0  0.08351  0.54391  0.34124  1.0000
  C   C416      1.0  0.29581  0.75630  0.35190  1.0000
  C   C417      1.0  0.43377  0.87947  0.44714  1.0000
  C   C418      1.0  0.41710  0.81040  0.51316  1.0000
  C   C419      1.0  0.34721  0.88503  0.48106  1.0000
  C   C420      1.0  0.33809  0.89543  0.50783  1.0000
  C   C421      1.0  0.31412  0.92259  0.51195  1.0000
  C   C422      1.0  0.29858  0.93912  0.48942  1.0000
  C   C423      1.0  0.30683  0.92831  0.46278  1.0000
  C   C424      1.0  0.33100  0.90140  0.45857  1.0000
  H   H314      1.0  0.27119  0.77584  0.47585  1.0000
  H   H315      1.0  0.29925  0.72677  0.45087  1.0000
  C   C425      1.0  0.37489  0.49914  0.43662  1.0000
  H   H316      1.0  0.47599  0.90394  0.42518  1.0000
  H   H317      1.0  0.30488  0.82875  0.48719  1.0000
  C   C426      1.0  0.40108  0.96906  0.45399  1.0000
  C   C427      1.0  0.44059  0.87757  0.39767  1.0000
  H   H318      1.0  0.36528  0.73568  0.58673  1.0000
  H   H319      1.0  0.36176  0.73051  0.43769  1.0000
  H   H320      1.0  0.36594  0.83644  0.41651  1.0000
  H   H321      1.0  0.41331  0.89927  0.51138  1.0000
  S   S44       1.0  0.45725  0.94950  0.61028  1.0000
  C   C428      1.0  0.08529  0.49920  0.42867  1.0000
  C   C429      1.0  0.39034  0.52167  0.45594  1.0000
  H   H322      1.0  0.34008  0.56051  0.39363  1.0000
  H   H323      1.0  0.34947  0.88274  0.52558  1.0000
  H   H324      1.0  0.30774  0.93091  0.53263  1.0000
  C   C430      1.0  0.16275  0.48980  0.40299  1.0000
  H   H325      1.0  0.29449  0.94067  0.44525  1.0000
  H   H326      1.0  0.33678  0.89339  0.43769  1.0000
  C   C431      1.0  0.14669  0.50423  0.37962  1.0000
  S   S45       1.0  0.33706  0.95717  0.39343  1.0000
  C   C432      1.0  0.37503  0.82397  0.58452  1.0000
  C   C433      1.0  0.35418  0.54974  0.41106  1.0000
  C   C434      1.0  0.28508  0.75802  0.32437  1.0000
  H   H327      1.0  0.31286  0.78537  0.38769  1.0000
  H   H328      1.0  0.45783  0.77752  0.64470  1.0000
  C   C435      1.0  0.36834  0.79000  0.57539  1.0000
  H   H329      1.0  0.39610  0.78326  0.44895  1.0000
  H   H330      1.0  0.27974  0.49527  0.40024  1.0000
  H   H331      1.0  0.37323  0.96411  0.49224  1.0000
  C   C436      1.0  0.44857  0.58712  0.63290  1.0000
  C   C437      1.0  0.43360  0.97342  0.44135  1.0000
  C   C438      1.0  0.20963  0.53218  0.39882  1.0000
  C   C439      1.0  0.19477  0.50349  0.41215  1.0000
  C   C440      1.0  0.05186  0.50735  0.43840  1.0000
  C   C441      1.0  0.40958  0.85854  0.39541  1.0000
  C   C442      1.0  0.37842  0.76815  0.62145  1.0000
  C   C443      1.0  0.38324  0.83015  0.61212  1.0000
  H   H332      1.0  0.23447  0.54267  0.40570  1.0000
  C   C444      1.0  0.42035  0.87325  0.51806  1.0000
  H   H333      1.0  0.18233  0.48278  0.51429  1.0000
  C   C445      1.0  0.39850  0.96781  0.48283  1.0000
  H   H334      1.0  0.47398  0.92104  0.33680  1.0000
  C   C446      1.0  0.44336  0.86937  0.54020  1.0000
  C   C447      1.0  0.45335  0.83602  0.54883  1.0000
  H   H335      1.0  0.34457  0.49687  0.39893  1.0000
  H   H336      1.0  0.20862  0.49192  0.42926  1.0000
  H   H337      1.0  0.07055  0.60698  0.33797  1.0000
  H   H338      1.0  0.05300  0.56715  0.64723  1.0000
  H   H339      1.0  0.37970  0.74616  0.63545  1.0000
  H   H340      1.0  0.15958  0.49691  0.46806  1.0000
  H   H341      1.0  0.41768  0.65313  0.33706  1.0000
  H   H342      1.0  0.45363  0.89239  0.55049  1.0000
  H   H343      1.0  0.35853  0.67934  0.33194  1.0000
  C   C448      1.0  0.27369  0.47957  0.33184  1.0000
  H   H344      1.0  0.30501  0.47823  0.44368  1.0000
  C   C449      1.0  0.05456  0.58832  0.32689  1.0000
  H   H345      1.0  0.00544  0.48794  0.45812  1.0000
  C   C450      1.0  0.46347  0.97710  0.45811  1.0000
  C   C451      1.0  0.29620  0.82154  0.32541  1.0000
  Fe  Fe21      1.0  0.39078  0.96597  0.37674  1.0000
  H   H346      1.0  0.46093  0.48346  0.64768  1.0000
  C   C452      1.0  0.42829  0.97100  0.49958  1.0000
  H   H347      1.0  0.44422  0.60474  0.61583  1.0000
  H   H348      1.0  0.39379  0.58121  0.64210  1.0000
  H   H349      1.0  0.37786  0.96638  0.44160  1.0000
  S   S46       1.0  0.42331  0.96594  0.53570  1.0000
  H   H350      1.0  0.01843  0.51186  0.36300  1.0000
  C   C453      1.0  0.27740  0.48068  0.38133  1.0000
  C   C454      1.0  0.42023  0.57381  0.64765  1.0000
  C   C455      1.0  0.01820  0.48367  0.36432  1.0000
  H   H351      1.0  0.98831  0.48443  0.40186  1.0000
  C   C456      1.0  0.06758  0.54509  0.65530  1.0000
  C   C457      1.0  0.46015  0.54181  0.67738  1.0000
  S   S47       1.0  0.00954  0.62359  0.75759  1.0000
  Fe  Fe22      1.0  0.30842  0.63685  0.76379  1.0000
  S   S48       1.0  0.32114  0.64571  0.80819  1.0000
  S   S49       1.0  0.34816  0.63000  0.72905  1.0000
  Fe  Fe23      1.0  0.22824  0.64089  0.77421  1.0000
  S   S50       1.0  0.23691  0.65229  0.81928  1.0000
  S   S51       1.0  0.17786  0.62301  0.75168  1.0000
  Fe  Fe24      1.0  0.28066  0.68882  0.80627  1.0000
  S   S52       1.0  0.30122  0.73787  0.82916  1.0000
  Fe  Fe25      1.0  0.27676  0.60877  0.81749  1.0000
  S   S53       1.0  0.27513  0.56808  0.85197  1.0000
  S   S54       1.0  0.26917  0.68076  0.76103  1.0000
  S   S55       1.0  0.26726  0.59658  0.77319  1.0000
  Fe  Fe26      1.0  0.34448  0.94834  0.84781  1.0000
  S   S56       1.0  0.40313  0.94433  0.84701  1.0000
  S   S57       1.0  0.30841  0.90618  0.82880  1.0000
  H   H352      1.0  0.32152  0.75759  0.74662  1.0000
  C   C458      1.0  0.41640  0.91439  0.67070  1.0000
  H   H353      1.0  0.06510  0.50744  0.72848  1.0000
  C   C459      1.0  0.27796  0.52168  0.84942  1.0000
  C   C460      1.0  0.27297  0.50145  0.87323  1.0000
  H   H354      1.0  0.38905  0.76106  0.71390  1.0000
  H   H355      1.0  0.26693  0.51431  0.89246  1.0000
  H   H356      1.0  0.28935  0.51975  0.80616  1.0000
  C   C461      1.0  0.30317  0.78468  0.82801  1.0000
  C   C462      1.0  0.32645  0.80225  0.84578  1.0000
  C   C463      1.0  0.32907  0.83915  0.84593  1.0000
  C   C464      1.0  0.30777  0.85928  0.82865  1.0000
  C   C465      1.0  0.28465  0.84174  0.81070  1.0000
  C   C466      1.0  0.28247  0.80479  0.81024  1.0000
  H   H357      1.0  0.34247  0.78712  0.85970  1.0000
  H   H358      1.0  0.34693  0.85199  0.85992  1.0000
  H   H359      1.0  0.26795  0.85687  0.79726  1.0000
  H   H360      1.0  0.26436  0.79187  0.79650  1.0000
  C   C467      1.0  0.05645  0.62104  0.75746  1.0000
  C   C468      1.0  0.07474  0.59734  0.74085  1.0000
  C   C469      1.0  0.11175  0.59788  0.74005  1.0000
  C   C470      1.0  0.13127  0.62167  0.75601  1.0000
  C   C471      1.0  0.11306  0.64454  0.77337  1.0000
  C   C472      1.0  0.07598  0.64432  0.77394  1.0000
  H   H361      1.0  0.06035  0.57926  0.72804  1.0000
  H   H362      1.0  0.12548  0.58010  0.72664  1.0000
  H   H363      1.0  0.12748  0.66313  0.78571  1.0000
  H   H364      1.0  0.06233  0.66283  0.78688  1.0000
  C   C473      1.0  0.39437  0.63274  0.73193  1.0000
  C   C474      1.0  0.41131  0.63483  0.75739  1.0000
  C   C475      1.0  0.44813  0.63657  0.75869  1.0000
  H   H365      1.0  0.04819  0.57305  0.88629  1.0000
  C   C476      1.0  0.45154  0.63277  0.70920  1.0000
  C   C477      1.0  0.41472  0.63171  0.70789  1.0000
  H   H366      1.0  0.39603  0.63477  0.77609  1.0000
  H   H367      1.0  0.44738  0.93424  0.72927  1.0000
  C   C478      1.0  0.28573  0.50461  0.82469  1.0000
  H   H368      1.0  0.40190  0.62985  0.68811  1.0000
  H   H369      1.0  0.41662  0.85875  0.90072  1.0000
  H   H370      1.0  0.35139  0.70092  0.75393  1.0000
  H   H371      1.0  0.39979  0.69648  0.78707  1.0000
  H   H372      1.0  0.43338  0.87887  0.80558  1.0000
  H   H373      1.0  0.36187  0.65273  0.86441  1.0000
  C   C479      1.0  0.21904  0.52919  0.74448  1.0000
  H   H374      1.0  0.32762  0.77204  0.66191  1.0000
  P   P16       1.0  0.39443  0.80980  0.66685  1.0000
  H   H375      1.0  0.19844  0.51407  0.92319  1.0000
  C   C480      1.0  0.99263  0.52143  0.91911  1.0000
  C   C481      1.0  0.19119  0.52602  0.76284  1.0000
  H   H376      1.0  0.42598  0.71166  0.72879  1.0000
  C   C482      1.0  0.11101  0.48396  0.78582  1.0000
  C   C483      1.0  0.47504  0.74777  0.80680  1.0000
  C   C484      1.0  0.37249  0.91011  0.76141  1.0000
  C   C485      1.0  0.04008  0.50928  0.95079  1.0000
  C   C486      1.0  0.17095  0.51136  0.91807  1.0000
  C   C487      1.0  0.39881  0.88247  0.66922  1.0000
  C   C488      1.0  0.29423  0.79209  0.69349  1.0000
  H   H377      1.0  0.24685  0.95315  0.80987  1.0000
  H   H378      1.0  0.26645  0.81680  0.72680  1.0000
  C   C489      1.0  0.02745  0.50729  0.84188  1.0000
  C   C490      1.0  0.43319  0.72677  0.71084  1.0000
  H   H379      1.0  0.46958  0.82828  0.67414  1.0000
  C   C491      1.0  0.14953  0.53540  0.81936  1.0000
  C   C492      1.0  0.11825  0.55477  0.81911  1.0000
  C   C493      1.0  0.11779  0.58914  0.82892  1.0000
  C   C494      1.0  0.14823  0.60417  0.83954  1.0000
  C   C495      1.0  0.17924  0.58491  0.84015  1.0000
  C   C496      1.0  0.18012  0.55099  0.82960  1.0000
  H   H380      1.0  0.22187  0.55298  0.73257  1.0000
  C   C497      1.0  0.39322  0.69396  0.84719  1.0000
  C   C498      1.0  0.29080  0.81541  0.71544  1.0000
  C   C499      1.0  0.10003  0.50368  0.90386  1.0000
  H   H381      1.0  0.17309  0.54768  0.76493  1.0000
  H   H382      1.0  0.13573  0.52635  0.69782  1.0000
  C   C500      1.0  0.40574  0.97362  0.96887  1.0000
  C   C501      1.0  0.43987  0.81614  0.84201  1.0000
  C   C502      1.0  0.38613  0.53877  0.75438  1.0000
  C   C503      1.0  0.38678  0.89365  0.78440  1.0000
  H   H383      1.0  0.46640  0.93989  0.67383  1.0000
  C   C504      1.0  0.04054  0.52345  0.86569  1.0000
  C   C505      1.0  0.03963  0.56008  0.86766  1.0000
  C   C506      1.0  0.02735  0.51071  0.92369  1.0000
  H   H384      1.0  0.09441  0.54405  0.81059  1.0000
  H   H385      1.0  0.09406  0.60450  0.82753  1.0000
  H   H386      1.0  0.14803  0.63097  0.84673  1.0000
  H   H387      1.0  0.20297  0.59640  0.84831  1.0000
  H   H388      1.0  0.20493  0.53725  0.82898  1.0000
  C   C507      1.0  0.15460  0.53612  0.90131  1.0000
  C   C508      1.0  0.44546  0.90655  0.76801  1.0000
  C   C509      1.0  0.31901  0.83647  0.72309  1.0000
  H   H389      1.0  0.34167  0.81037  0.77200  1.0000
  C   C510      1.0  0.43090  0.92245  0.74468  1.0000
  H   H390      1.0  0.00458  0.51500  0.80175  1.0000
  H   H391      1.0  0.98159  0.52151  0.89858  1.0000
  C   C511      1.0  0.32566  0.79022  0.67886  1.0000
  C   C512      1.0  0.45042  0.65031  0.85746  1.0000
  C   C513      1.0  0.45274  0.91505  0.67326  1.0000
  C   C514      1.0  0.45076  0.76380  0.66338  1.0000
  C   C515      1.0  0.47147  0.88375  0.67441  1.0000
  C   C516      1.0  0.42700  0.70505  0.84001  1.0000
  C   C517      1.0  0.45566  0.68314  0.84550  1.0000
  P   P17       1.0  0.43302  0.74711  0.82386  1.0000
  C   C518      1.0  0.42924  0.78209  0.84883  1.0000
  H   H392      1.0  0.40353  0.54028  0.68026  1.0000
  H   H393      1.0  0.38302  0.97765  0.95598  1.0000
  C   C519      1.0  0.42045  0.83732  0.88639  1.0000
  C   C520      1.0  0.41014  0.80352  0.89348  1.0000
  C   C521      1.0  0.41448  0.77599  0.87482  1.0000
  C   C522      1.0  0.39940  0.75136  0.79789  1.0000
  C   C523      1.0  0.38811  0.72174  0.78328  1.0000
  C   C524      1.0  0.36058  0.72416  0.76448  1.0000
  C   C525      1.0  0.34392  0.75615  0.76020  1.0000
  C   C526      1.0  0.35542  0.78588  0.77424  1.0000
  C   C527      1.0  0.38304  0.78359  0.79295  1.0000
  H   H394      1.0  0.45110  0.82149  0.82206  1.0000
  H   H395      1.0  0.45897  0.71366  0.77347  1.0000
  H   H396      1.0  0.27248  0.77538  0.68784  1.0000
  C   C528      1.0  0.10316  0.48795  0.67776  1.0000
  S   S58       1.0  0.98845  0.53353  0.72447  1.0000
  C   C529      1.0  0.35080  0.83397  0.70901  1.0000
  H   H397      1.0  0.39820  0.79873  0.91331  1.0000
  H   H398      1.0  0.40563  0.75024  0.88069  1.0000
  C   C530      1.0  0.46354  0.71828  0.69633  1.0000
  H   H399      1.0  0.46887  0.78316  0.73321  1.0000
  H   H400      1.0  0.36977  0.88286  0.80000  1.0000
  H   H401      1.0  0.37068  0.71049  0.84328  1.0000
  C   C531      1.0  0.38811  0.66122  0.85922  1.0000
  H   H402      1.0  0.34435  0.91247  0.75942  1.0000
  C   C532      1.0  0.42302  0.89174  0.78763  1.0000
  H   H403      1.0  0.41251  0.61380  0.87333  1.0000
  H   H404      1.0  0.31637  0.85424  0.74034  1.0000
  C   C533      1.0  0.46846  0.63575  0.73462  1.0000
  P   P18       1.0  0.05434  0.49767  0.89490  1.0000
  C   C534      1.0  0.41215  0.75464  0.70216  1.0000
  C   C535      1.0  0.41666  0.63932  0.86424  1.0000
  H   H405      1.0  0.37069  0.88256  0.66654  1.0000
  H   H406      1.0  0.46676  0.63170  0.69050  1.0000
  C   C536      1.0  0.01494  0.52751  0.82002  1.0000
  H   H407      1.0  0.38349  0.93695  0.72358  1.0000
  H   H408      1.0  0.42413  0.56463  0.72934  1.0000
  C   C537      1.0  0.39454  0.92405  0.74138  1.0000
  H   H409      1.0  0.35171  0.50620  0.77818  1.0000
  H   H410      1.0  0.02651  0.60844  0.84723  1.0000
  C   C538      1.0  0.45403  0.85179  0.67327  1.0000
  C   C539      1.0  0.11937  0.53222  0.89403  1.0000
  C   C540      1.0  0.02705  0.58019  0.84575  1.0000
  H   H411      1.0  0.16950  0.55812  0.89367  1.0000
  C   C541      1.0  0.41460  0.53965  0.73640  1.0000
  C   C542      1.0  0.42109  0.77369  0.67853  1.0000
  H   H412      1.0  0.46092  0.63849  0.77849  1.0000
  C   C543      1.0  0.01491  0.56389  0.82189  1.0000
  C   C544      1.0  0.09605  0.55058  0.67281  1.0000
  H   H413      1.0  0.25716  0.96274  0.85940  1.0000
  C   C545      1.0  0.01851  0.51862  0.97283  1.0000
  S   S59       1.0  0.44309  0.96078  0.92063  1.0000
  C   C546      1.0  0.07517  0.48228  0.65954  1.0000
  H   H414      1.0  0.12237  0.51641  0.75047  1.0000
  C   C547      1.0  0.43063  0.50858  0.72754  1.0000
  H   H415      1.0  0.10767  0.55139  0.88064  1.0000
  C   C548      1.0  0.43530  0.84360  0.86069  1.0000
  C   C549      1.0  0.98414  0.52942  0.96803  1.0000
  H   H416      1.0  0.40197  0.93872  0.66932  1.0000
  C   C550      1.0  0.43794  0.96531  0.95685  1.0000
  H   H417      1.0  0.39010  0.80674  0.80434  1.0000
  H   H418      1.0  0.37265  0.84970  0.71592  1.0000
  C   C551      1.0  0.37360  0.50680  0.76402  1.0000
  C   C552      1.0  0.35409  0.81148  0.68626  1.0000
  H   H419      1.0  0.47413  0.94554  0.81776  1.0000
  H   H420      1.0  0.10386  0.57701  0.67805  1.0000
  H   H421      1.0  0.44278  0.86995  0.85524  1.0000
  S   S60       1.0  0.34360  0.97386  0.88997  1.0000
  C   C553      1.0  0.47205  0.73648  0.67247  1.0000
  H   H422      1.0  0.45318  0.83613  0.75885  1.0000
  H   H423      1.0  0.00503  0.57941  0.80494  1.0000
  C   C554      1.0  0.42592  0.55089  0.66958  1.0000
  C   C555      1.0  0.10363  0.49950  0.76031  1.0000
  H   H424      1.0  0.37376  0.56297  0.76085  1.0000
  H   H425      1.0  0.47252  0.63327  0.86138  1.0000
  C   C556      1.0  0.11393  0.52202  0.68396  1.0000
  C   C557      1.0  0.46713  0.96009  0.97404  1.0000
  C   C558      1.0  0.07110  0.49452  0.74772  1.0000
  C   C559      1.0  0.41746  0.85082  0.67063  1.0000
  H   H426      1.0  0.06625  0.50029  0.95520  1.0000
  C   C560      1.0  0.15200  0.48276  0.92779  1.0000
  H   H427      1.0  0.18500  0.49230  0.85875  1.0000
  Fe  Fe27      1.0  0.40239  0.97324  0.88756  1.0000
  C   C561      1.0  0.24390  0.50255  0.74241  1.0000
  H   H428      1.0  0.26606  0.50557  0.72878  1.0000
  H   H429      1.0  0.02603  0.47914  0.84030  1.0000
  P   P19       1.0  0.15193  0.49286  0.80331  1.0000
  C   C562      1.0  0.18752  0.49584  0.77899  1.0000
  P   P20       1.0  0.46789  0.51054  0.70456  1.0000
  C   C563      1.0  0.11674  0.47900  0.92080  1.0000
  Fe  Fe28      1.0  0.53723  0.02007  0.09403  1.0000
  C   C564      1.0  0.74391  0.20710  0.12028  1.0000
  S   S61       1.0  0.57244  0.06197  0.07411  1.0000
  H   H430      1.0  0.62813  0.21234  0.15750  1.0000
  C   C565      1.0  0.61701  0.13142  0.13013  1.0000
  H   H431      1.0  0.67364  0.16712  0.08448  1.0000
  S   S62       1.0  0.83885  0.36647  0.00407  1.0000
  S   S63       1.0  0.67304  0.34035  0.99497  1.0000
  C   C566      1.0  0.74150  0.46011  0.19705  1.0000
  H   H432      1.0  0.60693  0.35979  0.14432  1.0000
  C   C567      1.0  0.60088  0.30534  0.13424  1.0000
  H   H433      1.0  0.74049  0.19570  0.10004  1.0000
  Fe  Fe29      1.0  0.57452  0.27891  0.05242  1.0000
  S   S64       1.0  0.58455  0.28779  0.00733  1.0000
  S   S65       1.0  0.55771  0.22903  0.07545  1.0000
  Fe  Fe30      1.0  0.57324  0.35837  0.06445  1.0000
  S   S66       1.0  0.58218  0.37238  0.02013  1.0000
  S   S67       1.0  0.56580  0.39436  0.10177  1.0000
  Fe  Fe31      1.0  0.54333  0.32970  0.01014  1.0000
  C   C568      1.0  0.72172  0.24047  0.15887  1.0000
  Fe  Fe32      1.0  0.62315  0.32976  0.02038  1.0000
  H   H434      1.0  0.51029  0.24902  0.01535  1.0000
  S   S68       1.0  0.53133  0.31902  0.05435  1.0000
  S   S69       1.0  0.61619  0.31779  0.06546  1.0000
  H   H435      1.0  0.86600  0.43572  0.24938  1.0000
  C   C569      1.0  0.77316  0.35221  0.02488  1.0000
  H   H436      1.0  0.57254  0.30641  0.13458  1.0000
  C   C570      1.0  0.66377  0.44131  0.11449  1.0000
  C   C571      1.0  0.77299  0.45334  0.21074  1.0000
  H   H437      1.0  0.74460  0.27351  0.03309  1.0000
  C   C572      1.0  0.62029  0.33554  0.13953  1.0000
  H   H438      1.0  0.60266  0.10737  0.13355  1.0000
  H   H439      1.0  0.67157  0.35856  0.14049  1.0000
  H   H440      1.0  0.60309  0.11600  0.04044  1.0000
  H   H441      1.0  0.84451  0.37608  0.25996  1.0000
  H   H442      1.0  0.59727  0.18062  0.03958  1.0000
  C   C573      1.0  0.80478  0.46194  0.19842  1.0000
  C   C574      1.0  0.56924  0.44063  0.10224  1.0000
  H   H443      1.0  0.77286  0.44115  0.23082  1.0000
  H   H444      1.0  0.56190  0.44399  0.14612  1.0000
  H   H445      1.0  0.57735  0.44641  0.05875  1.0000
  C   C575      1.0  0.56568  0.10821  0.07300  1.0000
  C   C576      1.0  0.54282  0.12522  0.09105  1.0000
  C   C577      1.0  0.54052  0.16207  0.09116  1.0000
  C   C578      1.0  0.56037  0.18252  0.07288  1.0000
  C   C579      1.0  0.58207  0.16546  0.05398  1.0000
  C   C580      1.0  0.58502  0.12863  0.05432  1.0000
  H   H446      1.0  0.52782  0.11005  0.10560  1.0000
  H   H447      1.0  0.52359  0.17488  0.10585  1.0000
  C   C581      1.0  0.67377  0.30379  0.13007  1.0000
  H   H448      1.0  0.54832  0.11802  0.99652  1.0000
  C   C582      1.0  0.50049  0.19356  0.01466  1.0000
  H   H449      1.0  0.63509  0.41044  0.08494  1.0000
  H   H450      1.0  0.96147  0.42420  0.25924  1.0000
  C   C583      1.0  0.93651  0.44886  0.07870  1.0000
  C   C584      1.0  0.72219  0.40334  0.09706  1.0000
  H   H451      1.0  0.70097  0.25495  0.16887  1.0000
  H   H452      1.0  0.83478  0.39368  0.12970  1.0000
  H   H453      1.0  0.65363  0.42591  0.17015  1.0000
  C   C585      1.0  0.77516  0.20125  0.13454  1.0000
  H   H454      1.0  0.69721  0.26045  0.99998  1.0000
  H   H455      1.0  0.88342  0.38154  0.05081  1.0000
  H   H456      1.0  0.64158  0.23448  0.01632  1.0000
  C   C586      1.0  0.61960  0.44890  0.20013  1.0000
  C   C587      1.0  0.63915  0.13420  0.10746  1.0000
  H   H457      1.0  0.79574  0.18580  0.12518  1.0000
  H   H458      1.0  0.73817  0.45934  0.27565  1.0000
  C   C588      1.0  0.56628  0.45858  0.12743  1.0000
  H   H459      1.0  0.74492  0.38906  0.08983  1.0000
  H   H460      1.0  0.70190  0.30393  0.12753  1.0000
  H   H461      1.0  0.60219  0.25175  0.12149  1.0000
  C   C589      1.0  0.68944  0.39662  0.08549  1.0000
  C   C590      1.0  0.63100  0.19093  0.14314  1.0000
  C   C591      1.0  0.66033  0.41558  0.09421  1.0000
  C   C592      1.0  0.69654  0.44825  0.12641  1.0000
  C   C593      1.0  0.77977  0.21508  0.16089  1.0000
  C   C594      1.0  0.86729  0.39659  0.06481  1.0000
  H   H462      1.0  0.64200  0.11219  0.09357  1.0000
  H   H463      1.0  0.49700  0.19190  0.03674  1.0000
  C   C595      1.0  0.65673  0.16551  0.10225  1.0000
  C   C596      1.0  0.86059  0.38394  0.09117  1.0000
  C   C597      1.0  0.73665  0.34638  0.02358  1.0000
  C   C598      1.0  0.65233  0.19434  0.11982  1.0000
  H   H464      1.0  0.50479  0.07594  0.05456  1.0000
  C   C599      1.0  0.75300  0.23453  0.17311  1.0000
  H   H465      1.0  0.75638  0.24479  0.19371  1.0000
  C   C600      1.0  0.49083  0.06702  0.30385  1.0000
  C   C601      1.0  0.61786  0.27429  0.12693  1.0000
  H   H466      1.0  0.93562  0.42572  0.06594  1.0000
  C   C602      1.0  0.65671  0.33481  0.13734  1.0000
  C   C603      1.0  0.92963  0.47648  0.12377  1.0000
  C   C604      1.0  0.57501  0.45982  0.07825  1.0000
  H   H467      1.0  0.59579  0.15749  0.16557  1.0000
  C   C605      1.0  0.92773  0.44687  0.10675  1.0000
  C   C606      1.0  0.79215  0.42297  0.30291  1.0000
  C   C607      1.0  0.83222  0.44811  0.07421  1.0000
  H   H468      1.0  0.71722  0.45274  0.20681  1.0000
  C   C608      1.0  0.76735  0.47623  0.05483  1.0000
  H   H469      1.0  0.80397  0.21043  0.17194  1.0000
  C   C609      1.0  0.80636  0.39398  0.28939  1.0000
  C   C610      1.0  0.71882  0.34924  0.99851  1.0000
  C   C611      1.0  0.61301  0.15972  0.14802  1.0000
  H   H470      1.0  0.63270  0.22315  0.06576  1.0000
  H   H471      1.0  0.68655  0.37711  0.06946  1.0000
  C   C612      1.0  0.48220  0.07407  0.04133  1.0000
  C   C613      1.0  0.83962  0.40323  0.10912  1.0000
  C   C614      1.0  0.72573  0.42889  0.11749  1.0000
  H   H472      1.0  0.75130  0.43330  0.12610  1.0000
  H   H473      1.0  0.73598  0.26300  0.08264  1.0000
  C   C615      1.0  0.66243  0.23986  0.03081  1.0000
  C   C616      1.0  0.69383  0.25428  0.02158  1.0000
  C   C617      1.0  0.72047  0.26189  0.04033  1.0000
  C   C618      1.0  0.71556  0.25559  0.06837  1.0000
  C   C619      1.0  0.68435  0.24038  0.07771  1.0000
  C   C620      1.0  0.65757  0.23324  0.05879  1.0000
  P   P21       1.0  0.67668  0.23404  0.11392  1.0000
  C   C621      1.0  0.71727  0.22739  0.13212  1.0000
  C   C622      1.0  0.65450  0.27311  0.12533  1.0000
  C   C623      1.0  0.82523  0.43501  0.10057  1.0000
  C   C624      1.0  0.84465  0.43212  0.26374  1.0000
  H   H474      1.0  0.49083  0.13898  0.00787  1.0000
  H   H475      1.0  0.58369  0.06853  0.01221  1.0000
  H   H476      1.0  0.78674  0.34907  0.04424  1.0000
  S   S70       1.0  0.93846  0.38531  0.00427  1.0000
  H   H477      1.0  0.80903  0.44963  0.11459  1.0000
  H   H478      1.0  0.87188  0.35930  0.09761  1.0000
  C   C625      1.0  0.83276  0.39855  0.26990  1.0000
  H   H479      1.0  0.72249  0.33877  0.04180  1.0000
  C   C626      1.0  0.80420  0.45678  0.29696  1.0000
  H   H480      1.0  0.51446  0.05658  0.31305  1.0000
  H   H481      1.0  0.60509  0.42496  0.20338  1.0000
  H   H482      1.0  0.79747  0.36791  0.29451  1.0000
  C   C627      1.0  0.79239  0.36170  0.00132  1.0000
  C   C628      1.0  0.49298  0.09002  0.28163  1.0000
  H   H483      1.0  0.50709  0.03873  0.01309  1.0000
  H   H484      1.0  0.85838  0.43748  0.03559  1.0000
  S   S71       1.0  0.48041  0.02976  0.10231  1.0000
  C   C629      1.0  0.85318  0.42853  0.05628  1.0000
  H   H485      1.0  0.64074  0.45558  0.12090  1.0000
  H   H486      1.0  0.91985  0.42209  0.11537  1.0000
  C   C630      1.0  0.74164  0.47582  0.17093  1.0000
  Fe  Fe33      1.0  0.94277  0.44358  0.99994  1.0000
  H   H487      1.0  0.50228  0.43569  0.06775  1.0000
  H   H488      1.0  0.82921  0.45624  0.20876  1.0000
  C   C631      1.0  0.49798  0.46713  0.18350  1.0000
  S   S72       1.0  0.54555  0.99328  0.13472  1.0000
  C   C632      1.0  0.64698  0.44963  0.18110  1.0000
  H   H489      1.0  0.51833  0.09746  0.27362  1.0000
  H   H490      1.0  0.72363  0.42086  0.01178  1.0000
  Fe  Fe34      1.0  0.48783  0.99964  0.14164  1.0000
  C   C633      1.0  0.76168  0.44956  0.03541  1.0000
  C   C634      1.0  0.49765  0.16360  0.99831  1.0000
  C   C635      1.0  0.69914  0.45854  0.03836  1.0000
  C   C636      1.0  0.72775  0.44102  0.02709  1.0000
  C   C637      1.0  0.56842  0.06627  0.99350  1.0000
  C   C638      1.0  0.48369  0.05348  0.01772  1.0000
  C   C639      1.0  0.50818  0.22576  0.00265  1.0000
  H   H491      1.0  0.67284  0.45172  0.03191  1.0000
  S   S73       1.0  0.91866  0.47197  0.15898  1.0000
  H   H492      1.0  0.78357  0.43576  0.02623  1.0000
  H   H493      1.0  0.50174  0.43977  0.18834  1.0000
  C   C640      1.0  0.83017  0.46119  0.27698  1.0000
  H   H494      1.0  0.77219  0.41897  0.31838  1.0000
  C   C641      1.0  0.80521  0.47783  0.17264  1.0000
  Fe  Fe35      1.0  0.91120  0.44069  0.44909  1.0000
  S   S74       1.0  0.91296  0.38553  0.43387  1.0000
  H   H495      1.0  0.70768  0.31072  0.54590  1.0000
  Fe  Fe36      1.0  0.95823  0.37891  0.46356  1.0000
  C   C642      1.0  0.77542  0.37812  0.49056  1.0000
  H   H496      1.0  0.73381  0.40946  0.50767  1.0000
  H   H497      1.0  0.79412  0.39922  0.49022  1.0000
  C   C643      1.0  0.82396  0.47177  0.54502  1.0000
  C   C644      1.0  0.81678  0.37896  0.56399  1.0000
  C   C645      1.0  0.77944  0.31625  0.56151  1.0000
  H   H498      1.0  0.66736  0.26381  0.53189  1.0000
  C   C646      1.0  0.92439  0.47775  0.62703  1.0000
  Fe  Fe37      1.0  0.51628  0.02955  0.59265  1.0000
  C   C647      1.0  0.82792  0.35221  0.54655  1.0000
  S   S75       1.0  0.54813  0.07418  0.57302  1.0000
  C   C648      1.0  0.91197  0.45399  0.60715  1.0000
  C   C649      1.0  0.67973  0.42733  0.57210  1.0000
  Fe  Fe38      1.0  0.91680  0.41728  0.50972  1.0000
  S   S76       1.0  0.92140  0.36066  0.49704  1.0000
  S   S77       1.0  0.90752  0.42452  0.55586  1.0000
  Fe  Fe39      1.0  0.87612  0.37317  0.46894  1.0000
  S   S78       1.0  0.82824  0.33685  0.46758  1.0000
  S   S79       1.0  0.87114  0.42909  0.48193  1.0000
  Fe  Fe40      1.0  0.57237  0.29017  0.55998  1.0000
  S   S80       1.0  0.58698  0.29709  0.51530  1.0000
  S   S81       1.0  0.56076  0.24087  0.58566  1.0000
  Fe  Fe41      1.0  0.56476  0.37029  0.56923  1.0000
  S   S82       1.0  0.57679  0.38191  0.52501  1.0000
  S   S83       1.0  0.55482  0.40805  0.60519  1.0000
  Fe  Fe42      1.0  0.54230  0.33583  0.51454  1.0000
  S   S84       1.0  0.50495  0.33618  0.47768  1.0000
  Fe  Fe43      1.0  0.62079  0.34265  0.52901  1.0000
  S   S85       1.0  0.67379  0.36574  0.51489  1.0000
  S   S86       1.0  0.52663  0.32737  0.55840  1.0000
  S   S87       1.0  0.60959  0.33273  0.57397  1.0000
  C   C650      1.0  0.78538  0.34517  0.48083  1.0000
  C   C651      1.0  0.76054  0.31798  0.48143  1.0000
  C   C652      1.0  0.72635  0.32357  0.49168  1.0000
  C   C653      1.0  0.71640  0.35662  0.50135  1.0000
  C   C654      1.0  0.74119  0.38380  0.50053  1.0000
  H   H499      1.0  0.76782  0.29238  0.47391  1.0000
  H   H500      1.0  0.70769  0.30238  0.49194  1.0000
  C   C655      1.0  0.65951  0.25664  0.60125  1.0000
  C   C656      1.0  0.92257  0.45643  0.57953  1.0000
  H   H501      1.0  0.49448  0.05380  0.52593  1.0000
  H   H502      1.0  0.89447  0.43326  0.61326  1.0000
  H   H503      1.0  0.51985  0.12407  0.61363  1.0000
  H   H504      1.0  0.48782  0.25567  0.45836  1.0000
  C   C657      1.0  0.56254  0.45388  0.60696  1.0000
  C   C658      1.0  0.74475  0.36065  0.65266  1.0000
  H   H505      1.0  0.84931  0.46854  0.53534  1.0000
  C   C659      1.0  0.67355  0.38113  0.61624  1.0000
  C   C660      1.0  0.54813  0.12090  0.57556  1.0000
  C   C661      1.0  0.56545  0.14064  0.55525  1.0000
  C   C662      1.0  0.56832  0.17744  0.55732  1.0000
  C   C663      1.0  0.55438  0.19506  0.58003  1.0000
  C   C664      1.0  0.53651  0.17540  0.60006  1.0000
  C   C665      1.0  0.53306  0.13870  0.59774  1.0000
  H   H506      1.0  0.57731  0.12724  0.53803  1.0000
  H   H507      1.0  0.58242  0.19198  0.54188  1.0000
  H   H508      1.0  0.83643  0.44493  0.40046  1.0000
  H   H509      1.0  0.49807  0.13154  0.46248  1.0000
  C   C666      1.0  0.81907  0.43688  0.63528  1.0000
  C   C667      1.0  0.48799  0.07977  0.51855  1.0000
  H   H510      1.0  0.63574  0.22940  0.56728  1.0000
  H   H511      1.0  0.52573  0.18860  0.61780  1.0000
  C   C668      1.0  0.76085  0.46966  0.54258  1.0000
  H   H512      1.0  0.73721  0.46508  0.53083  1.0000
  C   C669      1.0  0.81314  0.45578  0.39089  1.0000
  H   H513      1.0  0.82649  0.43404  0.61397  1.0000
  C   C670      1.0  0.68278  0.28301  0.60927  1.0000
  H   H514      1.0  0.97365  0.39157  0.58605  1.0000
  C   C671      1.0  0.70317  0.39949  0.57475  1.0000
  C   C672      1.0  0.76728  0.34354  0.57833  1.0000
  P   P22       1.0  0.72856  0.33858  0.59928  1.0000
  C   C673      1.0  0.50955  0.21024  0.47891  1.0000
  H   H515      1.0  0.83165  0.40298  0.56499  1.0000
  C   C674      1.0  0.70045  0.37636  0.59698  1.0000
  H   H516      1.0  0.64447  0.24254  0.61651  1.0000
  H   H517      1.0  0.54065  0.17088  0.49989  1.0000
  C   C675      1.0  0.78235  0.45932  0.40605  1.0000
  H   H518      1.0  0.66978  0.36254  0.63273  1.0000
  C   C676      1.0  0.65441  0.24928  0.57340  1.0000
  H   H519      1.0  0.83808  0.46317  0.35188  1.0000
  H   H520      1.0  0.85084  0.35586  0.53375  1.0000
  C   C677      1.0  0.70150  0.30192  0.58939  1.0000
  H   H521      1.0  0.55998  0.45498  0.65122  1.0000
  H   H522      1.0  0.90835  0.42910  0.38160  1.0000
  C   C678      1.0  0.80935  0.32084  0.54539  1.0000
  H   H523      1.0  0.63511  0.45360  0.58927  1.0000
  H   H524      1.0  0.72214  0.39508  0.55865  1.0000
  C   C679      1.0  0.67223  0.26857  0.55352  1.0000
  C   C680      1.0  0.91083  0.45304  0.37001  1.0000
  H   H525      1.0  0.81793  0.30032  0.53154  1.0000
  H   H526      1.0  0.48407  0.97833  0.49969  1.0000
  C   C681      1.0  0.91182  0.45194  0.34106  1.0000
  C   C682      1.0  0.74472  0.33280  0.63382  1.0000
  H   H527      1.0  0.59951  0.24923  0.45758  1.0000
  H   H528      1.0  0.73547  0.38629  0.64673  1.0000
  H   H529      1.0  0.51030  0.07144  0.47861  1.0000
  S   S88       1.0  0.51657  0.00434  0.63484  1.0000
  C   C683      1.0  0.79343  0.46569  0.53001  1.0000
  H   H530      1.0  0.84565  0.38953  0.64699  1.0000
  H   H531      1.0  0.68078  0.44394  0.55413  1.0000
  C   C684      1.0  0.49694  0.08981  0.49191  1.0000
  H   H532      1.0  0.76595  0.29147  0.56055  1.0000
  C   C685      1.0  0.65043  0.40930  0.61372  1.0000
  C   C686      1.0  0.54089  0.19384  0.48693  1.0000
  H   H533      1.0  0.75951  0.27883  0.62730  1.0000
  H   H534      1.0  0.77804  0.39585  0.59300  1.0000
  H   H535      1.0  0.62902  0.41236  0.62813  1.0000
  C   C687      1.0  0.51123  0.24131  0.46364  1.0000
  C   C688      1.0  0.65362  0.43243  0.59169  1.0000
  H   H536      1.0  0.54455  0.27960  0.44470  1.0000
  H   H537      1.0  0.50588  0.22782  0.53444  1.0000
  H   H538      1.0  0.91000  0.42701  0.33065  1.0000
  C   C689      1.0  0.69527  0.29505  0.56150  1.0000
  C   C690      1.0  0.78656  0.37472  0.57981  1.0000
  S   S89       1.0  0.95663  0.43477  0.47840  1.0000
  H   H539      1.0  0.59717  0.19502  0.48549  1.0000
  C   C691      1.0  0.54355  0.25506  0.45579  1.0000
  C   C692      1.0  0.57450  0.23807  0.46322  1.0000
  C   C693      1.0  0.57316  0.20759  0.47894  1.0000
  C   C694      1.0  0.48984  0.12379  0.48287  1.0000
  H   H540      1.0  0.68533  0.28912  0.63089  1.0000
  H   H541      1.0  0.49857  0.40746  0.45028  1.0000
  H   H542      1.0  0.56652  0.46188  0.56334  1.0000
  H   H543      1.0  0.78166  0.45076  0.42729  1.0000
  H   H544      1.0  0.79510  0.45791  0.50863  1.0000
  H   H545      1.0  0.72094  0.46417  0.62849  1.0000
  H   H546      1.0  0.47904  0.42803  0.62638  1.0000
  H   H547      1.0  0.49936  0.41272  0.50086  1.0000
  C   C695      1.0  0.56364  0.47041  0.63285  1.0000
  C   C696      1.0  0.75852  0.30036  0.64179  1.0000
  C   C697      1.0  0.81404  0.46629  0.36341  1.0000
  C   C698      1.0  0.56734  0.47417  0.58338  1.0000
  H   H548      1.0  0.91626  0.47542  0.64823  1.0000
  C   C699      1.0  0.79946  0.46576  0.64425  1.0000
  H   H549      1.0  0.48624  0.26042  0.57505  1.0000
  C   C700      1.0  0.48168  0.43160  0.64841  1.0000
  H   H550      1.0  0.50516  0.38109  0.65446  1.0000
  C   C701      1.0  0.83026  0.41159  0.65407  1.0000
  H   H551      1.0  0.48880  0.98052  0.44863  1.0000
  H   H552      1.0  0.72863  0.47623  0.40556  1.0000
  C   C702      1.0  0.75252  0.47371  0.39377  1.0000
  C   C703      1.0  0.77437  0.36571  0.97646  1.0000
  Fe  Fe44      1.0  0.91909  0.44117  0.93940  1.0000
  S   S90       1.0  0.91172  0.38279  0.94009  1.0000
  H   H553      1.0  0.95221  0.41796  0.82273  1.0000
  H   H554      1.0  0.58927  0.15457  0.88000  1.0000
  H   H555      1.0  0.75610  0.37689  0.69413  1.0000
  H   H556      1.0  0.94464  0.44603  0.69758  1.0000
  H   H557      1.0  0.77932  0.31902  0.70827  1.0000
  H   H558      1.0  0.84576  0.46783  0.83605  1.0000
  H   H559      1.0  0.87159  0.42781  0.80248  1.0000
  C   C704      1.0  0.94299  0.44249  0.83107  1.0000
  C   C705      1.0  0.85815  0.45109  0.79541  1.0000
  H   H560      1.0  0.58464  0.01325  0.98595  1.0000
  C   C706      1.0  0.52629  0.23571  0.87543  1.0000
  C   C707      1.0  0.51417  0.13446  0.91426  1.0000
  H   H561      1.0  0.48756  0.01601  0.74791  1.0000
  H   H562      1.0  0.78864  0.37279  0.95812  1.0000
  C   C708      1.0  0.49144  0.44152  0.70483  1.0000
  C   C709      1.0  0.80266  0.44371  0.69104  1.0000
  C   C710      1.0  0.53529  0.26307  0.89313  1.0000
  C   C711      1.0  0.54006  0.14220  0.86064  1.0000
  C   C712      1.0  0.85698  0.45880  0.76738  1.0000
  H   H563      1.0  0.56573  0.00797  0.77134  1.0000
  C   C713      1.0  0.54925  0.14369  0.90992  1.0000
  C   C714      1.0  0.50407  0.16531  0.96989  1.0000
  H   H564      1.0  0.48813  0.12826  0.84734  1.0000
  C   C715      1.0  0.52646  0.09083  0.96104  1.0000
  H   H565      1.0  0.83154  0.39580  0.69654  1.0000
  C   C716      1.0  0.55311  0.98810  0.75895  1.0000
  Fe  Fe45      1.0  0.96401  0.38248  0.96236  1.0000
  H   H566      1.0  0.93597  0.42182  0.87216  1.0000
  H   H567      1.0  0.86948  0.44149  0.75275  1.0000
  H   H568      1.0  0.51549  0.05734  0.92601  1.0000
  C   C717      1.0  0.51124  0.19797  0.95791  1.0000
  H   H569      1.0  0.51598  0.30310  0.92040  1.0000
  P   P23       1.0  0.49910  0.12647  0.94883  1.0000
  C   C718      1.0  0.82231  0.41513  0.68196  1.0000
  C   C719      1.0  0.49219  0.12917  0.89150  1.0000
  H   H570      1.0  0.57181  0.00901  0.72052  1.0000
  C   C720      1.0  0.56209  0.14767  0.88320  1.0000
  H   H571      1.0  0.49605  0.44526  0.72662  1.0000
  S   S91       1.0  0.50445  0.33372  0.97452  1.0000
  H   H572      1.0  0.55022  0.00785  0.94283  1.0000
  H   H573      1.0  0.56677  0.14735  0.92724  1.0000
  C   C721      1.0  0.51322  0.22803  0.97428  1.0000
  H   H574      1.0  0.51871  0.25328  0.96508  1.0000
  C   C722      1.0  0.75684  0.35554  0.67951  1.0000
  C   C723      1.0  0.52891  0.05990  0.94549  1.0000
  H   H575      1.0  0.79680  0.44673  0.71271  1.0000
  H   H576      1.0  0.56249  0.27001  0.89626  1.0000
  C   C724      1.0  0.93395  0.44464  0.85916  1.0000
  C   C725      1.0  0.76992  0.32295  0.68747  1.0000
  C   C726      1.0  0.97101  0.43584  0.69899  1.0000
  C   C727      1.0  0.73798  0.35921  0.97506  1.0000
  H   H577      1.0  0.51304  0.38940  0.70473  1.0000
  H   H578      1.0  0.55011  0.14484  0.83993  1.0000
  H   H579      1.0  0.48487  0.20560  0.85769  1.0000
  C   C728      1.0  0.50121  0.40992  0.69252  1.0000
  H   H580      1.0  0.54660  0.22151  0.86469  1.0000
  H   H581      1.0  0.51481  0.20059  0.93596  1.0000
  C   C729      1.0  0.50912  0.28174  0.90672  1.0000
  C   C730      1.0  0.54944  0.03194  0.95457  1.0000
  Fe  Fe46      1.0  0.88655  0.39068  0.98185  1.0000
  C   C731      1.0  0.77097  0.29544  0.66856  1.0000
  H   H582      1.0  0.72461  0.36160  0.95553  1.0000
  H   H583      1.0  0.78131  0.27022  0.67465  1.0000
  C   C732      1.0  0.50514  0.13295  0.86481  1.0000
  C   C733      1.0  0.49112  0.22683  0.87146  1.0000
  C   C734      1.0  0.49657  0.40508  0.66428  1.0000
  C   C735      1.0  0.92150  0.47607  0.87017  1.0000
  C   C736      1.0  0.79119  0.46891  0.67226  1.0000
  C   C737      1.0  0.56898  0.03502  0.97870  1.0000
  H   H584      1.0  0.96258  0.41147  0.73831  1.0000
  S   S92       1.0  0.89046  0.44916  0.97939  1.0000
  C   C738      1.0  0.54754  0.09418  0.98468  1.0000
  S   S93       1.0  0.97184  0.44038  0.95973  1.0000
  C   C739      1.0  0.93943  0.47164  0.81369  1.0000
  S   S94       1.0  0.94912  0.46748  0.77805  1.0000
  C   C740      1.0  0.55649  0.98876  0.73035  1.0000
  H   H585      1.0  0.76031  0.46047  0.92368  1.0000
  H   H586      1.0  0.47940  0.01481  0.69728  1.0000
  C   C741      1.0  0.76933  0.47527  0.90606  1.0000
  C   C742      1.0  0.84353  0.47418  0.81451  1.0000
  H   H587      1.0  0.82398  0.47002  0.91662  1.0000
  Fe  Fe47      1.0  0.53130  0.94197  0.11447  1.0000
  H   H588      1.0  0.78900  0.72981  0.23390  1.0000
  S   S95       1.0  0.56361  0.89547  0.13138  1.0000
  C   C743      1.0  0.65172  0.73307  0.13656  1.0000
  C   C744      1.0  0.53657  0.88556  0.21871  1.0000
  C   C745      1.0  0.67828  0.75812  0.13957  1.0000
  Fe  Fe48      1.0  0.57124  0.67678  0.15489  1.0000
  S   S96       1.0  0.57941  0.66612  0.20004  1.0000
  S   S97       1.0  0.55215  0.72776  0.13432  1.0000
  Fe  Fe49      1.0  0.57417  0.59781  0.14105  1.0000
  S   S98       1.0  0.58101  0.58262  0.18508  1.0000
  S   S99       1.0  0.57574  0.56087  0.10423  1.0000
  Fe  Fe50      1.0  0.53997  0.62311  0.19468  1.0000
  H   H589      1.0  0.95717  0.53489  0.07560  1.0000
  Fe  Fe51      1.0  0.62032  0.62630  0.18713  1.0000
  S   S100      1.0  0.66796  0.60794  0.21231  1.0000
  S   S101      1.0  0.52997  0.63502  0.15035  1.0000
  S   S102      1.0  0.61516  0.64007  0.14221  1.0000
  Fe  Fe52      1.0  0.87966  0.57395  0.21651  1.0000
  S   S103      1.0  0.87635  0.51568  0.21999  1.0000
  S   S104      1.0  0.83489  0.61059  0.20317  1.0000
  C   C746      1.0  0.59407  0.92432  0.20018  1.0000
  Fe  Fe53      1.0  0.92265  0.51432  0.19168  1.0000
  C   C747      1.0  0.71799  0.87231  0.19420  1.0000
  Fe  Fe54      1.0  0.91577  0.51970  0.25445  1.0000
  H   H590      1.0  0.78774  0.60438  0.10405  1.0000
  S   S105      1.0  0.92458  0.57244  0.18651  1.0000
  S   S106      1.0  0.91562  0.57861  0.25350  1.0000
  C   C748      1.0  0.56052  0.93878  0.19925  1.0000
  C   C749      1.0  0.94022  0.50835  0.11243  1.0000
  C   C750      1.0  0.94902  0.51028  0.08432  1.0000
  C   C751      1.0  0.57381  0.51455  0.10445  1.0000
  P   P24       1.0  0.78621  0.49372  0.31525  1.0000
  C   C752      1.0  0.82591  0.57593  0.12768  1.0000
  H   H591      1.0  0.56609  0.50885  0.14803  1.0000
  H   H592      1.0  0.58107  0.51115  0.06060  1.0000
  C   C753      1.0  0.71394  0.60646  0.20611  1.0000
  C   C754      1.0  0.73136  0.63299  0.19190  1.0000
  C   C755      1.0  0.76826  0.63318  0.19060  1.0000
  C   C756      1.0  0.78834  0.60675  0.20315  1.0000
  C   C757      1.0  0.77087  0.57918  0.21601  1.0000
  C   C758      1.0  0.73397  0.57939  0.21792  1.0000
  H   H593      1.0  0.71652  0.65386  0.18253  1.0000
  H   H594      1.0  0.78139  0.65425  0.18012  1.0000
  H   H595      1.0  0.78582  0.55812  0.22494  1.0000
  H   H596      1.0  0.72091  0.55861  0.22887  1.0000
  H   H597      1.0  0.49193  0.65338  0.08112  1.0000
  H   H598      1.0  0.51801  0.59735  0.06550  1.0000
  C   C759      1.0  0.55481  0.77450  0.13474  1.0000
  C   C760      1.0  0.53192  0.79405  0.11797  1.0000
  C   C761      1.0  0.53347  0.83100  0.11711  1.0000
  C   C762      1.0  0.55810  0.84904  0.13300  1.0000
  C   C763      1.0  0.58027  0.82953  0.15034  1.0000
  C   C764      1.0  0.57888  0.79260  0.15108  1.0000
  H   H599      1.0  0.51311  0.78049  0.10521  1.0000
  H   H600      1.0  0.51616  0.84544  0.10365  1.0000
  H   H601      1.0  0.59863  0.84322  0.16329  1.0000
  H   H602      1.0  0.59646  0.77809  0.16416  1.0000
  C   C765      1.0  0.50396  0.88346  0.31351  1.0000
  H   H603      1.0  0.64207  0.73476  0.06700  1.0000
  H   H604      1.0  0.57489  0.84601  0.22920  1.0000
  H   H605      1.0  0.83000  0.59555  0.26374  1.0000
  H   H606      1.0  0.78019  0.55775  0.06940  1.0000
  C   C766      1.0  0.67188  0.87485  0.16012  1.0000
  H   H607      1.0  0.73594  0.82115  0.20542  1.0000
  H   H608      1.0  0.53032  0.84937  0.28524  1.0000
  C   C767      1.0  0.81473  0.51080  0.00818  1.0000
  C   C768      1.0  0.67915  0.76573  0.08990  1.0000
  H   H609      1.0  0.80834  0.72009  0.14739  1.0000
  C   C769      1.0  0.49526  0.79504  0.25463  1.0000
  H   H610      1.0  0.49786  0.54179  0.08462  1.0000
  H   H611      1.0  0.73581  0.88552  0.20809  1.0000
  S   S107      1.0  0.91416  0.47949  0.28909  1.0000
  H   H612      1.0  0.74155  0.51236  0.08269  1.0000
  C   C770      1.0  0.65258  0.74096  0.08713  1.0000
  C   C771      1.0  0.83114  0.58143  0.28305  1.0000
  H   H613      1.0  0.62236  0.53360  0.22156  1.0000
  H   H614      1.0  0.71210  0.79406  0.11781  1.0000
  C   C772      1.0  0.84155  0.51885  0.11002  1.0000
  H   H615      1.0  0.79588  0.54140  0.26959  1.0000
  C   C773      1.0  0.69487  0.89183  0.17802  1.0000
  C   C774      1.0  0.56870  0.49536  0.12858  1.0000
  H   H616      1.0  0.88269  0.51250  0.05360  1.0000
  C   C775      1.0  0.50169  0.75907  0.25543  1.0000
  C   C776      1.0  0.80239  0.72360  0.19125  1.0000
  C   C777      1.0  0.59912  0.89091  0.21110  1.0000
  C   C778      1.0  0.69954  0.52497  0.13621  1.0000
  C   C779      1.0  0.72259  0.55172  0.14430  1.0000
  C   C780      1.0  0.71992  0.58500  0.13266  1.0000
  C   C781      1.0  0.69388  0.59219  0.11334  1.0000
  C   C782      1.0  0.67029  0.56611  0.10575  1.0000
  C   C783      1.0  0.67284  0.53279  0.11733  1.0000
  C   C784      1.0  0.88481  0.53089  0.01199  1.0000
  C   C785      1.0  0.74795  0.74872  0.20729  1.0000
  S   S108      1.0  0.95932  0.48385  0.03228  1.0000
  C   C786      1.0  0.79781  0.55357  0.08655  1.0000
  C   C787      1.0  0.48804  0.53775  0.17094  1.0000
  H   H617      1.0  0.82932  0.59647  0.14284  1.0000
  H   H618      1.0  0.67032  0.53529  0.18817  1.0000
  H   H619      1.0  0.65321  0.51366  0.11196  1.0000
  H   H620      1.0  0.91208  0.53824  0.01347  1.0000
  C   C788      1.0  0.84588  0.54546  0.12945  1.0000
  C   C789      1.0  0.73645  0.75296  0.18003  1.0000
  H   H621      1.0  0.65393  0.82583  0.14436  1.0000
  H   H622      1.0  0.74194  0.54757  0.16021  1.0000
  H   H623      1.0  0.73757  0.60549  0.13917  1.0000
  H   H624      1.0  0.69126  0.61823  0.10485  1.0000
  H   H625      1.0  0.64925  0.57197  0.09148  1.0000
  H   H626      1.0  0.65360  0.88986  0.14769  1.0000
  H   H627      1.0  0.68937  0.77871  0.07185  1.0000
  H   H628      1.0  0.94196  0.53132  0.12534  1.0000
  C   C790      1.0  0.69194  0.77431  0.11599  1.0000
  C   C791      1.0  0.57050  0.87167  0.22062  1.0000
  C   C792      1.0  0.53187  0.91957  0.20855  1.0000
  H   H629      1.0  0.51728  0.54815  0.20789  1.0000
  H   H630      1.0  0.78749  0.50378  0.00620  1.0000
  H   H631      1.0  0.77457  0.49691  0.13881  1.0000
  C   C793      1.0  0.81646  0.52210  0.08899  1.0000
  C   C794      1.0  0.68207  0.52816  0.27564  1.0000
  C   C795      1.0  0.50749  0.81519  0.23255  1.0000
  H   H632      1.0  0.52328  0.71462  0.23395  1.0000
  C   C796      1.0  0.65643  0.51093  0.19128  1.0000
  H   H633      1.0  0.61782  0.70602  0.10819  1.0000
  S   S109      1.0  0.50035  0.61744  0.22946  1.0000
  C   C797      1.0  0.80229  0.58022  0.10597  1.0000
  S   S110      1.0  0.96197  0.51397  0.22624  1.0000
  H   H634      1.0  0.69473  0.92012  0.17933  1.0000
  H   H635      1.0  0.48212  0.73505  0.15586  1.0000
  C   C798      1.0  0.52439  0.79846  0.21058  1.0000
  C   C799      1.0  0.53040  0.76240  0.21127  1.0000
  C   C800      1.0  0.49704  0.59732  0.08046  1.0000
  H   H636      1.0  0.83009  0.48449  0.16333  1.0000
  C   C801      1.0  0.51915  0.74269  0.23372  1.0000
  S   S111      1.0  0.52876  0.96813  0.07256  1.0000
  H   H637      1.0  0.65867  0.53742  0.26535  1.0000
  P   P25       1.0  0.49924  0.86165  0.23113  1.0000
  C   C802      1.0  0.63900  0.72462  0.11040  1.0000
  C   C803      1.0  0.72912  0.53789  0.30814  1.0000
  Fe  Fe55      1.0  0.96037  0.57248  0.22361  1.0000
  H   H638      1.0  0.62515  0.87981  0.21188  1.0000
  C   C804      1.0  0.48551  0.56564  0.09150  1.0000
  C   C805      1.0  0.83305  0.50570  0.03297  1.0000
  C   C806      1.0  0.73835  0.49292  0.06681  1.0000
  H   H639      1.0  0.73147  0.75640  0.22435  1.0000
  C   C807      1.0  0.86813  0.51607  0.03470  1.0000
  H   H640      1.0  0.53233  0.81325  0.19271  1.0000
  H   H641      1.0  0.54309  0.74953  0.19408  1.0000
  C   C808      1.0  0.62925  0.51002  0.21041  1.0000
  H   H642      1.0  0.50600  0.93120  0.20746  1.0000
  H   H643      1.0  0.64004  0.72058  0.15423  1.0000
  C   C809      1.0  0.75867  0.74289  0.15844  1.0000
  P   P26       1.0  0.69360  0.77133  0.17323  1.0000
  C   C810      1.0  0.66411  0.75571  0.19948  1.0000
  C   C811      1.0  0.63885  0.77794  0.21110  1.0000
  C   C812      1.0  0.61683  0.76571  0.23191  1.0000
  C   C813      1.0  0.62001  0.73138  0.24136  1.0000
  C   C814      1.0  0.64511  0.70916  0.22993  1.0000
  C   C815      1.0  0.66679  0.72112  0.20887  1.0000
  C   C816      1.0  0.69519  0.81853  0.17449  1.0000
  C   C817      1.0  0.71809  0.83577  0.19254  1.0000
  C   C818      1.0  0.57714  0.49655  0.07938  1.0000
  H   H644      1.0  0.75077  0.74575  0.13725  1.0000
  H   H645      1.0  0.63578  0.80454  0.20396  1.0000
  H   H646      1.0  0.59708  0.78274  0.24060  1.0000
  H   H647      1.0  0.60273  0.72176  0.25728  1.0000
  H   H648      1.0  0.64736  0.68232  0.23694  1.0000
  H   H649      1.0  0.68565  0.70329  0.19998  1.0000
  C   C819      1.0  0.79149  0.72829  0.16408  1.0000
  C   C820      1.0  0.51002  0.86890  0.28754  1.0000
  C   C821      1.0  0.78064  0.73384  0.21284  1.0000
  H   H650      1.0  0.82747  0.71146  0.19560  1.0000
  C   C822      1.0  0.67211  0.83840  0.15830  1.0000
  H   H651      1.0  0.86511  0.54256  0.14574  1.0000
  H   H652      1.0  0.85839  0.49616  0.11132  1.0000
  C   C823      1.0  0.81196  0.55068  0.28636  1.0000
  C   C824      1.0  0.69838  0.54919  0.29532  1.0000
  H   H653      1.0  0.86723  0.61745  0.30182  1.0000
  C   C825      1.0  0.85200  0.59384  0.30453  1.0000
  C   C826      1.0  0.69636  0.49563  0.26889  1.0000
  H   H654      1.0  0.49875  0.86871  0.17111  1.0000
  P   P27       1.0  0.81187  0.48831  0.06316  1.0000
  C   C827      1.0  0.74394  0.50543  0.30127  1.0000
  C   C828      1.0  0.50703  0.52815  0.19432  1.0000
  H   H655      1.0  0.61602  0.93900  0.19223  1.0000
  C   C829      1.0  0.49026  0.87977  0.26471  1.0000
  H   H656      1.0  0.50101  0.48283  0.10228  1.0000
  C   C830      1.0  0.81337  0.53204  0.31118  1.0000
  H   H657      1.0  0.49274  0.74380  0.27275  1.0000
  H   H658      1.0  0.68753  0.57464  0.30019  1.0000
  H   H659      1.0  0.93413  0.64547  0.13678  1.0000
  H   H660      1.0  0.52661  0.48565  0.21877  1.0000
  C   C831      1.0  0.70442  0.48432  0.05828  1.0000
  C   C832      1.0  0.51216  0.49290  0.20053  1.0000
  H   H661      1.0  0.55651  0.96472  0.19091  1.0000
  H   H662      1.0  0.94579  0.61148  0.09420  1.0000
  H   H663      1.0  0.84043  0.48680  0.27230  1.0000
  C   C833      1.0  0.72721  0.48425  0.28162  1.0000
  H   H664      1.0  0.68202  0.49744  0.06713  1.0000
  H   H665      1.0  0.48692  0.95881  0.01579  1.0000
  C   C834      1.0  0.77379  0.48485  0.15893  1.0000
  C   C835      1.0  0.95840  0.63112  0.13454  1.0000
  H   H666      1.0  0.48411  0.56521  0.16667  1.0000
  C   C836      1.0  0.48247  0.62884  0.08935  1.0000
  C   C837      1.0  0.96499  0.61202  0.11059  1.0000
  C   C838      1.0  0.94724  0.48054  0.06734  1.0000
  P   P28       1.0  0.70115  0.48231  0.15222  1.0000
  H   H667      1.0  0.48039  0.80689  0.27110  1.0000
  H   H668      1.0  0.68379  0.47953  0.25344  1.0000
  H   H669      1.0  0.97721  0.64464  0.17504  1.0000
  C   C839      1.0  0.66535  0.48082  0.17633  1.0000
  H   H670      1.0  0.58963  0.47855  0.22957  1.0000
  C   C840      1.0  0.61079  0.47907  0.21481  1.0000
  C   C841      1.0  0.47864  0.90949  0.31676  1.0000
  C   C842      1.0  0.70369  0.56311  0.63953  1.0000
  C   C843      1.0  0.91595  0.51589  0.36826  1.0000
  C   C844      1.0  0.91734  0.51474  0.33926  1.0000
  H   H671      1.0  0.91753  0.54080  0.37872  1.0000
  H   H672      1.0  0.74989  0.63213  0.63935  1.0000
  Fe  Fe56      1.0  0.51584  0.95193  0.61291  1.0000
  C   C845      1.0  0.77261  0.67318  0.61462  1.0000
  S   S112      1.0  0.54749  0.90859  0.63478  1.0000
  C   C846      1.0  0.83381  0.68547  0.62429  1.0000
  H   H673      1.0  0.66088  0.48538  0.63773  1.0000
  H   H674      1.0  0.50463  0.58717  0.62830  1.0000
  C   C847      1.0  0.70158  0.70539  0.61524  1.0000
  C   C848      1.0  0.64975  0.74228  0.61712  1.0000
  S   S113      1.0  0.58095  0.57298  0.61294  1.0000
  C   C849      1.0  0.94537  0.48319  0.57186  1.0000
  S   S114      1.0  0.61948  0.65730  0.64290  1.0000
  C   C850      1.0  0.94808  0.50384  0.61951  1.0000
  S   S115      1.0  0.96685  0.53262  0.64398  1.0000
  C   C851      1.0  0.67602  0.53936  0.64052  1.0000
  C   C852      1.0  0.57396  0.52703  0.61153  1.0000
  C   C853      1.0  0.56955  0.50673  0.63515  1.0000
  C   C854      1.0  0.57305  0.51048  0.58569  1.0000
  H   H675      1.0  0.57651  0.52589  0.56728  1.0000
  C   C855      1.0  0.87416  0.58407  0.62267  1.0000
  C   C856      1.0  0.55192  0.78726  0.63320  1.0000
  C   C857      1.0  0.53312  0.80568  0.61287  1.0000
  C   C858      1.0  0.53063  0.84259  0.61339  1.0000
  C   C859      1.0  0.54743  0.86178  0.63404  1.0000
  C   C860      1.0  0.70445  0.70759  0.64398  1.0000
  C   C861      1.0  0.73729  0.61161  0.57757  1.0000
  C   C862      1.0  0.84875  0.58462  0.60200  1.0000
  H   H676      1.0  0.72500  0.69410  0.65500  1.0000
  C   C863      1.0  0.82154  0.56024  0.60227  1.0000
  S   S116      1.0  0.90987  0.48787  0.42027  1.0000
  H   H677      1.0  0.75904  0.69687  0.49618  1.0000
  H   H678      1.0  0.76533  0.61550  0.57718  1.0000
  H   H679      1.0  0.73317  0.48296  0.57918  1.0000
  H   H680      1.0  0.76503  0.76125  0.49995  1.0000
  H   H681      1.0  0.67097  0.72136  0.57983  1.0000
  C   C864      1.0  0.87182  0.55976  0.64392  1.0000
  H   H682      1.0  0.74319  0.75568  0.58631  1.0000
  H   H683      1.0  0.87005  0.58492  0.34591  1.0000
  C   C865      1.0  0.80424  0.63921  0.64874  1.0000
  H   H684      1.0  0.95371  0.48536  0.55070  1.0000
  H   H685      1.0  0.75704  0.79044  0.54508  1.0000
  H   H686      1.0  0.74091  0.55809  0.56379  1.0000
  H   H687      1.0  0.51667  0.85633  0.59736  1.0000
  C   C866      1.0  0.81949  0.53517  0.62330  1.0000
  H   H688      1.0  0.74495  0.66172  0.53698  1.0000
  C   C867      1.0  0.95835  0.50652  0.59185  1.0000
  H   H689      1.0  0.84611  0.48616  0.58386  1.0000
  H   H690      1.0  0.75877  0.57018  0.63369  1.0000
  C   C868      1.0  0.67402  0.72294  0.60193  1.0000
  C   C869      1.0  0.78934  0.48575  0.58549  1.0000
  H   H691      1.0  0.85066  0.60346  0.58549  1.0000
  S   S117      1.0  0.55608  0.74076  0.63019  1.0000
  C   C870      1.0  0.78433  0.48111  0.35098  1.0000
  C   C871      1.0  0.65282  0.74434  0.64567  1.0000
  C   C872      1.0  0.74426  0.51577  0.62959  1.0000
  C   C873      1.0  0.72359  0.57911  0.56990  1.0000
  P   P29       1.0  0.78765  0.50043  0.62085  1.0000
  H   H692      1.0  0.63702  0.59641  0.57851  1.0000
  C   C874      1.0  0.73774  0.55139  0.63424  1.0000
  H   H693      1.0  0.73008  0.49556  0.35716  1.0000
  H   H694      1.0  0.67672  0.54833  0.56486  1.0000
  H   H695      1.0  0.52086  0.79132  0.59631  1.0000
  H   H696      1.0  0.66059  0.65375  0.59136  1.0000
  H   H697      1.0  0.80280  0.56013  0.58560  1.0000
  H   H698      1.0  0.80342  0.71324  0.59446  1.0000
  C   C875      1.0  0.75440  0.76231  0.54342  1.0000
  C   C876      1.0  0.75890  0.74587  0.51801  1.0000
  C   C877      1.0  0.75551  0.70960  0.51590  1.0000
  C   C878      1.0  0.74748  0.68972  0.53916  1.0000
  C   C879      1.0  0.74261  0.70609  0.56473  1.0000
  C   C880      1.0  0.74642  0.74253  0.56672  1.0000
  P   P30       1.0  0.73301  0.68092  0.59520  1.0000
  H   H699      1.0  0.89589  0.60223  0.62220  1.0000
  C   C881      1.0  0.71489  0.63898  0.58552  1.0000
  C   C882      1.0  0.67862  0.63328  0.58556  1.0000
  C   C883      1.0  0.66506  0.60069  0.57812  1.0000
  C   C884      1.0  0.68747  0.57360  0.57036  1.0000
  C   C885      1.0  0.91248  0.48508  0.38381  1.0000
  C   C886      1.0  0.80312  0.69259  0.60959  1.0000
  C   C887      1.0  0.83434  0.54476  0.33271  1.0000
  C   C888      1.0  0.71646  0.49187  0.63159  1.0000
  H   H700      1.0  0.64956  0.54861  0.64417  1.0000
  C   C889      1.0  0.77332  0.64675  0.63458  1.0000
  H   H701      1.0  0.92017  0.53856  0.32755  1.0000
  Fe  Fe57      1.0  0.58187  0.61251  0.64833  1.0000
  C   C890      1.0  0.48262  0.57750  0.64008  1.0000
  H   H702      1.0  0.62809  0.75523  0.60689  1.0000
  H   H703      1.0  0.51913  0.87487  0.33108  1.0000
  H   H704      1.0  0.83621  0.53119  0.35212  1.0000
  H   H705      1.0  0.69859  0.59070  0.64279  1.0000
  H   H706      1.0  0.85723  0.70065  0.62055  1.0000
  C   C891      1.0  0.83437  0.65876  0.64384  1.0000
  C   C892      1.0  0.85356  0.57554  0.32934  1.0000
  S   S118      1.0  0.52079  0.97715  0.57092  1.0000
  C   C893      1.0  0.91465  0.48275  0.32551  1.0000
  H   H707      1.0  0.97670  0.52660  0.58587  1.0000
  C   C894      1.0  0.56561  0.84332  0.65469  1.0000
  C   C895      1.0  0.68244  0.50372  0.63679  1.0000
  C   C896      1.0  0.82200  0.48162  0.57263  1.0000
  C   C897      1.0  0.75346  0.48466  0.36631  1.0000
  H   H708      1.0  0.74191  0.55490  0.32287  1.0000
  C   C898      1.0  0.84459  0.53550  0.64440  1.0000
  C   C899      1.0  0.56758  0.80638  0.65447  1.0000
  C   C900      1.0  0.75873  0.47965  0.57020  1.0000
  H   H709      1.0  0.85811  0.65309  0.65524  1.0000
  H   H710      1.0  0.57074  0.51904  0.65512  1.0000
  Fe  Fe58      1.0  0.57535  0.69330  0.65548  1.0000
  H   H711      1.0  0.90922  0.52978  0.86122  1.0000
  S   S119      1.0  0.58958  0.68948  0.70027  1.0000
  S   S120      1.0  0.59594  0.60372  0.69280  1.0000
  Fe  Fe59      1.0  0.55304  0.64322  0.70146  1.0000
  S   S121      1.0  0.51467  0.63944  0.73733  1.0000
  Fe  Fe60      1.0  0.63154  0.65031  0.68796  1.0000
  S   S122      1.0  0.68769  0.65683  0.70511  1.0000
  Fe  Fe61      1.0  0.89095  0.56758  0.72387  1.0000
  S   S123      1.0  0.90751  0.51325  0.71110  1.0000
  S   S124      1.0  0.83093  0.56926  0.71681  1.0000
  C   C901      1.0  0.48797  0.80368  0.73576  1.0000
  Fe  Fe62      1.0  0.95125  0.53945  0.68879  1.0000
  H   H712      1.0  0.81536  0.53698  0.76992  1.0000
  Fe  Fe63      1.0  0.94240  0.51332  0.74846  1.0000
  H   H713      1.0  0.49514  0.72923  0.66092  1.0000
  S   S125      1.0  0.93463  0.59394  0.70036  1.0000
  S   S126      1.0  0.92399  0.56576  0.76263  1.0000
  H   H714      1.0  0.84467  0.50307  0.87659  1.0000
  C   C902      1.0  0.53771  0.85631  0.74304  1.0000
  H   H715      1.0  0.88010  0.54546  0.96940  1.0000
  C   C903      1.0  0.92751  0.50314  0.82489  1.0000
  H   H716      1.0  0.92482  0.52582  0.81197  1.0000
  C   C904      1.0  0.91860  0.50531  0.85291  1.0000
  C   C905      1.0  0.72705  0.63166  0.70838  1.0000
  C   C906      1.0  0.75795  0.64847  0.71708  1.0000
  C   C907      1.0  0.78973  0.62989  0.72019  1.0000
  C   C908      1.0  0.79117  0.59398  0.71472  1.0000
  C   C909      1.0  0.76018  0.57707  0.70628  1.0000
  C   C910      1.0  0.72840  0.59568  0.70316  1.0000
  H   H717      1.0  0.75735  0.67622  0.72135  1.0000
  H   H718      1.0  0.81318  0.64343  0.72661  1.0000
  H   H719      1.0  0.76077  0.54936  0.70201  1.0000
  H   H720      1.0  0.70486  0.58213  0.69699  1.0000
  H   H721      1.0  0.70662  0.54552  0.76819  1.0000
  H   H722      1.0  0.59113  0.55536  0.76050  1.0000
  H   H723      1.0  0.52060  0.89214  0.88618  1.0000
  C   C911      1.0  0.75055  0.61451  0.79546  1.0000
  C   C912      1.0  0.72600  0.59615  0.77982  1.0000
  C   C913      1.0  0.72536  0.55967  0.78067  1.0000
  C   C914      1.0  0.74953  0.54150  0.79690  1.0000
  C   C915      1.0  0.77471  0.55973  0.81234  1.0000
  C   C916      1.0  0.77476  0.59646  0.81175  1.0000
  P   P31       1.0  0.80884  0.53584  0.83009  1.0000
  C   C917      1.0  0.79291  0.51264  0.85997  1.0000
  H   H724      1.0  0.94416  0.53781  0.93747  1.0000
  H   H725      1.0  0.58191  0.79282  0.67036  1.0000
  H   H726      1.0  0.84400  0.51669  0.66095  1.0000
  H   H727      1.0  0.49215  0.95367  0.96502  1.0000
  C   C918      1.0  0.75696  0.50744  0.86419  1.0000
  C   C919      1.0  0.84284  0.56597  0.84034  1.0000
  C   C920      1.0  0.84448  0.57891  0.86737  1.0000
  H   H728      1.0  0.47973  0.55654  0.75267  1.0000
  H   H729      1.0  0.84020  0.49583  0.73672  1.0000
  C   C921      1.0  0.89380  0.60085  0.82873  1.0000
  C   C922      1.0  0.86725  0.57770  0.82098  1.0000
  H   H730      1.0  0.75128  0.64279  0.79442  1.0000
  H   H731      1.0  0.70784  0.61023  0.76670  1.0000
  C   C923      1.0  0.51611  0.93653  0.75566  1.0000
  H   H732      1.0  0.79398  0.61130  0.82317  1.0000
  H   H733      1.0  0.49972  0.88415  0.67568  1.0000
  C   C924      1.0  0.81681  0.49929  0.87929  1.0000
  C   C925      1.0  0.89592  0.61273  0.85583  1.0000
  H   H734      1.0  0.68216  0.72816  0.68129  1.0000
  H   H735      1.0  0.73787  0.51762  0.84987  1.0000
  H   H736      1.0  0.82532  0.57124  0.88253  1.0000
  H   H737      1.0  0.51506  0.54829  0.66756  1.0000
  C   C926      1.0  0.68017  0.72709  0.65907  1.0000
  H   H738      1.0  0.80494  0.61820  0.66359  1.0000
  H   H739      1.0  0.86578  0.56892  0.79988  1.0000
  H   H740      1.0  0.59562  0.51514  0.72059  1.0000
  C   C927      1.0  0.50677  0.52370  0.72312  1.0000
  C   C928      1.0  0.49629  0.92173  0.85378  1.0000
  C   C929      1.0  0.51263  0.72831  0.76950  1.0000
  C   C930      1.0  0.54619  0.82619  0.72815  1.0000
  C   C931      1.0  0.50363  0.76546  0.81851  1.0000
  C   C932      1.0  0.83169  0.52511  0.98535  1.0000
  H   H741      1.0  0.74940  0.51318  0.79669  1.0000
  C   C933      1.0  0.82659  0.51281  0.77742  1.0000
  C   C934      1.0  0.53490  0.55737  0.75932  1.0000
  H   H742      1.0  0.56599  0.74597  0.77091  1.0000
  C   C935      1.0  0.47926  0.83384  0.75047  1.0000
  C   C936      1.0  0.52124  0.79999  0.72430  1.0000
  C   C937      1.0  0.53296  0.96217  0.77160  1.0000
  H   H743      1.0  0.81778  0.52809  0.96608  1.0000
  H   H744      1.0  0.50764  0.91786  0.71441  1.0000
  C   C938      1.0  0.53991  0.51238  0.71426  1.0000
  C   C939      1.0  0.82751  0.50529  0.80569  1.0000
  H   H745      1.0  0.52773  0.77679  0.71250  1.0000
  C   C940      1.0  0.52203  0.87023  0.81820  1.0000
  H   H746      1.0  0.87267  0.61131  0.89609  1.0000
  H   H747      1.0  0.53295  0.57578  0.77620  1.0000
  C   C941      1.0  0.84090  0.48950  0.75840  1.0000
  C   C942      1.0  0.51575  0.89383  0.86424  1.0000
  C   C943      1.0  0.56768  0.54603  0.75036  1.0000
  H   H748      1.0  0.48200  0.69108  0.84036  1.0000
  H   H749      1.0  0.57203  0.82331  0.71929  1.0000
  H   H750      1.0  0.57868  0.85781  0.67081  1.0000
  C   C944      1.0  0.87114  0.60193  0.87511  1.0000
  C   C945      1.0  0.57018  0.52346  0.72786  1.0000
  C   C946      1.0  0.52861  0.86809  0.84648  1.0000
  C   C947      1.0  0.53986  0.96342  0.71436  1.0000
  H   H751      1.0  0.51632  0.71326  0.75083  1.0000
  H   H752      1.0  0.55818  0.77881  0.81451  1.0000
  H   H753      1.0  0.54365  0.84647  0.85468  1.0000
  C   C948      1.0  0.50243  0.89820  0.80757  1.0000
  C   C949      1.0  0.48845  0.55527  0.66239  1.0000
  H   H754      1.0  0.54250  0.96375  0.69214  1.0000
  Fe  Fe64      1.0  0.96960  0.58623  0.73766  1.0000
  C   C950      1.0  0.51984  0.93750  0.72699  1.0000
  H   H755      1.0  0.53214  0.85004  0.80480  1.0000
  H   H756      1.0  0.50111  0.77893  0.83796  1.0000
  H   H757      1.0  0.91671  0.63041  0.86183  1.0000
  H   H758      1.0  0.91286  0.60947  0.81373  1.0000
  C   C951      1.0  0.54068  0.74665  0.78090  1.0000
  H   H759      1.0  0.77688  0.49146  0.67974  1.0000
  H   H760      1.0  0.55737  0.87641  0.74566  1.0000
  C   C952      1.0  0.50394  0.86068  0.75389  1.0000
  C   C953      1.0  0.50457  0.54640  0.74575  1.0000
  H   H761      1.0  0.63358  0.75877  0.65742  1.0000
  P   P32       1.0  0.49225  0.90080  0.77134  1.0000
  C   C954      1.0  0.53620  0.76518  0.80542  1.0000
  H   H762      1.0  0.48599  0.94153  0.86761  1.0000
  S   S127      1.0  0.90764  0.47995  0.90488  1.0000
  H   H763      1.0  0.53072  0.96252  0.79370  1.0000
  H   H764      1.0  0.54250  0.49549  0.69652  1.0000
  H   H765      1.0  0.89168  0.55910  0.65974  1.0000
  C   C955      1.0  0.80510  0.48062  0.90214  1.0000
  C   C956      1.0  0.74527  0.48879  0.88716  1.0000
  H   H766      1.0  0.71753  0.48460  0.89025  1.0000
  C   C957      1.0  0.48952  0.92385  0.82558  1.0000
  S   S128      1.0  0.53678  0.64878  0.65742  1.0000
  C   C958      1.0  0.47998  0.72879  0.78238  1.0000
  H   H767      1.0  0.48045  0.69739  0.70333  1.0000
  H   H768      1.0  0.96723  0.53544  0.98522  1.0000
  C   C959      1.0  0.97121  0.53080  0.94119  1.0000
  C   C960      1.0  0.86674  0.53512  0.98724  1.0000
