data_image0
_chemical_formula_structural       FeS2FeS2FeSFeS3HS2FeS2CSHFeSC5H2FeC3SC2HC6H4C6H4CHC2FeH2FeHC2H5CHC7PC4H2C8SCH17CHC3H2C2H3C3HC6H4C2H2CH2C5HCHC7HCHPHCH2C4H3C2HC3H4C2H4C3HC8H2CH5CHCHC3H3CHC3HSHCH2C8HC2HCHCH2C2H2C2H4SCH2C5HC2HPC2PC3HC2HC2FeH4C3H2CH2CSC3HCSCH2PH2CH2CSCHC2SPFeS2FeS2FeSFeS3HC2SCHFeS2FeS2CH2CSCFeHSCHSHC2H2C5HC2HCHCHC9H4C6H4SH2CH3C3HC4H2CHSCHC5HCH5CSCH4C7PC5FeC2H4C7HCH2C3H3C2H3CHC2H2C3HCHC2HC2HC2HC3H3C2FeH9CH5CH2C2PC4HPCPHC5HFeC2SHCH4CH3CHCHCHCHC2HC2H2CHC2H4C2H3C3S2HCSCH4C3HFeHCHC6FeH2C2PH2C2HCH2C2HCH2CS2H2C3HCHCH2CFe2H3C3HCPC10H2CHCHC4SC2HCH3C3H5CHCH3C2HCSHC2FeC2HCH2C2HC2HCHCH3CHSC8H3CH2CHCH2C2HCHC4PC3HC3H2CHCHPCH3SC2H4CHC2H2CHC2HC2H2C2H2CHFeHS4CHC2HCHC2HC2HC2H2PHC2HC3SCH7C2HC3H2C2HFeC2HC2HC2SHC2FeHC3H5SC4H3FeH2CFeHSFeSCFeS2FeS2FeS2FeSFeS3HSCHC3H2C6H5C6H4C4H3CH2CHCSPCHCHC2PC3HC2HCSHCH2CH2C2H4C5HCHC2H2CFeHCHCHCH2C3H5CH2C2H2CHCH2CHC3HCH3CH2C2H2C2H2C2HCHCHC4HC7HC2SCHCHC2SH2C3H4C2H2C3HCHFeCP2H2C8H2CH2C6SHC2H4C7H2C2HCHCHC2H2SCSC4H2CH2SHCHSCH2C3FeC4FeS2FeHFeCSCFeS2FeS2FeSFeS4CHFeCSC2HSHC5H2CSHC3H2C6H4C2H4C8H4SHCHCHSH3C3HCHCHSC4H2CHCH4CHC6PC18H17CH7C3PC3SH2C3HCSC3H2C2HSH2C2H2CH5CFeHC6PC4HC13H6CHCH6CH3C2HC2H2C2HC3H3C2HC3PC2HCHFeC2HC5SCSHCH2C2HSH2SHCHCHC4HFeCHCSHCH4CHC2H2C2H2CHSFeS2FeS2FeSFeS3FeS2FeS2FeHFeCS3HFeSC2FeHC3HC6H4C6H7C2HC3H2C6H5C2HC2HC3FeCFeCHCH2CHCH2CHC7HC4HC2HC2HCHCH6C6PC13HCH6CH7C2HCH3CHC3SC3H5C2HCH4CPHC4HCH2C7PC8SC9HCH11CH3CHC4HC3HSH3C4SC2HC2PCH3C2HCHCH4C3HC2H3CHC4PCH2CHC2H2C3H2CH2C5H2C2HCH7C2H2S2H2CH5C2H4SFeS2FeS2FeSFeS3FeSCFeSHFeSFeS3CFeHSC3SC3H2PHC4H2CH2C2H3C6H4C6H5C6H4CPCHC3H2CHCHCHCHPCH2C2H3C4H2C4HCH2C2HC3HCHC2H5C2HCHC3HC2HCHC3HC3HCHCHC2H2CHC2H2C2H3CHC5HC5PH3CH2CHCHCH2CH2CHCHCPCHCHC7H5CH2CHC2HC2HPCHC3HCHC3HC3HSCHC2H2CH2CHCHCFeC2HCHPC2HSC3HCH2C3HCH2C3HSHCHC2HCHC2HCH2C3HC2H2C3HC3H3SCHCH2CHC2H2CHCHCHC3H2SHSH2FeSFeS2FeS2FeSFeS3HSHFeSCHFeSFeS2Fe2HS2CH4CHC6H4C6H4CHC3HC8SHC2H5CH4CHC7PC18H10C2H6FeC3HPH4SFeHCHC5H2C7HC3HCH2C9HFeC2H4C2H4C2HC3H3CSHCH3CHCH2CH3CHCHC2SCHC4PCHCHCHCH2CH2C2H2CH2CSHCHC3HC3PC3HC2HC3H2C2H4C2HCH2FeSC3S2FeS2FeS2FeSFeS3FeSHSFeHSFeS2FeHCHS2HC2HC4H2C3H2C2H2PC6H4C6H5CH2CHC4H2C6HC2HPCHC2HCHCHCH2FePHC2H4CHCHCH2C5HCH2C2HC6H2CH2CHC5HCH3CH2CH4FeSC3H2CSCH3CH2CH2CHC7PC18H19C4H3C4HC3HC3H3CH2CH2CS2C4SCH3CH2CHC5H3CHC2H2CH2CHC3H2C6HCHC2H2C4H4CH2CFeCHC4PH4CHCFeS2FeS2FeSFeS5HCSC2SFeSCSCSCFeC2HCHCHC3HC2HCH2CSC4HC6H4C6H4C2HCH3CHC8PC18HCH18C6PC2HCH2CHC2FeC7H5SHCH2C4HC2H4CHC4H4C3HCH4FeSHPH2CHCHC4HCH2CHCH2CHC2FeHC2HS2C2H2CH2CH2SCHCH2C2HC3PHC2H2C2HCH2CH2C3H2C2FeCH2CPH2C2HC2HC2HPC2H4C6SCHC3HCH2CH4CHCH2C2FeS2FeS2FeSFeS4C2SH3CHC4HCHCH3C3HCFeC3PHCH2C6H4C6H4C2HCHCH2C2HC2HPC11HC2H6C3HCH2SCHCHPC2HC4H5CFeC2H2CHSHC2HC3H2C4HC2H3CH2CHCH4CHCH3C2FeHCHC2PHCHSH2SC2HCHCPCHC2HCH5C2H2C2H2CH2C5HC5H2C3H2SHCH2C7HC2HCHCH2PH2CHC2HCHC2HC5HC2H2C2H2C2HCHC6FeHCH2SC2H3CH3C2HC3FeH4C2FeCHCHCHC2HC2HC2HC2SC2HCHCPHSHC2HC2H2C2H4C2PH6CHC2HC2FeSC4H3CPHSH3CH3C4H2CHC5HC3HC2HCHFeC3HCHCSC2HC2H4CHC2HC4H2C2H2CH4C2SHCH2CHCHFeC2FeS2FeSFeCSCHC2HCHC4H2C2H4C4H2C2H2SC2HCH3C2H3CHCHPHCH2CHC2HC3PCH2C4H4SH2SHC3H3C5FeS2FeC2FeSHSH2CHCSHC5H3C3HCSC2PH3CH3C3H4CHC7HPHCHC6HCHCHCH2SH3CHCHCH2CH2CFeS2FeS2FeSFeS3H2SCHCFeS2C2HC4H5CH5C9H4C6H5C2H2PC7PC18H6CH8PC4HC3H2Fe2CH3C2H2CHPC3H2C13H2CHCH2CHCH5C2SH3C5H4SC2FeC2HCHC3FeHC5H2CHCH2CSC2HCHSHCHC2H2CHCH4CHC7HCHCH2CH2C3H2SCHC3HCHCPHC2FeS2FeS2FeSFeS4FeH2SH2SCSC3H2C2SC2FeHC6H4C6H6CHC3HCH2CHSC3HC3HC2H2C6PC18H20CH3C2HCH2C2H4C2H2CH3CSCHC2HC4HC3HPCHCPC3HC3FeSCHCH5C3H2CH2CHCHC4H2C7H3CSC3H2C2H4CHC4HCHCFeCH3C2HFePCH2C2H3SCH5C4H
_chemical_formula_sum              "Fe144 S288 H1728 C2160 P72"
_cell_length_a       87.4009
_cell_length_b       85.0922
_cell_length_c       36.9431
_cell_angle_alpha    90.6135
_cell_angle_beta     90.1464
_cell_angle_gamma    111.802

_space_group_name_H-M_alt    "P 1"
_space_group_IT_number       1

loop_
  _space_group_symop_operation_xyz
  'x, y, z'

loop_
  _atom_site_type_symbol
  _atom_site_label
  _atom_site_symmetry_multiplicity
  _atom_site_fract_x
  _atom_site_fract_y
  _atom_site_fract_z
  _atom_site_occupancy
  Fe  Fe1       1.0  0.17432  0.49278  0.31210  1.0000
  S   S1        1.0  0.14907  0.47868  0.33547  1.0000
  S   S2        1.0  0.19351  0.48059  0.31254  1.0000
  Fe  Fe2       1.0  0.16589  0.52320  0.29431  1.0000
  S   S3        1.0  0.14067  0.51162  0.31761  1.0000
  S   S4        1.0  0.17357  0.54818  0.26581  1.0000
  Fe  Fe3       1.0  0.15298  0.50357  0.36390  1.0000
  S   S5        1.0  0.14755  0.51009  0.42204  1.0000
  Fe  Fe4       1.0  0.13919  0.48809  0.28657  1.0000
  S   S6        1.0  0.11517  0.47509  0.25315  1.0000
  S   S7        1.0  0.17846  0.51709  0.34220  1.0000
  S   S8        1.0  0.16417  0.50020  0.26166  1.0000
  H   H1        1.0  0.14812  0.58564  0.09097  1.0000
  S   S9        1.0  0.09430  0.44991  0.08840  1.0000
  S   S10       1.0  0.04750  0.44493  0.05291  1.0000
  Fe  Fe5       1.0  0.16485  0.63062  0.33345  1.0000
  S   S11       1.0  0.14198  0.63661  0.33376  1.0000
  S   S12       1.0  0.16385  0.60635  0.35970  1.0000
  C   C1        1.0  0.16359  0.58844  0.16628  1.0000
  S   S13       1.0  0.06807  0.58130  0.02962  1.0000
  H   H2        1.0  0.15280  0.58969  0.43067  1.0000
  Fe  Fe6       1.0  0.08570  0.60831  0.02451  1.0000
  S   S14       1.0  0.10592  0.62087  0.06837  1.0000
  C   C2        1.0  0.12250  0.63357  0.18916  1.0000
  C   C3        1.0  0.08728  0.57231  0.19728  1.0000
  C   C4        1.0  0.12869  0.63184  0.12491  1.0000
  C   C5        1.0  0.11181  0.62542  0.11535  1.0000
  C   C6        1.0  0.12537  0.48823  0.01873  1.0000
  H   H3        1.0  0.20224  0.53924  0.28041  1.0000
  H   H4        1.0  0.11302  0.49773  0.37988  1.0000
  Fe  Fe7       1.0  0.05395  0.46713  0.01637  1.0000
  C   C7        1.0  0.16069  0.49354  0.47112  1.0000
  C   C8        1.0  0.10693  0.45908  0.41560  1.0000
  C   C9        1.0  0.22039  0.51087  0.31516  1.0000
  S   S15       1.0  0.17223  0.64017  0.27724  1.0000
  C   C10       1.0  0.23003  0.53002  0.06927  1.0000
  C   C11       1.0  0.21110  0.52613  0.24040  1.0000
  H   H5        1.0  0.14700  0.64093  0.16787  1.0000
  C   C12       1.0  0.16996  0.56407  0.29116  1.0000
  C   C13       1.0  0.16444  0.56114  0.32684  1.0000
  C   C14       1.0  0.16222  0.57411  0.34726  1.0000
  C   C15       1.0  0.16548  0.59007  0.33216  1.0000
  C   C16       1.0  0.17050  0.59285  0.29609  1.0000
  C   C17       1.0  0.17281  0.57988  0.27566  1.0000
  H   H6        1.0  0.16217  0.54898  0.33899  1.0000
  H   H7        1.0  0.15819  0.57184  0.37503  1.0000
  H   H8        1.0  0.17292  0.60508  0.28416  1.0000
  H   H9        1.0  0.17693  0.58216  0.24794  1.0000
  C   C18       1.0  0.11008  0.46969  0.20619  1.0000
  C   C19       1.0  0.09382  0.46622  0.19395  1.0000
  C   C20       1.0  0.08893  0.46089  0.15779  1.0000
  C   C21       1.0  0.10016  0.45863  0.13323  1.0000
  C   C22       1.0  0.11649  0.46239  0.14531  1.0000
  C   C23       1.0  0.12146  0.46803  0.18126  1.0000
  H   H10       1.0  0.08484  0.46740  0.21276  1.0000
  H   H11       1.0  0.07631  0.45795  0.14933  1.0000
  H   H12       1.0  0.12533  0.46066  0.12683  1.0000
  H   H13       1.0  0.13397  0.47061  0.18997  1.0000
  C   C24       1.0  0.15217  0.50437  0.46603  1.0000
  H   H14       1.0  0.02008  0.43925  0.16462  1.0000
  C   C25       1.0  0.15769  0.45618  0.42467  1.0000
  C   C26       1.0  0.11634  0.55276  0.22267  1.0000
  Fe  Fe8       1.0  0.14985  0.64748  0.27808  1.0000
  H   H15       1.0  0.21275  0.53512  0.14865  1.0000
  H   H16       1.0  0.13744  0.52878  0.25234  1.0000
  Fe  Fe9       1.0  0.07395  0.44762  0.04572  1.0000
  H   H17       1.0  0.14113  0.55844  0.24311  1.0000
  C   C27       1.0  0.14786  0.57896  0.17926  1.0000
  C   C28       1.0  0.21483  0.49326  0.31191  1.0000
  H   H18       1.0  0.17491  0.44687  0.44950  1.0000
  H   H19       1.0  0.21163  0.51694  0.31876  1.0000
  H   H20       1.0  0.13866  0.46445  0.40666  1.0000
  H   H21       1.0  0.09920  0.58696  0.09881  1.0000
  H   H22       1.0  0.00900  0.49715  0.09210  1.0000
  C   C29       1.0  0.00613  0.40352  0.17320  1.0000
  H   H23       1.0  0.22227  0.47191  0.30525  1.0000
  C   C30       1.0  0.09922  0.52276  0.21980  1.0000
  C   C31       1.0  0.13984  0.51160  0.17615  1.0000
  C   C32       1.0  0.15656  0.51836  0.16760  1.0000
  C   C33       1.0  0.16158  0.52627  0.13439  1.0000
  C   C34       1.0  0.14987  0.52764  0.10999  1.0000
  C   C35       1.0  0.13308  0.52152  0.11905  1.0000
  C   C36       1.0  0.12811  0.51317  0.15206  1.0000
  P   P1        1.0  0.11811  0.52314  0.08681  1.0000
  C   C37       1.0  0.09750  0.51319  0.10431  1.0000
  C   C38       1.0  0.12124  0.54496  0.07668  1.0000
  C   C39       1.0  0.13535  0.55850  0.08883  1.0000
  C   C40       1.0  0.13729  0.57524  0.08139  1.0000
  H   H24       1.0  0.18307  0.59716  0.44603  1.0000
  H   H25       1.0  0.13794  0.62716  0.48175  1.0000
  C   C41       1.0  0.10894  0.54860  0.05796  1.0000
  C   C42       1.0  0.08863  0.49583  0.09850  1.0000
  C   C43       1.0  0.07227  0.48845  0.10969  1.0000
  C   C44       1.0  0.06470  0.49827  0.12708  1.0000
  C   C45       1.0  0.07361  0.51543  0.13410  1.0000
  C   C46       1.0  0.09000  0.52286  0.12305  1.0000
  C   C47       1.0  0.11949  0.51143  0.04651  1.0000
  C   C48       1.0  0.12487  0.49782  0.04934  1.0000
  S   S16       1.0  0.12835  0.63896  0.23587  1.0000
  C   C49       1.0  0.00734  0.50038  0.03461  1.0000
  H   H26       1.0  0.19679  0.48784  0.38887  1.0000
  H   H27       1.0  0.16125  0.65263  0.45737  1.0000
  H   H28       1.0  0.13596  0.50508  0.20154  1.0000
  H   H29       1.0  0.16560  0.51738  0.18671  1.0000
  H   H30       1.0  0.17453  0.53128  0.12758  1.0000
  H   H31       1.0  0.15388  0.53346  0.08399  1.0000
  H   H32       1.0  0.11521  0.50763  0.15919  1.0000
  H   H33       1.0  0.14478  0.55633  0.10452  1.0000
  H   H34       1.0  0.07057  0.57984  0.11906  1.0000
  H   H35       1.0  0.11353  0.52587  0.43281  1.0000
  H   H36       1.0  0.09416  0.48795  0.08486  1.0000
  H   H37       1.0  0.06534  0.47517  0.10395  1.0000
  H   H38       1.0  0.05186  0.49258  0.13459  1.0000
  H   H39       1.0  0.06772  0.52307  0.14743  1.0000
  H   H40       1.0  0.09667  0.53621  0.12849  1.0000
  H   H41       1.0  0.12813  0.49414  0.07534  1.0000
  H   H42       1.0  0.20207  0.50253  0.44750  1.0000
  C   C50       1.0  0.09583  0.58249  0.12610  1.0000
  H   H43       1.0  0.12617  0.58159  0.35016  1.0000
  C   C51       1.0  0.98910  0.55140  0.01665  1.0000
  C   C52       1.0  0.99485  0.40891  0.19146  1.0000
  C   C53       1.0  0.21194  0.54022  0.26133  1.0000
  H   H44       1.0  0.02379  0.46813  0.14556  1.0000
  H   H45       1.0  0.20511  0.46344  0.37772  1.0000
  C   C54       1.0  0.20614  0.49208  0.44355  1.0000
  C   C55       1.0  0.12725  0.53177  0.24198  1.0000
  H   H46       1.0  0.02258  0.58081  0.10701  1.0000
  H   H47       1.0  0.13972  0.55039  0.43364  1.0000
  H   H48       1.0  0.02261  0.38990  0.17843  1.0000
  C   C56       1.0  0.06688  0.53702  0.01333  1.0000
  C   C57       1.0  0.20749  0.46978  0.40398  1.0000
  C   C58       1.0  0.22513  0.51755  0.14015  1.0000
  H   H49       1.0  0.19142  0.62825  0.43414  1.0000
  C   C59       1.0  0.02848  0.40615  0.11077  1.0000
  C   C60       1.0  0.04285  0.41510  0.13073  1.0000
  C   C61       1.0  0.05823  0.41601  0.11817  1.0000
  C   C62       1.0  0.05942  0.40828  0.08531  1.0000
  C   C63       1.0  0.01430  0.39472  0.19222  1.0000
  C   C64       1.0  0.99096  0.58865  0.06799  1.0000
  H   H50       1.0  0.98871  0.59668  0.04776  1.0000
  H   H51       1.0  0.19099  0.50257  0.14435  1.0000
  H   H52       1.0  0.10939  0.52483  0.00953  1.0000
  H   H53       1.0  0.13778  0.63393  0.10385  1.0000
  C   C65       1.0  0.07965  0.57854  0.13761  1.0000
  C   C66       1.0  0.12935  0.54863  0.23638  1.0000
  H   H54       1.0  0.09765  0.53851  0.04937  1.0000
  H   H55       1.0  0.06288  0.57070  0.18231  1.0000
  C   C67       1.0  0.20148  0.49363  0.18927  1.0000
  H   H56       1.0  0.04225  0.42175  0.15549  1.0000
  H   H57       1.0  0.06935  0.42320  0.13323  1.0000
  C   C68       1.0  0.09668  0.42824  0.45994  1.0000
  C   C69       1.0  0.21828  0.47254  0.46523  1.0000
  C   C70       1.0  0.01945  0.52342  0.07772  1.0000
  C   C71       1.0  0.10135  0.44912  0.38415  1.0000
  C   C72       1.0  0.17282  0.48132  0.16966  1.0000
  H   H58       1.0  0.11053  0.50577  0.23869  1.0000
  C   C73       1.0  0.17067  0.60582  0.17360  1.0000
  H   H59       1.0  0.16737  0.62724  0.19915  1.0000
  C   C74       1.0  0.16279  0.44754  0.45111  1.0000
  C   C75       1.0  0.14643  0.60424  0.20731  1.0000
  C   C76       1.0  0.11836  0.53224  0.45827  1.0000
  C   C77       1.0  0.10849  0.60273  0.29733  1.0000
  C   C78       1.0  0.22170  0.53632  0.09429  1.0000
  C   C79       1.0  0.20484  0.65515  0.43911  1.0000
  C   C80       1.0  0.15352  0.58999  0.48941  1.0000
  H   H60       1.0  0.09103  0.54234  0.20332  1.0000
  C   C81       1.0  0.02978  0.39848  0.07771  1.0000
  H   H61       1.0  0.08674  0.46547  0.47142  1.0000
  P   P2        1.0  0.11894  0.57471  0.21708  1.0000
  H   H62       1.0  0.09191  0.38862  0.42973  1.0000
  C   C82       1.0  0.18875  0.49341  0.16566  1.0000
  H   H63       1.0  0.10370  0.61278  0.29897  1.0000
  H   H64       1.0  0.22576  0.56643  0.27396  1.0000
  C   C83       1.0  0.21434  0.48695  0.47111  1.0000
  C   C84       1.0  0.08922  0.39849  0.44394  1.0000
  C   C85       1.0  0.10127  0.53965  0.21414  1.0000
  C   C86       1.0  0.10031  0.62287  0.14323  1.0000
  H   H65       1.0  0.08730  0.61799  0.13669  1.0000
  H   H66       1.0  0.12877  0.56933  0.29128  1.0000
  H   H67       1.0  0.01802  0.38511  0.24389  1.0000
  C   C87       1.0  0.10361  0.57630  0.18589  1.0000
  C   C88       1.0  0.10941  0.48411  0.38119  1.0000
  H   H68       1.0  0.07143  0.40954  0.07505  1.0000
  C   C89       1.0  0.14217  0.45735  0.42696  1.0000
  C   C90       1.0  0.00710  0.59032  0.07614  1.0000
  C   C91       1.0  0.13399  0.63581  0.16138  1.0000
  H   H69       1.0  0.12647  0.59163  0.05680  1.0000
  H   H70       1.0  0.04613  0.39399  0.03902  1.0000
  H   H71       1.0  0.06617  0.54859  0.02354  1.0000
  H   H72       1.0  0.12035  0.58504  0.14082  1.0000
  C   C92       1.0  0.16203  0.61372  0.19382  1.0000
  C   C93       1.0  0.10371  0.47412  0.35013  1.0000
  H   H73       1.0  0.10272  0.47995  0.32473  1.0000
  H   H74       1.0  0.00619  0.44939  0.03900  1.0000
  H   H75       1.0  0.01712  0.47327  0.08254  1.0000
  H   H76       1.0  0.16583  0.46222  0.40257  1.0000
  C   C94       1.0  0.11111  0.47665  0.41370  1.0000
  C   C95       1.0  0.07537  0.57346  0.17322  1.0000
  C   C96       1.0  0.13335  0.54608  0.45890  1.0000
  H   H77       1.0  0.98550  0.53536  0.09106  1.0000
  C   C97       1.0  0.19259  0.58325  0.40970  1.0000
  C   C98       1.0  0.19238  0.56733  0.39924  1.0000
  C   C99       1.0  0.18263  0.55294  0.41801  1.0000
  C   C100      1.0  0.17281  0.55441  0.44665  1.0000
  C   C101      1.0  0.17237  0.57024  0.45624  1.0000
  C   C102      1.0  0.18280  0.58475  0.43843  1.0000
  C   C103      1.0  0.02279  0.53503  0.04961  1.0000
  C   C104      1.0  0.19796  0.48169  0.21700  1.0000
  H   H78       1.0  0.04928  0.52152  0.05142  1.0000
  H   H79       1.0  0.06651  0.38129  0.46638  1.0000
  C   C105      1.0  0.15091  0.59574  0.45529  1.0000
  H   H80       1.0  0.19992  0.59438  0.39477  1.0000
  H   H81       1.0  0.19951  0.56610  0.37617  1.0000
  H   H82       1.0  0.18231  0.54053  0.40992  1.0000
  H   H83       1.0  0.14385  0.61382  0.42610  1.0000
  H   H84       1.0  0.18284  0.61321  0.16360  1.0000
  C   C106      1.0  0.13658  0.44065  0.48144  1.0000
  H   H85       1.0  0.08383  0.56847  0.22489  1.0000
  C   C107      1.0  0.12512  0.57865  0.06217  1.0000
  H   H86       1.0  0.08760  0.51267  0.21320  1.0000
  C   C108      1.0  0.11092  0.56534  0.05069  1.0000
  C   C109      1.0  0.13934  0.58674  0.20062  1.0000
  C   C110      1.0  0.22522  0.55556  0.25770  1.0000
  H   H87       1.0  0.15710  0.46017  0.20063  1.0000
  H   H88       1.0  0.14245  0.56557  0.17283  1.0000
  H   H89       1.0  0.16299  0.48124  0.15158  1.0000
  C   C111      1.0  0.04520  0.39951  0.06511  1.0000
  H   H90       1.0  0.17940  0.46068  0.24286  1.0000
  C   C112      1.0  0.11390  0.59724  0.32863  1.0000
  C   C113      1.0  0.09972  0.45665  0.35157  1.0000
  C   C114      1.0  0.20288  0.48361  0.41014  1.0000
  H   H91       1.0  0.13995  0.61065  0.22288  1.0000
  S   S17       1.0  0.04537  0.48749  0.03483  1.0000
  H   H92       1.0  0.17029  0.58231  0.15065  1.0000
  C   C115      1.0  0.12269  0.57828  0.29241  1.0000
  H   H93       1.0  0.11611  0.48471  0.43712  1.0000
  H   H94       1.0  0.10133  0.56802  0.03638  1.0000
  C   C116      1.0  0.22351  0.52735  0.21529  1.0000
  C   C117      1.0  0.00862  0.44704  0.06677  1.0000
  C   C118      1.0  0.21823  0.54362  0.48181  1.0000
  C   C119      1.0  0.10781  0.58146  0.15012  1.0000
  C   C120      1.0  0.11006  0.59593  0.26357  1.0000
  C   C121      1.0  0.22644  0.48554  0.30780  1.0000
  C   C122      1.0  0.01003  0.57964  0.10134  1.0000
  C   C123      1.0  0.20721  0.63787  0.38846  1.0000
  H   H95       1.0  0.10643  0.60093  0.23959  1.0000
  C   C124      1.0  0.99219  0.40603  0.22854  1.0000
  C   C125      1.0  0.14559  0.60929  0.45258  1.0000
  H   H96       1.0  0.09572  0.44904  0.32709  1.0000
  C   C126      1.0  0.11685  0.58338  0.26088  1.0000
  H   H97       1.0  0.16530  0.54311  0.46076  1.0000
  C   C127      1.0  0.20055  0.63931  0.42210  1.0000
  H   H98       1.0  0.02864  0.54850  0.05514  1.0000
  H   H99       1.0  0.20076  0.51437  0.24407  1.0000
  C   C128      1.0  0.12119  0.58519  0.32611  1.0000
  C   C129      1.0  0.10562  0.62694  0.17965  1.0000
  H   H100      1.0  0.20745  0.48188  0.23614  1.0000
  H   H101      1.0  0.16545  0.48910  0.44792  1.0000
  C   C130      1.0  0.00641  0.43064  0.07744  1.0000
  C   C131      1.0  0.00995  0.42754  0.11310  1.0000
  H   H102      1.0  0.01903  0.39224  0.06089  1.0000
  H   H103      1.0  0.01733  0.59957  0.06207  1.0000
  H   H104      1.0  0.02287  0.52787  0.10524  1.0000
  H   H105      1.0  0.09653  0.62512  0.20064  1.0000
  S   S18       1.0  0.02191  0.57255  0.00443  1.0000
  C   C132      1.0  0.05727  0.52168  0.02907  1.0000
  H   H106      1.0  0.00248  0.42047  0.05756  1.0000
  H   H107      1.0  0.09853  0.43564  0.38439  1.0000
  C   C133      1.0  0.11215  0.51884  0.23409  1.0000
  C   C134      1.0  0.99120  0.37391  0.10022  1.0000
  C   C135      1.0  0.18204  0.46963  0.22090  1.0000
  C   C136      1.0  0.01164  0.39187  0.22931  1.0000
  C   C137      1.0  0.16947  0.46943  0.19725  1.0000
  H   H108      1.0  0.11311  0.60287  0.35466  1.0000
  C   C138      1.0  0.13150  0.44965  0.45542  1.0000
  C   C139      1.0  0.01841  0.52934  0.01405  1.0000
  H   H109      1.0  0.20317  0.62572  0.37446  1.0000
  P   P3        1.0  0.00899  0.40673  0.12517  1.0000
  C   C140      1.0  0.11419  0.51493  0.01263  1.0000
  C   C141      1.0  0.01478  0.46052  0.09139  1.0000
  P   P4        1.0  0.11091  0.44995  0.45686  1.0000
  C   C142      1.0  0.21925  0.53012  0.12959  1.0000
  C   C143      1.0  0.01639  0.44119  0.13757  1.0000
  C   C144      1.0  0.01864  0.45760  0.12679  1.0000
  H   H110      1.0  0.21719  0.54605  0.08638  1.0000
  C   C145      1.0  0.22293  0.52980  0.48749  1.0000
  C   C146      1.0  0.10008  0.41534  0.44165  1.0000
  H   H111      1.0  0.98803  0.41523  0.17696  1.0000
  C   C147      1.0  0.07491  0.39436  0.46455  1.0000
  C   C148      1.0  0.21505  0.46413  0.43164  1.0000
  Fe  Fe10      1.0  0.04101  0.43007  0.00029  1.0000
  H   H112      1.0  0.11110  0.41831  0.42548  1.0000
  H   H113      1.0  0.99850  0.39526  0.27618  1.0000
  H   H114      1.0  0.22394  0.46787  0.48658  1.0000
  H   H115      1.0  0.12904  0.47745  0.02131  1.0000
  C   C149      1.0  0.00063  0.39756  0.24749  1.0000
  C   C150      1.0  0.08224  0.42397  0.48057  1.0000
  C   C151      1.0  0.98253  0.40676  0.99474  1.0000
  H   H116      1.0  0.99931  0.55897  0.13760  1.0000
  H   H117      1.0  0.98348  0.41023  0.24252  1.0000
  C   C152      1.0  0.15223  0.43977  0.47949  1.0000
  H   H118      1.0  0.99442  0.54387  0.03159  1.0000
  H   H119      1.0  0.00099  0.48697  0.02952  1.0000
  C   C153      1.0  0.99135  0.39037  0.10477  1.0000
  S   S19       1.0  0.08048  0.47088  0.01209  1.0000
  C   C154      1.0  0.99972  0.56625  0.99974  1.0000
  C   C155      1.0  0.07143  0.40709  0.48284  1.0000
  C   C156      1.0  0.01173  0.50611  0.07024  1.0000
  H   H120      1.0  0.98773  0.42040  0.99709  1.0000
  C   C157      1.0  0.05796  0.50655  0.01585  1.0000
  S   S20       1.0  0.01559  0.40742  0.99464  1.0000
  C   C158      1.0  0.99681  0.56723  0.11834  1.0000
  H   H121      1.0  0.21848  0.45328  0.42693  1.0000
  H   H122      1.0  0.00182  0.37101  0.10791  1.0000
  P   P5        1.0  0.22195  0.50969  0.18589  1.0000
  H   H123      1.0  0.22362  0.47648  0.17108  1.0000
  H   H124      1.0  0.22273  0.65135  0.34487  1.0000
  C   C159      1.0  0.01091  0.51198  0.00612  1.0000
  H   H125      1.0  0.22509  0.55349  0.46328  1.0000
  H   H126      1.0  0.98586  0.57629  0.24864  1.0000
  C   C160      1.0  0.14236  0.61687  0.48388  1.0000
  S   S21       1.0  0.06738  0.43043  0.99563  1.0000
  C   C161      1.0  0.21821  0.65229  0.37179  1.0000
  H   H127      1.0  0.09825  0.51574  0.48988  1.0000
  C   C162      1.0  0.10980  0.52651  0.49042  1.0000
  C   C163      1.0  0.14005  0.55406  0.49191  1.0000
  S   S22       1.0  0.18018  0.65504  0.36065  1.0000
  P   P6        1.0  0.15942  0.57185  0.49297  1.0000
  Fe  Fe11      1.0  0.16013  0.49481  0.64027  1.0000
  S   S23       1.0  0.18490  0.51263  0.66032  1.0000
  S   S24       1.0  0.15915  0.48621  0.58046  1.0000
  Fe  Fe12      1.0  0.14602  0.48814  0.71995  1.0000
  S   S25       1.0  0.17031  0.50512  0.74378  1.0000
  S   S26       1.0  0.12220  0.47464  0.75331  1.0000
  Fe  Fe13      1.0  0.17053  0.52260  0.69834  1.0000
  S   S27       1.0  0.17928  0.55022  0.71390  1.0000
  Fe  Fe14      1.0  0.18263  0.49363  0.70349  1.0000
  S   S28       1.0  0.20344  0.48428  0.71621  1.0000
  S   S29       1.0  0.14575  0.50637  0.67551  1.0000
  S   S30       1.0  0.15832  0.47510  0.68248  1.0000
  H   H128      1.0  0.22491  0.41684  0.53173  1.0000
  C   C164      1.0  0.19490  0.63736  0.84488  1.0000
  C   C165      1.0  0.07736  0.53726  0.98468  1.0000
  S   S31       1.0  0.08918  0.55638  0.96459  1.0000
  C   C166      1.0  0.99960  0.48311  0.95197  1.0000
  H   H129      1.0  0.12026  0.48421  0.96164  1.0000
  Fe  Fe15      1.0  0.07340  0.45420  0.96206  1.0000
  S   S32       1.0  0.09349  0.46388  0.91703  1.0000
  S   S33       1.0  0.04692  0.45271  0.96391  1.0000
  Fe  Fe16      1.0  0.16356  0.62791  0.64909  1.0000
  S   S34       1.0  0.14258  0.63704  0.65309  1.0000
  S   S35       1.0  0.15695  0.60148  0.62602  1.0000
  C   C167      1.0  0.14679  0.51069  0.49687  1.0000
  H   H130      1.0  0.08425  0.62324  0.80527  1.0000
  H   H131      1.0  0.16878  0.47928  0.50957  1.0000
  C   C168      1.0  0.11449  0.50512  0.98220  1.0000
  S   S36       1.0  0.17372  0.63771  0.70407  1.0000
  C   C169      1.0  0.98565  0.52487  0.94061  1.0000
  Fe  Fe17      1.0  0.07886  0.60794  0.94070  1.0000
  H   H132      1.0  0.07952  0.57422  0.87954  1.0000
  S   S37       1.0  0.08379  0.61847  0.88239  1.0000
  C   C170      1.0  0.11527  0.47397  0.55572  1.0000
  H   H133      1.0  0.17661  0.45717  0.62278  1.0000
  S   S38       1.0  0.06077  0.58092  0.94227  1.0000
  H   H134      1.0  0.09287  0.49872  0.88932  1.0000
  C   C171      1.0  0.02495  0.52896  0.86756  1.0000
  C   C172      1.0  0.12609  0.63620  0.79756  1.0000
  H   H135      1.0  0.06781  0.47774  0.91401  1.0000
  H   H136      1.0  0.20821  0.37098  0.59283  1.0000
  C   C173      1.0  0.10046  0.62497  0.85049  1.0000
  C   C174      1.0  0.11700  0.62913  0.86058  1.0000
  C   C175      1.0  0.12967  0.63479  0.83440  1.0000
  C   C176      1.0  0.20445  0.54454  0.49945  1.0000
  C   C177      1.0  0.01870  0.51689  0.92761  1.0000
  H   H137      1.0  0.12006  0.62837  0.88872  1.0000
  C   C178      1.0  0.03533  0.52499  0.93734  1.0000
  C   C179      1.0  0.10239  0.47991  0.55486  1.0000
  H   H138      1.0  0.15115  0.59285  0.54737  1.0000
  C   C180      1.0  0.14725  0.58834  0.77738  1.0000
  H   H139      1.0  0.22320  0.43578  0.59338  1.0000
  C   C181      1.0  0.09219  0.47687  0.52434  1.0000
  H   H140      1.0  0.14564  0.61300  0.78219  1.0000
  C   C182      1.0  0.13466  0.57239  0.72298  1.0000
  C   C183      1.0  0.19001  0.58775  0.58127  1.0000
  C   C184      1.0  0.15721  0.49439  0.53708  1.0000
  C   C185      1.0  0.11459  0.47252  0.79923  1.0000
  C   C186      1.0  0.12483  0.47873  0.82963  1.0000
  C   C187      1.0  0.11820  0.47603  0.86516  1.0000
  C   C188      1.0  0.10120  0.46722  0.87122  1.0000
  C   C189      1.0  0.09094  0.46137  0.84079  1.0000
  C   C190      1.0  0.09758  0.46392  0.80534  1.0000
  H   H141      1.0  0.13792  0.48533  0.82580  1.0000
  H   H142      1.0  0.12636  0.48062  0.88820  1.0000
  H   H143      1.0  0.07787  0.45462  0.84456  1.0000
  H   H144      1.0  0.08943  0.45902  0.78237  1.0000
  C   C191      1.0  0.17221  0.56403  0.69028  1.0000
  C   C192      1.0  0.16055  0.55824  0.66238  1.0000
  C   C193      1.0  0.15575  0.56982  0.64304  1.0000
  C   C194      1.0  0.16250  0.58715  0.65177  1.0000
  C   C195      1.0  0.17391  0.59286  0.68011  1.0000
  C   C196      1.0  0.17876  0.58132  0.69928  1.0000
  H   H145      1.0  0.15547  0.54493  0.65527  1.0000
  H   H146      1.0  0.14698  0.56539  0.62098  1.0000
  H   H147      1.0  0.17925  0.60619  0.68674  1.0000
  H   H148      1.0  0.18782  0.58584  0.72075  1.0000
  S   S39       1.0  0.18092  0.65080  0.62072  1.0000
  H   H149      1.0  0.08638  0.52229  0.94960  1.0000
  H   H150      1.0  0.20437  0.38814  0.54226  1.0000
  C   C197      1.0  0.22408  0.49560  0.70278  1.0000
  H   H151      1.0  0.21624  0.50237  0.59354  1.0000
  H   H152      1.0  0.04051  0.47928  0.90152  1.0000
  H   H153      1.0  0.11475  0.50295  0.71192  1.0000
  C   C198      1.0  0.13006  0.58908  0.92241  1.0000
  C   C199      1.0  0.20851  0.46423  0.80826  1.0000
  C   C200      1.0  0.98512  0.50971  0.95625  1.0000
  H   H154      1.0  0.08398  0.54750  0.88836  1.0000
  C   C201      1.0  0.98294  0.45612  0.92402  1.0000
  C   C202      1.0  0.01370  0.51841  0.89207  1.0000
  C   C203      1.0  0.20237  0.64311  0.81163  1.0000
  C   C204      1.0  0.11614  0.53475  0.52322  1.0000
  H   H155      1.0  0.03852  0.50185  0.86208  1.0000
  H   H156      1.0  0.18444  0.53198  0.53570  1.0000
  C   C205      1.0  0.17080  0.57218  0.53400  1.0000
  H   H157      1.0  0.10036  0.48688  0.57789  1.0000
  S   S40       1.0  0.14274  0.64393  0.76586  1.0000
  C   C206      1.0  0.20632  0.48442  0.54921  1.0000
  H   H158      1.0  0.10237  0.57987  0.77533  1.0000
  C   C207      1.0  0.19710  0.48015  0.61177  1.0000
  C   C208      1.0  0.18507  0.46452  0.60238  1.0000
  C   C209      1.0  0.18358  0.45875  0.56655  1.0000
  C   C210      1.0  0.19408  0.46865  0.54003  1.0000
  C   C211      1.0  0.18888  0.57253  0.59714  1.0000
  H   H159      1.0  0.08043  0.49906  0.79684  1.0000
  C   C212      1.0  0.09587  0.54833  0.83679  1.0000
  H   H160      1.0  0.12308  0.58853  0.94693  1.0000
  H   H161      1.0  0.00100  0.51190  0.88370  1.0000
  H   H162      1.0  0.02095  0.48311  0.98166  1.0000
  H   H163      1.0  0.05918  0.54229  0.92120  1.0000
  H   H164      1.0  0.08845  0.59029  0.82305  1.0000
  C   C213      1.0  0.06690  0.48780  0.89752  1.0000
  S   S41       1.0  0.06729  0.61535  0.99034  1.0000
  C   C214      1.0  0.08536  0.56946  0.85853  1.0000
  H   H165      1.0  0.19734  0.59968  0.59420  1.0000
  H   H166      1.0  0.11086  0.55041  0.90838  1.0000
  H   H167      1.0  0.04994  0.54625  0.85954  1.0000
  H   H168      1.0  0.13153  0.55191  0.95448  1.0000
  C   C215      1.0  0.21382  0.51676  0.51078  1.0000
  C   C216      1.0  0.09629  0.49975  0.75243  1.0000
  C   C217      1.0  0.11159  0.50810  0.73644  1.0000
  C   C218      1.0  0.12302  0.52258  0.75289  1.0000
  C   C219      1.0  0.11905  0.52874  0.78532  1.0000
  C   C220      1.0  0.10364  0.52052  0.80143  1.0000
  C   C221      1.0  0.09226  0.50593  0.78475  1.0000
  P   P7        1.0  0.09881  0.52856  0.84355  1.0000
  C   C222      1.0  0.11521  0.53116  0.87574  1.0000
  C   C223      1.0  0.08802  0.55441  0.86354  1.0000
  C   C224      1.0  0.04652  0.53558  0.91288  1.0000
  C   C225      1.0  0.12445  0.52074  0.87326  1.0000
  C   C226      1.0  0.13645  0.52190  0.89936  1.0000
  Fe  Fe18      1.0  0.15346  0.64806  0.70761  1.0000
  C   C227      1.0  0.12992  0.54353  0.93130  1.0000
  C   C228      1.0  0.11803  0.54254  0.90505  1.0000
  H   H169      1.0  0.08775  0.48816  0.74026  1.0000
  H   H170      1.0  0.12800  0.53988  0.79792  1.0000
  H   H171      1.0  0.18952  0.44738  0.84189  1.0000
  H   H172      1.0  0.17387  0.44689  0.55919  1.0000
  C   C229      1.0  0.06476  0.51350  0.85387  1.0000
  C   C230      1.0  0.01015  0.47563  0.96605  1.0000
  C   C231      1.0  0.10100  0.55762  0.80482  1.0000
  C   C232      1.0  0.18339  0.57724  0.80269  1.0000
  C   C233      1.0  0.20260  0.45261  0.83615  1.0000
  C   C234      1.0  0.05155  0.48862  0.89025  1.0000
  C   C235      1.0  0.17887  0.55712  0.58137  1.0000
  H   H173      1.0  0.17774  0.54535  0.59425  1.0000
  C   C236      1.0  0.14241  0.60150  0.76613  1.0000
  H   H174      1.0  0.20233  0.63784  0.75445  1.0000
  H   H175      1.0  0.13504  0.52880  0.74082  1.0000
  C   C237      1.0  0.05046  0.50138  0.86812  1.0000
  C   C238      1.0  0.08120  0.49987  0.88347  1.0000
  C   C239      1.0  0.21513  0.39322  0.55971  1.0000
  H   H176      1.0  0.16220  0.54489  0.53795  1.0000
  H   H177      1.0  0.14756  0.56370  0.76232  1.0000
  H   H178      1.0  0.11334  0.59581  0.88896  1.0000
  C   C240      1.0  0.14998  0.59751  0.52072  1.0000
  C   C241      1.0  0.10955  0.63166  0.78735  1.0000
  H   H179      1.0  0.14684  0.55637  0.84457  1.0000
  H   H180      1.0  0.20895  0.43858  0.87788  1.0000
  H   H181      1.0  0.12210  0.51139  0.85170  1.0000
  C   C242      1.0  0.16992  0.55693  0.54980  1.0000
  H   H182      1.0  0.06367  0.52318  0.83643  1.0000
  C   C243      1.0  0.15874  0.55868  0.83249  1.0000
  C   C244      1.0  0.19669  0.63326  0.78036  1.0000
  H   H183      1.0  0.12389  0.58487  0.68599  1.0000
  H   H184      1.0  0.13046  0.61057  0.72478  1.0000
  C   C245      1.0  0.15342  0.58633  0.89180  1.0000
  C   C246      1.0  0.04130  0.53777  0.87818  1.0000
  C   C247      1.0  0.13001  0.58563  0.71188  1.0000
  H   H185      1.0  0.17935  0.61018  0.75773  1.0000
  C   C248      1.0  0.09047  0.57858  0.82672  1.0000
  H   H186      1.0  0.02071  0.53858  0.99274  1.0000
  C   C249      1.0  0.08029  0.51303  0.86203  1.0000
  C   C250      1.0  0.09832  0.57268  0.79990  1.0000
  H   H187      1.0  0.02093  0.53055  0.84055  1.0000
  C   C251      1.0  0.17940  0.54789  0.81258  1.0000
  C   C252      1.0  0.14952  0.50599  0.53215  1.0000
  H   H188      1.0  0.10695  0.55334  0.78342  1.0000
  C   C253      1.0  0.20763  0.49007  0.58542  1.0000
  C   C254      1.0  0.09692  0.62631  0.81361  1.0000
  H   H189      1.0  0.14330  0.51360  0.89752  1.0000
  C   C255      1.0  0.13382  0.60015  0.73356  1.0000
  C   C256      1.0  0.21727  0.38354  0.58821  1.0000
  C   C257      1.0  0.18117  0.58760  0.54957  1.0000
  H   H190      1.0  0.19799  0.48476  0.63943  1.0000
  H   H191      1.0  0.16471  0.58387  0.89321  1.0000
  H   H192      1.0  0.17628  0.61755  0.87299  1.0000
  C   C258      1.0  0.14339  0.57377  0.75541  1.0000
  C   C259      1.0  0.12449  0.59303  0.88960  1.0000
  Fe  Fe19      1.0  0.07944  0.57671  0.97816  1.0000
  H   H193      1.0  0.99059  0.43525  0.93484  1.0000
  H   H194      1.0  0.13210  0.56133  0.70567  1.0000
  H   H195      1.0  0.20003  0.46798  0.79218  1.0000
  H   H196      1.0  0.12327  0.47643  0.57932  1.0000
  H   H197      1.0  0.14908  0.58317  0.94920  1.0000
  H   H198      1.0  0.20040  0.56570  0.78578  1.0000
  H   H199      1.0  0.12878  0.59692  0.83290  1.0000
  H   H200      1.0  0.14236  0.63817  0.84284  1.0000
  H   H201      1.0  0.18345  0.53740  0.80866  1.0000
  C   C260      1.0  0.22535  0.47098  0.80073  1.0000
  H   H202      1.0  0.15672  0.53275  0.83791  1.0000
  H   H203      1.0  0.06898  0.49504  0.97685  1.0000
  H   H204      1.0  0.22018  0.51803  0.68646  1.0000
  H   H205      1.0  0.14502  0.51077  0.55539  1.0000
  H   H206      1.0  0.99375  0.37274  0.98857  1.0000
  C   C261      1.0  0.16430  0.54529  0.82900  1.0000
  H   H207      1.0  0.19532  0.57266  0.62235  1.0000
  H   H208      1.0  0.10970  0.50734  0.95646  1.0000
  C   C262      1.0  0.18187  0.62167  0.84697  1.0000
  C   C263      1.0  0.06852  0.50674  0.98734  1.0000
  P   P8        1.0  0.00366  0.50524  0.96060  1.0000
  C   C264      1.0  0.14464  0.58594  0.92359  1.0000
  C   C265      1.0  0.16820  0.57474  0.81909  1.0000
  C   C266      1.0  0.16278  0.48822  0.50626  1.0000
  C   C267      1.0  0.13331  0.59361  0.85777  1.0000
  H   H209      1.0  0.19072  0.58925  0.79099  1.0000
  P   P9        1.0  0.15965  0.59108  0.81791  1.0000
  C   C268      1.0  0.21356  0.44768  0.85641  1.0000
  P   P10       1.0  0.21886  0.49809  0.51439  1.0000
  H   H210      1.0  0.19209  0.46416  0.51233  1.0000
  C   C269      1.0  0.18901  0.56389  0.79981  1.0000
  C   C270      1.0  0.14459  0.61100  0.51793  1.0000
  C   C271      1.0  0.07831  0.52214  0.97185  1.0000
  C   C272      1.0  0.13929  0.53339  0.92822  1.0000
  C   C273      1.0  0.18362  0.61761  0.78232  1.0000
  H   H211      1.0  0.14833  0.53401  0.94885  1.0000
  Fe  Fe20      1.0  0.05009  0.58751  0.99313  1.0000
  C   C274      1.0  0.14781  0.59011  0.85855  1.0000
  C   C275      1.0  0.17618  0.61161  0.81570  1.0000
  S   S42       1.0  0.09786  0.60300  0.97431  1.0000
  H   H212      1.0  0.12847  0.46112  0.52728  1.0000
  C   C276      1.0  0.00674  0.45838  0.96028  1.0000
  H   H213      1.0  0.08215  0.48143  0.52371  1.0000
  H   H214      1.0  0.19255  0.50788  0.54606  1.0000
  H   H215      1.0  0.00012  0.58699  0.96652  1.0000
  H   H216      1.0  0.10648  0.63266  0.75930  1.0000
  C   C277      1.0  0.98619  0.47333  0.93008  1.0000
  H   H217      1.0  0.99719  0.53440  0.93214  1.0000
  H   H218      1.0  0.03965  0.52348  0.96404  1.0000
  H   H219      1.0  0.14199  0.61681  0.54226  1.0000
  C   C278      1.0  0.99314  0.44862  0.93935  1.0000
  H   H220      1.0  0.18221  0.59954  0.53773  1.0000
  C   C279      1.0  0.19536  0.53161  0.52266  1.0000
  H   H221      1.0  0.13581  0.55495  0.54952  1.0000
  C   C280      1.0  0.13116  0.54856  0.52396  1.0000
  H   H222      1.0  0.21398  0.45736  0.61974  1.0000
  C   C281      1.0  0.22682  0.40943  0.55373  1.0000
  H   H223      1.0  0.01462  0.45252  0.97211  1.0000
  C   C282      1.0  0.20004  0.51783  0.52845  1.0000
  C   C283      1.0  0.22679  0.46067  0.61258  1.0000
  H   H224      1.0  0.19916  0.64512  0.86903  1.0000
  C   C284      1.0  0.11813  0.46514  0.52598  1.0000
  C   C285      1.0  0.98592  0.38002  0.98998  1.0000
  H   H225      1.0  0.10943  0.53046  0.54811  1.0000
  H   H226      1.0  0.12842  0.43433  0.50325  1.0000
  C   C286      1.0  0.22904  0.51197  0.68901  1.0000
  H   H227      1.0  0.16241  0.65259  0.52545  1.0000
  C   C287      1.0  0.99235  0.57556  0.97985  1.0000
  C   C288      1.0  0.12032  0.49197  0.98512  1.0000
  H   H228      1.0  0.14025  0.51911  0.49348  1.0000
  H   H229      1.0  0.06034  0.40388  0.49890  1.0000
  H   H230      1.0  0.22960  0.47988  0.77887  1.0000
  H   H231      1.0  0.15612  0.43298  0.49992  1.0000
  C   C289      1.0  0.09487  0.46786  0.49471  1.0000
  C   C290      1.0  0.10790  0.46192  0.49523  1.0000
  H   H232      1.0  0.21242  0.65529  0.80995  1.0000
  H   H233      1.0  0.07927  0.43354  0.49509  1.0000
  H   H234      1.0  0.20065  0.55513  0.49485  1.0000
  C   C291      1.0  0.99322  0.39774  0.99297  1.0000
  C   C292      1.0  0.23044  0.45438  0.84882  1.0000
  C   C293      1.0  0.20622  0.69925  0.42546  1.0000
  S   S43       1.0  0.16407  0.67366  0.30232  1.0000
  S   S44       1.0  0.21361  0.68010  0.29574  1.0000
  H   H235      1.0  0.22165  0.74076  0.29277  1.0000
  C   C294      1.0  0.19972  0.70864  0.44797  1.0000
  S   S45       1.0  0.15137  0.67462  0.40676  1.0000
  C   C295      1.0  0.21586  0.66977  0.42252  1.0000
  H   H236      1.0  0.17478  0.71748  0.38724  1.0000
  H   H237      1.0  0.21906  0.74408  0.46546  1.0000
  H   H238      1.0  0.18729  0.70236  0.34659  1.0000
  H   H239      1.0  0.21706  0.74705  0.39959  1.0000
  C   C296      1.0  0.21017  0.79015  0.11714  1.0000
  C   C297      1.0  0.19088  0.70425  0.37483  1.0000
  C   C298      1.0  0.21776  0.71422  0.29570  1.0000
  H   H240      1.0  0.20701  0.79817  0.17118  1.0000
  Fe  Fe21      1.0  0.15793  0.66170  0.35774  1.0000
  H   H241      1.0  0.20709  0.69071  0.37028  1.0000
  C   C299      1.0  0.18396  0.71293  0.39770  1.0000
  H   H242      1.0  0.20454  0.71001  0.29233  1.0000
  C   C300      1.0  0.20199  0.69747  0.38856  1.0000
  C   C301      1.0  0.18845  0.71522  0.43424  1.0000
  C   C302      1.0  0.15385  0.67408  0.45477  1.0000
  C   C303      1.0  0.15847  0.66204  0.47299  1.0000
  C   C304      1.0  0.22917  0.79280  0.16681  1.0000
  C   C305      1.0  0.15050  0.68629  0.47546  1.0000
  Fe  Fe22      1.0  0.18593  0.66558  0.30471  1.0000
  H   H243      1.0  0.19896  0.79117  0.10681  1.0000
  H   H244      1.0  0.14691  0.69563  0.46197  1.0000
  C   C306      1.0  0.22250  0.66816  0.38865  1.0000
  C   C307      1.0  0.21471  0.79411  0.15339  1.0000
  P   P11       1.0  0.22075  0.69057  0.44287  1.0000
  H   H245      1.0  0.22918  0.75335  0.14969  1.0000
  H   H246      1.0  0.18285  0.72170  0.45208  1.0000
  C   C308      1.0  0.22518  0.70227  0.29849  1.0000
  C   C309      1.0  0.22005  0.78482  0.09426  1.0000
  H   H247      1.0  0.22264  0.72478  0.17415  1.0000
  C   C310      1.0  0.23015  0.75078  0.45055  1.0000
  H   H248      1.0  0.20307  0.71071  0.47621  1.0000
  H   H249      1.0  0.23041  0.67923  0.37430  1.0000
  C   C311      1.0  0.22891  0.75259  0.41318  1.0000
  C   C312      1.0  0.22752  0.73167  0.29575  1.0000
  H   H250      1.0  0.21649  0.78169  0.06618  1.0000
  C   C313      1.0  0.21888  0.68858  0.49172  1.0000
  H   H251      1.0  0.19903  0.65587  0.46448  1.0000
  H   H252      1.0  0.19220  0.67883  0.49072  1.0000
  C   C314      1.0  0.21631  0.74924  0.72402  1.0000
  S   S46       1.0  0.16958  0.67294  0.68243  1.0000
  S   S47       1.0  0.21606  0.67574  0.69291  1.0000
  H   H253      1.0  0.14867  0.69606  0.52850  1.0000
  H   H254      1.0  0.15366  0.70423  0.62150  1.0000
  C   C315      1.0  0.20144  0.68039  0.54497  1.0000
  C   C316      1.0  0.18659  0.71840  0.67906  1.0000
  C   C317      1.0  0.22291  0.73309  0.77104  1.0000
  H   H255      1.0  0.18153  0.73160  0.57094  1.0000
  C   C318      1.0  0.22273  0.70694  0.66040  1.0000
  H   H256      1.0  0.22569  0.77370  0.54559  1.0000
  C   C319      1.0  0.16059  0.70860  0.64645  1.0000
  H   H257      1.0  0.15911  0.67292  0.82596  1.0000
  H   H258      1.0  0.21083  0.70127  0.64728  1.0000
  C   C320      1.0  0.17448  0.74659  0.76938  1.0000
  Fe  Fe23      1.0  0.18906  0.66189  0.67626  1.0000
  Fe  Fe24      1.0  0.16065  0.66065  0.62737  1.0000
  H   H259      1.0  0.18925  0.67554  0.55683  1.0000
  H   H260      1.0  0.19715  0.76259  0.56816  1.0000
  H   H261      1.0  0.15450  0.71310  0.73612  1.0000
  C   C321      1.0  0.17927  0.74599  0.84418  1.0000
  C   C322      1.0  0.19215  0.67740  0.77296  1.0000
  C   C323      1.0  0.18619  0.70311  0.77299  1.0000
  H   H262      1.0  0.18395  0.71222  0.62209  1.0000
  C   C324      1.0  0.19553  0.69382  0.76069  1.0000
  P   P12       1.0  0.18949  0.72350  0.75391  1.0000
  C   C325      1.0  0.15914  0.66204  0.51159  1.0000
  C   C326      1.0  0.16966  0.67904  0.80881  1.0000
  C   C327      1.0  0.21917  0.76015  0.54719  1.0000
  C   C328      1.0  0.20164  0.72520  0.55103  1.0000
  C   C329      1.0  0.15557  0.67435  0.53200  1.0000
  C   C330      1.0  0.17927  0.67004  0.79713  1.0000
  C   C331      1.0  0.20296  0.75389  0.55989  1.0000
  C   C332      1.0  0.19417  0.73644  0.56158  1.0000
  C   C333      1.0  0.18471  0.73604  0.82107  1.0000
  C   C334      1.0  0.16907  0.75654  0.79255  1.0000
  H   H263      1.0  0.16719  0.76389  0.84787  1.0000
  H   H264      1.0  0.20512  0.69906  0.74081  1.0000
  C   C335      1.0  0.15147  0.68651  0.51340  1.0000
  H   H265      1.0  0.19099  0.72838  0.83244  1.0000
  C   C336      1.0  0.17840  0.71882  0.71146  1.0000
  H   H266      1.0  0.19475  0.71166  0.55230  1.0000
  C   C337      1.0  0.17770  0.71328  0.64670  1.0000
  C   C338      1.0  0.17139  0.75618  0.82995  1.0000
  C   C339      1.0  0.20317  0.68229  0.50750  1.0000
  C   C340      1.0  0.18206  0.73602  0.78357  1.0000
  S   S48       1.0  0.15612  0.67586  0.58044  1.0000
  C   C341      1.0  0.17295  0.69544  0.79645  1.0000
  C   C342      1.0  0.23104  0.69101  0.55190  1.0000
  H   H267      1.0  0.19911  0.67017  0.76254  1.0000
  C   C343      1.0  0.22810  0.69732  0.68413  1.0000
  H   H268      1.0  0.16482  0.70183  0.80438  1.0000
  H   H269      1.0  0.16313  0.76459  0.78150  1.0000
  H   H270      1.0  0.17285  0.74726  0.74045  1.0000
  C   C344      1.0  0.15232  0.70879  0.67867  1.0000
  C   C345      1.0  0.21787  0.73141  0.53848  1.0000
  C   C346      1.0  0.16116  0.71371  0.71115  1.0000
  H   H271      1.0  0.17613  0.65703  0.80533  1.0000
  H   H272      1.0  0.13899  0.70457  0.67860  1.0000
  H   H273      1.0  0.21922  0.72321  0.79107  1.0000
  H   H274      1.0  0.18122  0.74584  0.87314  1.0000
  H   H275      1.0  0.19974  0.72141  0.67897  1.0000
  C   C347      1.0  0.21115  0.73588  0.74872  1.0000
  H   H276      1.0  0.20744  0.75190  0.70714  1.0000
  C   C348      1.0  0.22672  0.74893  0.53629  1.0000
  H   H277      1.0  0.22340  0.72253  0.52994  1.0000
  H   H278      1.0  0.22850  0.73120  0.63511  1.0000
  H   H279      1.0  0.21397  0.68290  0.59621  1.0000
  C   C349      1.0  0.21536  0.68464  0.56717  1.0000
  C   C350      1.0  0.44376  0.06412  0.19401  1.0000
  H   H280      1.0  0.44599  0.09837  0.11435  1.0000
  C   C351      1.0  0.43772  0.17262  0.12065  1.0000
  S   S49       1.0  0.45449  0.04045  0.03135  1.0000
  H   H281      1.0  0.43980  0.08382  0.22532  1.0000
  C   C352      1.0  0.47370  0.98944  0.00999  1.0000
  C   C353      1.0  0.46414  0.08383  0.23393  1.0000
  Fe  Fe25      1.0  0.45869  0.06833  0.02731  1.0000
  C   C354      1.0  0.45545  0.17095  0.25937  1.0000
  C   C355      1.0  0.42976  0.99254  0.22851  1.0000
  H   H282      1.0  0.41558  0.07143  0.48740  1.0000
  C   C356      1.0  0.47797  0.02222  0.08868  1.0000
  H   H283      1.0  0.43988  0.19782  0.25401  1.0000
  H   H284      1.0  0.41224  0.15764  0.10891  1.0000
  C   C357      1.0  0.42208  0.05326  0.07985  1.0000
  C   C358      1.0  0.44618  0.15134  0.32203  1.0000
  H   H285      1.0  0.42406  0.01103  0.11331  1.0000
  C   C359      1.0  0.42333  0.02289  0.10501  1.0000
  C   C360      1.0  0.47061  0.09855  0.11795  1.0000
  H   H286      1.0  0.42835  0.09854  0.45485  1.0000
  C   C361      1.0  0.44836  0.07774  0.21857  1.0000
  H   H287      1.0  0.40489  0.15110  0.17332  1.0000
  C   C362      1.0  0.47080  0.06265  0.20032  1.0000
  H   H288      1.0  0.44995  0.14698  0.23133  1.0000
  H   H289      1.0  0.45324  0.12111  0.48031  1.0000
  H   H290      1.0  0.46118  0.19243  0.29619  1.0000
  C   C363      1.0  0.42947  0.16506  0.19323  1.0000
  H   H291      1.0  0.40451  0.01079  0.06491  1.0000
  S   S50       1.0  0.47353  0.12940  0.22484  1.0000
  C   C364      1.0  0.44142  0.02029  0.18201  1.0000
  C   C365      1.0  0.43360  0.09656  0.48021  1.0000
  C   C366      1.0  0.42157  0.16252  0.12987  1.0000
  C   C367      1.0  0.47312  0.11792  0.18335  1.0000
  C   C368      1.0  0.41172  0.03786  0.06467  1.0000
  C   C369      1.0  0.44555  0.14349  0.28833  1.0000
  C   C370      1.0  0.46548  0.02263  0.11174  1.0000
  C   C371      1.0  0.47535  0.07628  0.22485  1.0000
  H   H292      1.0  0.42201  0.06507  0.06931  1.0000
  H   H293      1.0  0.45491  0.99404  0.23060  1.0000
  H   H294      1.0  0.42324  0.99235  0.03906  1.0000
  C   C372      1.0  0.45233  0.01338  0.19672  1.0000
  H   H295      1.0  0.41626  0.01920  0.18201  1.0000
  H   H296      1.0  0.44290  0.14378  0.34626  1.0000
  C   C373      1.0  0.41228  0.02269  0.07741  1.0000
  H   H297      1.0  0.44817  0.11523  0.17084  1.0000
  C   C374      1.0  0.45646  0.17879  0.29343  1.0000
  H   H298      1.0  0.47454  0.30818  0.17043  1.0000
  H   H299      1.0  0.42597  0.16223  0.22121  1.0000
  C   C375      1.0  0.43303  0.05349  0.10771  1.0000
  C   C376      1.0  0.45862  0.11229  0.16210  1.0000
  H   H300      1.0  0.45264  0.17510  0.35082  1.0000
  C   C377      1.0  0.45020  0.15325  0.25715  1.0000
  H   H301      1.0  0.44192  0.12987  0.28636  1.0000
  C   C378      1.0  0.47613  0.21849  0.21083  1.0000
  C   C379      1.0  0.45042  0.20813  0.24371  1.0000
  C   C380      1.0  0.47995  0.16820  0.18012  1.0000
  C   C381      1.0  0.45169  0.16899  0.32458  1.0000
  P   P13       1.0  0.44906  0.03866  0.15366  1.0000
  C   C382      1.0  0.45733  0.10266  0.12991  1.0000
  C   C383      1.0  0.41893  0.99969  0.21481  1.0000
  C   C384      1.0  0.46598  0.03807  0.12657  1.0000
  H   H302      1.0  0.45523  0.01097  0.11714  1.0000
  C   C385      1.0  0.45509  0.05670  0.18411  1.0000
  C   C386      1.0  0.42476  0.01364  0.19196  1.0000
  C   C387      1.0  0.43365  0.03832  0.12072  1.0000
  H   H303      1.0  0.44090  0.17559  0.09254  1.0000
  H   H304      1.0  0.43142  0.05946  0.18275  1.0000
  C   C388      1.0  0.41744  0.15881  0.16615  1.0000
  H   H305      1.0  0.44136  0.06554  0.11822  1.0000
  C   C389      1.0  0.44579  0.17491  0.18409  1.0000
  H   H306      1.0  0.40356  0.03763  0.04232  1.0000
  P   P14       1.0  0.46143  0.18324  0.21868  1.0000
  C   C390      1.0  0.44977  0.17890  0.14767  1.0000
  H   H307      1.0  0.46834  0.15886  0.17086  1.0000
  H   H308      1.0  0.46016  0.30659  0.11145  1.0000
  H   H309      1.0  0.46535  0.01876  0.19053  1.0000
  S   S51       1.0  0.46928  0.08582  0.07786  1.0000
  C   C391      1.0  0.46300  0.20487  0.22533  1.0000
  C   C392      1.0  0.47599  0.31966  0.15613  1.0000
  H   H310      1.0  0.46778  0.09461  0.25241  1.0000
  H   H311      1.0  0.47819  0.22573  0.31306  1.0000
  H   H312      1.0  0.46221  0.18682  0.14019  1.0000
  H   H313      1.0  0.47733  0.01034  0.07674  1.0000
  C   C393      1.0  0.45146  0.22478  0.24940  1.0000
  H   H314      1.0  0.44199  0.22730  0.26448  1.0000
  C   C394      1.0  0.46491  0.23826  0.23618  1.0000
  C   C395      1.0  0.47891  0.05311  0.11720  1.0000
  H   H315      1.0  0.47499  0.15608  0.44051  1.0000
  H   H316      1.0  0.40601  0.99445  0.22197  1.0000
  C   C396      1.0  0.44647  0.99945  0.21963  1.0000
  H   H317      1.0  0.46598  0.25120  0.24147  1.0000
  C   C397      1.0  0.47718  0.23512  0.21676  1.0000
  C   C398      1.0  0.46784  0.31881  0.12254  1.0000
  H   H318      1.0  0.45591  0.00138  0.00565  1.0000
  C   C399      1.0  0.45814  0.98973  0.00218  1.0000
  C   C400      1.0  0.48038  0.18138  0.20382  1.0000
  H   H319      1.0  0.47958  0.05683  0.19396  1.0000
  H   H320      1.0  0.47912  0.06525  0.12676  1.0000
  C   C401      1.0  0.40470  0.98893  0.99813  1.0000
  C   C402      1.0  0.46152  0.11940  0.82511  1.0000
  H   H321      1.0  0.45171  0.27164  0.54224  1.0000
  H   H322      1.0  0.42764  0.06675  0.54462  1.0000
  C   C403      1.0  0.43465  0.03150  0.61546  1.0000
  H   H323      1.0  0.45154  0.10738  0.87592  1.0000
  Fe  Fe26      1.0  0.45690  0.06669  0.94186  1.0000
  H   H324      1.0  0.44333  0.30934  0.64657  1.0000
  S   S52       1.0  0.45264  0.03880  0.94176  1.0000
  S   S53       1.0  0.47422  0.13572  0.76092  1.0000
  S   S54       1.0  0.47847  0.15208  0.57273  1.0000
  S   S55       1.0  0.46516  0.08074  0.88708  1.0000
  C   C404      1.0  0.43334  0.07871  0.53112  1.0000
  H   H325      1.0  0.45518  0.12815  0.82665  1.0000
  C   C405      1.0  0.45943  0.10759  0.85326  1.0000
  C   C406      1.0  0.44156  0.30687  0.93667  1.0000
  H   H326      1.0  0.47885  0.09499  0.52292  1.0000
  C   C407      1.0  0.44327  0.30373  0.89998  1.0000
  H   H327      1.0  0.47258  0.25037  0.98279  1.0000
  C   C408      1.0  0.46196  0.26754  0.53862  1.0000
  C   C409      1.0  0.45927  0.25138  0.52471  1.0000
  H   H328      1.0  0.45592  0.02962  0.58931  1.0000
  C   C410      1.0  0.45178  0.10522  0.68896  1.0000
  C   C411      1.0  0.45441  0.10677  0.52717  1.0000
  H   H329      1.0  0.45855  0.29917  0.85918  1.0000
  C   C412      1.0  0.47253  0.24615  0.51992  1.0000
  C   C413      1.0  0.44746  0.09145  0.54566  1.0000
  H   H330      1.0  0.46525  0.11674  0.53791  1.0000
  H   H331      1.0  0.44689  0.24291  0.51762  1.0000
  P   P15       1.0  0.45694  0.08813  0.58705  1.0000
  H   H332      1.0  0.43099  0.30955  0.94578  1.0000
  C   C414      1.0  0.47173  0.12005  0.79520  1.0000
  C   C415      1.0  0.44888  0.12539  0.64654  1.0000
  H   H333      1.0  0.41480  0.03721  0.63929  1.0000
  C   C416      1.0  0.48077  0.27366  0.78321  1.0000
  C   C417      1.0  0.42646  0.04222  0.62520  1.0000
  C   C418      1.0  0.45090  0.11559  0.61769  1.0000
  S   S56       1.0  0.43776  0.06326  0.98617  1.0000
  C   C419      1.0  0.46739  0.09601  0.85199  1.0000
  H   H334      1.0  0.44734  0.13722  0.64122  1.0000
  H   H335      1.0  0.45073  0.12011  0.59058  1.0000
  H   H336      1.0  0.47138  0.31956  0.62088  1.0000
  H   H337      1.0  0.43408  0.30415  0.88068  1.0000
  H   H338      1.0  0.45609  0.08401  0.66617  1.0000
  H   H339      1.0  0.45246  0.10149  0.71673  1.0000
  H   H340      1.0  0.42669  0.06754  0.62413  1.0000
  C   C420      1.0  0.43327  0.05941  0.61674  1.0000
  C   C421      1.0  0.47970  0.10849  0.79386  1.0000
  H   H341      1.0  0.42936  0.01818  0.62204  1.0000
  C   C422      1.0  0.44845  0.06604  0.59884  1.0000
  C   C423      1.0  0.45388  0.09541  0.66017  1.0000
  C   C424      1.0  0.45349  0.10052  0.62418  1.0000
  H   H342      1.0  0.46970  0.16221  0.50420  1.0000
  H   H343      1.0  0.46674  0.26839  0.93719  1.0000
  C   C425      1.0  0.45726  0.30102  0.88785  1.0000
  C   C426      1.0  0.44929  0.12021  0.68213  1.0000
  H   H344      1.0  0.44800  0.12797  0.70452  1.0000
  Fe  Fe27      1.0  0.47193  0.04513  0.98499  1.0000
  C   C427      1.0  0.46766  0.30423  0.94950  1.0000
  C   C428      1.0  0.47756  0.09661  0.82198  1.0000
  H   H345      1.0  0.47935  0.26809  0.75624  1.0000
  C   C429      1.0  0.45648  0.05514  0.58858  1.0000
  C   C430      1.0  0.46954  0.30122  0.91258  1.0000
  H   H346      1.0  0.46801  0.05988  0.57405  1.0000
  C   C431      1.0  0.44962  0.03795  0.59707  1.0000
  C   C432      1.0  0.45373  0.30707  0.96145  1.0000
  S   S57       1.0  0.41125  0.01086  0.98496  1.0000
  H   H347      1.0  0.45253  0.30982  0.98985  1.0000
  C   C433      1.0  0.47790  0.27842  0.54803  1.0000
  C   C434      1.0  0.46838  0.00166  0.91284  1.0000
  Fe  Fe28      1.0  0.43502  0.03533  0.98809  1.0000
  H   H348      1.0  0.47027  0.23358  0.50917  1.0000
  C   C435      1.0  0.47805  0.15576  0.49868  1.0000
  C   C436      1.0  0.47900  0.09441  0.58174  1.0000
  C   C437      1.0  0.47781  0.26337  0.81369  1.0000
  H   H349      1.0  0.47996  0.29090  0.55908  1.0000
  H   H350      1.0  0.47401  0.24979  0.81024  1.0000
  H   H351      1.0  0.47710  0.30475  0.96904  1.0000
  H   H352      1.0  0.47740  0.26239  0.87165  1.0000
  H   H353      1.0  0.46500  0.00888  0.93354  1.0000
  S   S58       1.0  0.47740  0.07289  0.98280  1.0000
  C   C438      1.0  0.47975  0.27059  0.84849  1.0000
  C   C439      1.0  0.47940  0.27096  0.94512  1.0000
  C   C440      1.0  0.42644  0.08130  0.49855  1.0000
  C   C441      1.0  0.44758  0.10929  0.49454  1.0000
  H   H354      1.0  0.45004  0.49574  0.05006  1.0000
  H   H355      1.0  0.24241  0.51267  0.06019  1.0000
  H   H356      1.0  0.40527  0.41537  0.17672  1.0000
  Fe  Fe29      1.0  0.46132  0.35149  0.01729  1.0000
  H   H357      1.0  0.43681  0.45977  0.13636  1.0000
  H   H358      1.0  0.45614  0.61441  0.08551  1.0000
  C   C442      1.0  0.42438  0.41927  0.09509  1.0000
  Fe  Fe30      1.0  0.43730  0.63454  0.36969  1.0000
  H   H359      1.0  0.46273  0.63434  0.45078  1.0000
  S   S59       1.0  0.42903  0.63038  0.42882  1.0000
  Fe  Fe31      1.0  0.45076  0.62862  0.29395  1.0000
  S   S60       1.0  0.44021  0.64567  0.26607  1.0000
  C   C443      1.0  0.42680  0.47508  0.04396  1.0000
  Fe  Fe32      1.0  0.41769  0.63270  0.29976  1.0000
  S   S61       1.0  0.39181  0.62265  0.27660  1.0000
  S   S62       1.0  0.42759  0.61479  0.32545  1.0000
  Fe  Fe33      1.0  0.31325  0.50247  0.25939  1.0000
  S   S63       1.0  0.31320  0.52887  0.26805  1.0000
  S   S64       1.0  0.31486  0.49568  0.19890  1.0000
  Fe  Fe34      1.0  0.30740  0.49506  0.34173  1.0000
  S   S65       1.0  0.30699  0.52056  0.35419  1.0000
  S   S66       1.0  0.30336  0.47617  0.38759  1.0000
  Fe  Fe35      1.0  0.29132  0.51673  0.30420  1.0000
  S   S67       1.0  0.27005  0.52614  0.30524  1.0000
  Fe  Fe36      1.0  0.32872  0.53010  0.31721  1.0000
  S   S68       1.0  0.35084  0.55079  0.34192  1.0000
  S   S69       1.0  0.29024  0.49034  0.29323  1.0000
  S   S70       1.0  0.33021  0.50459  0.30711  1.0000
  H   H360      1.0  0.35049  0.43056  0.05979  1.0000
  S   S71       1.0  0.35364  0.46511  0.08697  1.0000
  C   C444      1.0  0.38058  0.58441  0.45148  1.0000
  H   H361      1.0  0.44977  0.63712  0.14335  1.0000
  C   C445      1.0  0.24894  0.51305  0.30858  1.0000
  C   C446      1.0  0.35680  0.59180  0.46442  1.0000
  C   C447      1.0  0.24344  0.49538  0.30619  1.0000
  H   H362      1.0  0.24146  0.53436  0.31491  1.0000
  H   H363      1.0  0.25225  0.48934  0.30245  1.0000
  C   C448      1.0  0.32653  0.48785  0.16851  1.0000
  C   C449      1.0  0.32451  0.48899  0.13083  1.0000
  C   C450      1.0  0.33292  0.48251  0.10556  1.0000
  C   C451      1.0  0.34334  0.47446  0.11752  1.0000
  C   C452      1.0  0.34547  0.47341  0.15520  1.0000
  C   C453      1.0  0.33727  0.48015  0.18047  1.0000
  H   H364      1.0  0.31626  0.49486  0.12105  1.0000
  H   H365      1.0  0.33105  0.48343  0.07684  1.0000
  H   H366      1.0  0.35344  0.46720  0.16495  1.0000
  H   H367      1.0  0.33897  0.47905  0.20920  1.0000
  H   H368      1.0  0.47997  0.63710  0.04674  1.0000
  C   C454      1.0  0.37962  0.60297  0.29506  1.0000
  C   C455      1.0  0.38372  0.59824  0.32869  1.0000
  C   C456      1.0  0.37472  0.58217  0.34235  1.0000
  C   C457      1.0  0.36145  0.57071  0.32281  1.0000
  C   C458      1.0  0.35706  0.57547  0.28938  1.0000
  C   C459      1.0  0.36610  0.59165  0.27560  1.0000
  H   H369      1.0  0.39386  0.60695  0.34428  1.0000
  H   H370      1.0  0.37813  0.57852  0.36812  1.0000
  H   H371      1.0  0.34682  0.56665  0.27412  1.0000
  H   H372      1.0  0.36289  0.59523  0.24950  1.0000
  C   C460      1.0  0.44363  0.60532  0.08800  1.0000
  C   C461      1.0  0.26722  0.55412  0.49014  1.0000
  C   C462      1.0  0.30548  0.47834  0.43560  1.0000
  C   C463      1.0  0.41446  0.42208  0.12229  1.0000
  H   H373      1.0  0.37416  0.44343  0.10052  1.0000
  H   H374      1.0  0.31287  0.50538  0.43999  1.0000
  H   H375      1.0  0.29935  0.45157  0.44087  1.0000
  C   C464      1.0  0.40120  0.45901  0.16724  1.0000
  H   H376      1.0  0.39878  0.60195  0.41665  1.0000
  H   H377      1.0  0.34100  0.58265  0.38016  1.0000
  C   C465      1.0  0.43907  0.63784  0.15689  1.0000
  H   H378      1.0  0.37464  0.50118  0.07815  1.0000
  C   C466      1.0  0.44042  0.59141  0.11058  1.0000
  S   S72       1.0  0.47066  0.58361  0.02610  1.0000
  P   P16       1.0  0.41996  0.56160  0.14357  1.0000
  C   C467      1.0  0.39357  0.46338  0.19683  1.0000
  H   H379      1.0  0.47871  0.55043  0.17714  1.0000
  C   C468      1.0  0.45584  0.55090  0.19781  1.0000
  H   H380      1.0  0.29154  0.58288  0.43044  1.0000
  C   C469      1.0  0.46730  0.55206  0.17068  1.0000
  C   C470      1.0  0.41130  0.63954  0.19140  1.0000
  P   P17       1.0  0.29026  0.54838  0.44553  1.0000
  C   C471      1.0  0.37378  0.43288  0.08334  1.0000
  C   C472      1.0  0.38040  0.45103  0.21400  1.0000
  C   C473      1.0  0.47927  0.60123  0.16577  1.0000
  H   H381      1.0  0.34952  0.40726  0.01763  1.0000
  C   C474      1.0  0.41315  0.62397  0.18733  1.0000
  C   C475      1.0  0.42708  0.62314  0.17028  1.0000
  H   H382      1.0  0.44715  0.56021  0.09885  1.0000
  C   C476      1.0  0.47709  0.49125  0.99835  1.0000
  S   S73       1.0  0.46184  0.61199  0.26213  1.0000
  H   H383      1.0  0.40410  0.45362  0.04523  1.0000
  C   C477      1.0  0.40062  0.57892  0.24658  1.0000
  H   H384      1.0  0.40383  0.61258  0.19787  1.0000
  H   H385      1.0  0.42861  0.61112  0.16747  1.0000
  C   C478      1.0  0.23347  0.51128  0.11481  1.0000
  H   H386      1.0  0.24797  0.49283  0.48143  1.0000
  H   H387      1.0  0.43627  0.58521  0.20206  1.0000
  C   C479      1.0  0.30189  0.55840  0.40603  1.0000
  C   C480      1.0  0.39579  0.44214  0.15478  1.0000
  H   H388      1.0  0.29250  0.51525  0.43244  1.0000
  H   H389      1.0  0.46599  0.46679  0.05389  1.0000
  H   H390      1.0  0.32485  0.57116  0.43495  1.0000
  H   H391      1.0  0.33814  0.53541  0.48764  1.0000
  C   C481      1.0  0.31869  0.56869  0.40899  1.0000
  C   C482      1.0  0.43174  0.40740  0.09981  1.0000
  C   C483      1.0  0.41145  0.58177  0.09482  1.0000
  C   C484      1.0  0.28023  0.51425  0.42552  1.0000
  C   C485      1.0  0.35484  0.51534  0.45754  1.0000
  H   H392      1.0  0.27117  0.48215  0.21368  1.0000
  C   C486      1.0  0.42961  0.39851  0.13217  1.0000
  H   H393      1.0  0.23661  0.51046  0.39435  1.0000
  C   C487      1.0  0.41743  0.58527  0.23892  1.0000
  C   C488      1.0  0.38464  0.51418  0.12827  1.0000
  H   H394      1.0  0.42055  0.56476  0.48679  1.0000
  H   H395      1.0  0.45050  0.59020  0.12573  1.0000
  C   C489      1.0  0.38660  0.42667  0.08402  1.0000
  Fe  Fe37      1.0  0.48011  0.56265  0.03102  1.0000
  H   H396      1.0  0.37696  0.50383  0.14487  1.0000
  C   C490      1.0  0.47512  0.45277  0.08999  1.0000
  H   H397      1.0  0.39577  0.40869  0.05891  1.0000
  C   C491      1.0  0.44129  0.55340  0.18953  1.0000
  H   H398      1.0  0.27380  0.48902  0.40373  1.0000
  C   C492      1.0  0.37483  0.43426  0.20158  1.0000
  H   H399      1.0  0.42597  0.42586  0.06964  1.0000
  H   H400      1.0  0.46291  0.44444  0.09809  1.0000
  C   C493      1.0  0.39581  0.52897  0.14439  1.0000
  C   C494      1.0  0.32786  0.57546  0.37805  1.0000
  C   C495      1.0  0.46926  0.61369  0.21659  1.0000
  H   H401      1.0  0.39240  0.52449  0.03972  1.0000
  H   H402      1.0  0.24808  0.56872  0.23038  1.0000
  H   H403      1.0  0.45662  0.48583  0.10903  1.0000
  H   H404      1.0  0.40019  0.63971  0.20391  1.0000
  H   H405      1.0  0.34625  0.50229  0.45684  1.0000
  C   C496      1.0  0.23590  0.51752  0.07954  1.0000
  H   H406      1.0  0.25395  0.52283  0.22564  1.0000
  H   H407      1.0  0.40630  0.50245  0.02331  1.0000
  C   C497      1.0  0.25178  0.51024  0.21547  1.0000
  C   C498      1.0  0.40449  0.54061  0.08497  1.0000
  H   H408      1.0  0.45832  0.54828  0.22538  1.0000
  H   H409      1.0  0.39016  0.55374  0.38678  1.0000
  C   C499      1.0  0.30442  0.54628  0.47955  1.0000
  H   H410      1.0  0.23197  0.53485  0.04195  1.0000
  C   C500      1.0  0.26952  0.49925  0.40940  1.0000
  H   H411      1.0  0.25869  0.42078  0.44041  1.0000
  H   H412      1.0  0.39627  0.58281  0.27122  1.0000
  C   C501      1.0  0.41212  0.56823  0.18373  1.0000
  H   H413      1.0  0.43508  0.38907  0.13556  1.0000
  C   C502      1.0  0.46940  0.33356  0.10332  1.0000
  C   C503      1.0  0.42436  0.57933  0.11358  1.0000
  C   C504      1.0  0.41547  0.46053  0.05952  1.0000
  H   H414      1.0  0.37754  0.41692  0.16181  1.0000
  C   C505      1.0  0.42317  0.58005  0.20755  1.0000
  H   H415      1.0  0.41246  0.55043  0.06767  1.0000
  H   H416      1.0  0.39760  0.47646  0.20590  1.0000
  H   H417      1.0  0.37225  0.39653  0.01754  1.0000
  C   C506      1.0  0.43739  0.65346  0.16145  1.0000
  H   H418      1.0  0.43333  0.61827  0.05125  1.0000
  H   H419      1.0  0.43258  0.55242  0.21096  1.0000
  C   C507      1.0  0.38945  0.56767  0.22238  1.0000
  C   C508      1.0  0.43823  0.55734  0.15406  1.0000
  H   H420      1.0  0.41089  0.46897  0.15360  1.0000
  H   H421      1.0  0.42607  0.59424  0.25733  1.0000
  C   C509      1.0  0.26397  0.50354  0.22127  1.0000
  C   C510      1.0  0.31705  0.54064  0.46957  1.0000
  H   H422      1.0  0.46526  0.40476  0.10508  1.0000
  H   H423      1.0  0.42397  0.47945  0.01825  1.0000
  C   C511      1.0  0.41468  0.59576  0.07233  1.0000
  C   C512      1.0  0.44157  0.48421  0.06185  1.0000
  H   H424      1.0  0.23821  0.50166  0.12209  1.0000
  C   C513      1.0  0.38593  0.41345  0.06015  1.0000
  H   H425      1.0  0.43875  0.40481  0.07790  1.0000
  C   C514      1.0  0.37249  0.40637  0.03666  1.0000
  H   H426      1.0  0.27636  0.59965  0.45607  1.0000
  C   C515      1.0  0.40642  0.57371  0.42174  1.0000
  C   C516      1.0  0.37724  0.54909  0.45893  1.0000
  C   C517      1.0  0.36487  0.54345  0.43222  1.0000
  C   C518      1.0  0.35392  0.52659  0.43111  1.0000
  H   H427      1.0  0.27528  0.51104  0.23530  1.0000
  C   C519      1.0  0.48102  0.40390  0.14944  1.0000
  C   C520      1.0  0.44947  0.55776  0.12668  1.0000
  C   C521      1.0  0.42206  0.58672  0.42419  1.0000
  C   C522      1.0  0.43329  0.58944  0.39588  1.0000
  C   C523      1.0  0.42900  0.57928  0.36469  1.0000
  C   C524      1.0  0.41342  0.56645  0.36175  1.0000
  C   C525      1.0  0.40217  0.56362  0.39013  1.0000
  H   H428      1.0  0.41850  0.39467  0.18494  1.0000
  C   C526      1.0  0.38707  0.59890  0.43011  1.0000
  C   C527      1.0  0.37837  0.60959  0.42546  1.0000
  S   S74       1.0  0.45829  0.33169  0.06151  1.0000
  C   C528      1.0  0.44546  0.53126  0.02396  1.0000
  H   H429      1.0  0.43138  0.51229  0.06157  1.0000
  C   C529      1.0  0.39327  0.52583  0.06896  1.0000
  H   H430      1.0  0.40468  0.59749  0.05769  1.0000
  C   C530      1.0  0.27386  0.58696  0.46569  1.0000
  C   C531      1.0  0.43879  0.63114  0.47147  1.0000
  S   S75       1.0  0.46357  0.53705  0.04915  1.0000
  H   H431      1.0  0.36388  0.55207  0.41183  1.0000
  H   H432      1.0  0.34470  0.52228  0.40970  1.0000
  C   C532      1.0  0.41261  0.41334  0.15502  1.0000
  C   C533      1.0  0.41721  0.51248  0.01398  1.0000
  C   C534      1.0  0.27541  0.52810  0.43044  1.0000
  H   H433      1.0  0.42550  0.59507  0.44766  1.0000
  H   H434      1.0  0.44519  0.59974  0.39782  1.0000
  H   H435      1.0  0.43762  0.58165  0.34245  1.0000
  H   H436      1.0  0.40993  0.55883  0.33721  1.0000
  C   C535      1.0  0.23476  0.48413  0.18543  1.0000
  C   C536      1.0  0.47843  0.62912  0.16034  1.0000
  H   H437      1.0  0.38349  0.62062  0.40852  1.0000
  H   H438      1.0  0.38624  0.55399  0.17210  1.0000
  C   C537      1.0  0.30957  0.49375  0.45483  1.0000
  C   C538      1.0  0.38241  0.42984  0.17198  1.0000
  C   C539      1.0  0.46406  0.55540  0.13516  1.0000
  H   H439      1.0  0.43974  0.43539  0.00867  1.0000
  C   C540      1.0  0.47929  0.34925  0.11840  1.0000
  H   H440      1.0  0.26436  0.44961  0.41715  1.0000
  Fe  Fe38      1.0  0.35836  0.46553  0.02519  1.0000
  C   C541      1.0  0.43138  0.51809  0.03567  1.0000
  P   P18       1.0  0.39188  0.57070  0.45837  1.0000
  P   P19       1.0  0.40406  0.43652  0.11391  1.0000
  H   H441      1.0  0.37429  0.45451  0.23645  1.0000
  H   H442      1.0  0.39685  0.52983  0.17362  1.0000
  C   C542      1.0  0.36324  0.60606  0.44261  1.0000
  C   C543      1.0  0.26159  0.48719  0.20927  1.0000
  C   C544      1.0  0.36031  0.42565  0.06005  1.0000
  C   C545      1.0  0.25370  0.49779  0.39878  1.0000
  C   C546      1.0  0.24864  0.51140  0.40406  1.0000
  C   C547      1.0  0.25948  0.52655  0.41948  1.0000
  C   C548      1.0  0.44518  0.47866  0.09511  1.0000
  C   C549      1.0  0.43078  0.60749  0.06878  1.0000
  H   H443      1.0  0.36026  0.56994  0.48565  1.0000
  H   H444      1.0  0.26636  0.47294  0.45978  1.0000
  C   C550      1.0  0.30227  0.46350  0.45517  1.0000
  H   H445      1.0  0.35657  0.61441  0.43905  1.0000
  H   H446      1.0  0.37637  0.56299  0.22823  1.0000
  C   C551      1.0  0.42018  0.40160  0.15988  1.0000
  C   C552      1.0  0.32025  0.57233  0.34402  1.0000
  C   C553      1.0  0.30345  0.56259  0.34094  1.0000
  C   C554      1.0  0.29428  0.55570  0.37179  1.0000
  C   C555      1.0  0.23684  0.54284  0.21178  1.0000
  C   C556      1.0  0.38330  0.51266  0.09059  1.0000
  S   S76       1.0  0.38467  0.46945  0.01080  1.0000
  H   H447      1.0  0.39889  0.57287  0.09763  1.0000
  C   C557      1.0  0.35969  0.41246  0.03657  1.0000
  C   C558      1.0  0.39513  0.56246  0.19079  1.0000
  H   H448      1.0  0.28136  0.54789  0.36854  1.0000
  H   H449      1.0  0.24560  0.48638  0.38518  1.0000
  H   H450      1.0  0.24651  0.54409  0.19245  1.0000
  H   H451      1.0  0.25563  0.53724  0.42110  1.0000
  C   C559      1.0  0.40541  0.54255  0.12285  1.0000
  C   C560      1.0  0.23773  0.55685  0.23307  1.0000
  C   C561      1.0  0.23714  0.50066  0.19707  1.0000
  C   C562      1.0  0.47771  0.40680  0.11363  1.0000
  C   C563      1.0  0.27913  0.56087  0.46327  1.0000
  C   C564      1.0  0.41885  0.45498  0.09308  1.0000
  C   C565      1.0  0.43394  0.46396  0.11052  1.0000
  H   H452      1.0  0.32746  0.57718  0.31996  1.0000
  H   H453      1.0  0.29760  0.55989  0.31447  1.0000
  C   C566      1.0  0.47191  0.62808  0.19566  1.0000
  C   C567      1.0  0.47296  0.60028  0.20127  1.0000
  H   H454      1.0  0.36435  0.42476  0.21433  1.0000
  C   C568      1.0  0.26217  0.44708  0.44580  1.0000
  H   H455      1.0  0.47106  0.39952  0.16878  1.0000
  C   C569      1.0  0.25913  0.43088  0.45900  1.0000
  H   H456      1.0  0.31828  0.53712  0.44174  1.0000
  C   C570      1.0  0.36676  0.52098  0.48500  1.0000
  C   C571      1.0  0.23733  0.52071  0.31316  1.0000
  H   H457      1.0  0.46926  0.63856  0.20699  1.0000
  H   H458      1.0  0.23333  0.52896  0.47289  1.0000
  S   S77       1.0  0.47271  0.37947  0.02734  1.0000
  C   C572      1.0  0.28243  0.57738  0.45114  1.0000
  S   S78       1.0  0.46159  0.64676  0.34120  1.0000
  C   C573      1.0  0.26327  0.46025  0.46980  1.0000
  C   C574      1.0  0.45533  0.63302  0.47480  1.0000
  C   C575      1.0  0.47693  0.46539  0.06455  1.0000
  C   C576      1.0  0.24694  0.47743  0.19157  1.0000
  H   H459      1.0  0.47294  0.55638  0.11413  1.0000
  H   H460      1.0  0.47750  0.51067  0.06691  1.0000
  C   C577      1.0  0.36535  0.58092  0.46858  1.0000
  H   H461      1.0  0.48061  0.51790  0.99995  1.0000
  H   H462      1.0  0.24512  0.46473  0.18235  1.0000
  S   S79       1.0  0.42585  0.65169  0.34515  1.0000
  H   H463      1.0  0.47107  0.58911  0.21713  1.0000
  C   C578      1.0  0.37801  0.53777  0.48563  1.0000
  H   H464      1.0  0.34523  0.58918  0.47826  1.0000
  S   S80       1.0  0.44474  0.40389  0.99871  1.0000
  C   C579      1.0  0.42372  0.65453  0.17973  1.0000
  H   H465      1.0  0.48073  0.64047  0.14485  1.0000
  H   H466      1.0  0.48044  0.36073  0.10441  1.0000
  C   C580      1.0  0.26214  0.58021  0.49271  1.0000
  C   C581      1.0  0.42892  0.42682  0.99470  1.0000
  C   C582      1.0  0.30236  0.46375  0.49308  1.0000
  Fe  Fe39      1.0  0.46059  0.35641  0.93371  1.0000
  C   C583      1.0  0.44521  0.53937  0.99139  1.0000
  C   C584      1.0  0.47029  0.34263  0.84540  1.0000
  C   C585      1.0  0.26002  0.46917  0.59587  1.0000
  C   C586      1.0  0.45896  0.50329  0.96962  1.0000
  Fe  Fe40      1.0  0.42467  0.62914  0.69275  1.0000
  S   S81       1.0  0.44004  0.61374  0.67987  1.0000
  S   S82       1.0  0.39718  0.61722  0.70277  1.0000
  Fe  Fe41      1.0  0.45746  0.62987  0.72286  1.0000
  H   H467      1.0  0.33364  0.55149  0.76590  1.0000
  Fe  Fe42      1.0  0.45249  0.63428  0.63977  1.0000
  C   C587      1.0  0.26689  0.44122  0.71823  1.0000
  S   S83       1.0  0.44139  0.64436  0.73768  1.0000
  C   C588      1.0  0.44899  0.48729  0.95645  1.0000
  Fe  Fe43      1.0  0.29827  0.51413  0.66570  1.0000
  S   S84       1.0  0.29436  0.48653  0.66188  1.0000
  S   S85       1.0  0.27795  0.52476  0.66965  1.0000
  Fe  Fe44      1.0  0.33487  0.52546  0.64890  1.0000
  S   S86       1.0  0.33321  0.49860  0.64361  1.0000
  S   S87       1.0  0.35991  0.54434  0.63337  1.0000
  Fe  Fe45      1.0  0.31009  0.49393  0.61165  1.0000
  S   S88       1.0  0.30402  0.47726  0.56065  1.0000
  Fe  Fe46      1.0  0.31806  0.49382  0.69442  1.0000
  S   S89       1.0  0.32507  0.47695  0.73429  1.0000
  S   S90       1.0  0.31260  0.52098  0.61382  1.0000
  S   S91       1.0  0.32108  0.52120  0.70150  1.0000
  S   S92       1.0  0.43579  0.64854  0.64960  1.0000
  C   C589      1.0  0.23650  0.46624  0.82114  1.0000
  H   H468      1.0  0.45228  0.41098  0.92493  1.0000
  Fe  Fe47      1.0  0.34855  0.46412  0.94323  1.0000
  C   C590      1.0  0.46222  0.63284  0.50937  1.0000
  S   S93       1.0  0.32847  0.46679  0.90574  1.0000
  C   C591      1.0  0.25889  0.56383  0.50507  1.0000
  C   C592      1.0  0.46556  0.42079  0.87609  1.0000
  H   H469      1.0  0.47585  0.41751  0.75763  1.0000
  S   S94       1.0  0.37397  0.46736  0.92468  1.0000
  H   H470      1.0  0.45473  0.61648  0.89060  1.0000
  C   C593      1.0  0.44681  0.33295  0.67390  1.0000
  C   C594      1.0  0.27977  0.44496  0.62342  1.0000
  C   C595      1.0  0.40099  0.40517  0.95841  1.0000
  C   C596      1.0  0.30535  0.44021  0.61867  1.0000
  C   C597      1.0  0.47304  0.50534  0.99020  1.0000
  H   H471      1.0  0.43189  0.58184  0.93022  1.0000
  H   H472      1.0  0.26336  0.49409  0.61598  1.0000
  C   C598      1.0  0.41710  0.52017  0.98082  1.0000
  S   S95       1.0  0.44198  0.35392  0.97852  1.0000
  H   H473      1.0  0.42654  0.59342  0.87275  1.0000
  C   C599      1.0  0.25733  0.51316  0.68271  1.0000
  C   C600      1.0  0.25238  0.49673  0.69624  1.0000
  C   C601      1.0  0.24557  0.52070  0.67912  1.0000
  H   H474      1.0  0.26125  0.49070  0.69888  1.0000
  H   H475      1.0  0.24929  0.53341  0.66880  1.0000
  C   C602      1.0  0.32712  0.47574  0.78226  1.0000
  C   C603      1.0  0.33494  0.46523  0.79596  1.0000
  C   C604      1.0  0.33607  0.46298  0.83360  1.0000
  C   C605      1.0  0.32920  0.47103  0.85827  1.0000
  C   C606      1.0  0.32132  0.48151  0.84453  1.0000
  C   C607      1.0  0.32055  0.48412  0.80691  1.0000
  H   H476      1.0  0.33995  0.45854  0.77729  1.0000
  H   H477      1.0  0.34178  0.45454  0.84352  1.0000
  H   H478      1.0  0.31587  0.48777  0.86315  1.0000
  H   H479      1.0  0.31451  0.49226  0.79701  1.0000
  C   C608      1.0  0.45276  0.63106  0.54096  1.0000
  C   C609      1.0  0.32756  0.54471  0.53117  1.0000
  H   H480      1.0  0.35357  0.53747  0.75594  1.0000
  H   H481      1.0  0.42892  0.62790  0.56163  1.0000
  H   H482      1.0  0.38167  0.54998  0.78196  1.0000
  H   H483      1.0  0.34197  0.57831  0.80145  1.0000
  C   C610      1.0  0.39868  0.58585  0.52739  1.0000
  C   C611      1.0  0.46106  0.61670  0.83397  1.0000
  C   C612      1.0  0.36996  0.56430  0.65414  1.0000
  C   C613      1.0  0.38582  0.57424  0.64239  1.0000
  C   C614      1.0  0.39422  0.59043  0.65729  1.0000
  C   C615      1.0  0.38683  0.59682  0.68414  1.0000
  C   C616      1.0  0.37099  0.58683  0.69623  1.0000
  C   C617      1.0  0.36257  0.57056  0.68135  1.0000
  H   H484      1.0  0.39160  0.56942  0.62145  1.0000
  H   H485      1.0  0.40638  0.59804  0.64777  1.0000
  H   H486      1.0  0.36524  0.59169  0.71715  1.0000
  H   H487      1.0  0.35035  0.56295  0.69060  1.0000
  S   S96       1.0  0.45542  0.34421  0.87688  1.0000
  H   H488      1.0  0.43445  0.32853  0.68481  1.0000
  C   C618      1.0  0.40779  0.63823  0.83654  1.0000
  H   H489      1.0  0.27377  0.49865  0.86863  1.0000
  C   C619      1.0  0.46378  0.41944  0.91357  1.0000
  H   H490      1.0  0.47537  0.42764  0.96551  1.0000
  S   S97       1.0  0.46175  0.63019  0.58381  1.0000
  H   H491      1.0  0.31221  0.50572  0.50821  1.0000
  H   H492      1.0  0.23867  0.45023  0.86456  1.0000
  H   H493      1.0  0.26870  0.44771  0.83870  1.0000
  C   C620      1.0  0.42807  0.41035  0.98551  1.0000
  C   C621      1.0  0.25824  0.44103  0.52053  1.0000
  C   C622      1.0  0.28561  0.48660  0.90348  1.0000
  H   H494      1.0  0.43789  0.48573  0.94117  1.0000
  C   C623      1.0  0.26147  0.52324  0.79709  1.0000
  H   H495      1.0  0.40472  0.59855  0.57923  1.0000
  C   C624      1.0  0.25139  0.44225  0.72216  1.0000
  H   H496      1.0  0.40942  0.65142  0.83995  1.0000
  S   S98       1.0  0.39976  0.51289  0.95284  1.0000
  C   C625      1.0  0.27725  0.46081  0.76854  1.0000
  C   C626      1.0  0.27383  0.51506  0.54799  1.0000
  C   C627      1.0  0.26318  0.52076  0.56741  1.0000
  C   C628      1.0  0.24673  0.51604  0.55640  1.0000
  H   H497      1.0  0.29290  0.52459  0.74181  1.0000
  H   H498      1.0  0.27787  0.54245  0.76273  1.0000
  C   C629      1.0  0.25460  0.48138  0.61047  1.0000
  H   H499      1.0  0.45153  0.54748  0.77687  1.0000
  C   C630      1.0  0.42636  0.57746  0.53845  1.0000
  H   H500      1.0  0.28648  0.51841  0.55694  1.0000
  H   H501      1.0  0.26761  0.52860  0.59148  1.0000
  H   H502      1.0  0.38815  0.58943  0.52373  1.0000
  H   H503      1.0  0.45567  0.51413  0.96419  1.0000
  C   C631      1.0  0.47199  0.39387  0.78380  1.0000
  H   H504      1.0  0.27293  0.47271  0.58955  1.0000
  C   C632      1.0  0.38680  0.53009  0.70803  1.0000
  C   C633      1.0  0.37488  0.51609  0.69122  1.0000
  C   C634      1.0  0.36932  0.50040  0.70826  1.0000
  C   C635      1.0  0.37575  0.49865  0.74202  1.0000
  C   C636      1.0  0.38792  0.51260  0.75895  1.0000
  C   C637      1.0  0.39325  0.52840  0.74183  1.0000
  P   P20       1.0  0.39400  0.51100  0.80519  1.0000
  C   C638      1.0  0.37808  0.51253  0.83458  1.0000
  C   C639      1.0  0.39522  0.49052  0.81280  1.0000
  C   C640      1.0  0.38085  0.47661  0.82077  1.0000
  C   C641      1.0  0.38168  0.46100  0.82948  1.0000
  C   C642      1.0  0.39688  0.45912  0.83024  1.0000
  C   C643      1.0  0.41125  0.47282  0.82185  1.0000
  C   C644      1.0  0.41045  0.48847  0.81315  1.0000
  C   C645      1.0  0.37761  0.50775  0.87086  1.0000
  C   C646      1.0  0.36502  0.50825  0.89349  1.0000
  C   C647      1.0  0.35275  0.51346  0.88015  1.0000
  C   C648      1.0  0.35291  0.51793  0.84385  1.0000
  C   C649      1.0  0.36537  0.51722  0.82101  1.0000
  C   C650      1.0  0.41395  0.52722  0.81550  1.0000
  C   C651      1.0  0.41747  0.53486  0.85002  1.0000
  C   C652      1.0  0.43302  0.54714  0.85777  1.0000
  C   C653      1.0  0.44526  0.55174  0.83142  1.0000
  C   C654      1.0  0.44201  0.54394  0.79728  1.0000
  C   C655      1.0  0.42643  0.53176  0.78930  1.0000
  H   H505      1.0  0.39072  0.54232  0.69503  1.0000
  H   H506      1.0  0.36974  0.51749  0.66526  1.0000
  H   H507      1.0  0.35964  0.48967  0.69578  1.0000
  H   H508      1.0  0.37073  0.48654  0.75529  1.0000
  H   H509      1.0  0.40202  0.53957  0.75490  1.0000
  H   H510      1.0  0.36903  0.47794  0.82119  1.0000
  H   H511      1.0  0.37055  0.45047  0.83653  1.0000
  H   H512      1.0  0.39750  0.44709  0.83781  1.0000
  H   H513      1.0  0.42304  0.47137  0.82273  1.0000
  H   H514      1.0  0.42177  0.49894  0.80747  1.0000
  H   H515      1.0  0.38682  0.50333  0.88156  1.0000
  H   H516      1.0  0.36471  0.50439  0.92134  1.0000
  H   H517      1.0  0.34280  0.51339  0.89767  1.0000
  H   H518      1.0  0.34303  0.52132  0.83310  1.0000
  H   H519      1.0  0.36473  0.51986  0.79268  1.0000
  H   H520      1.0  0.40839  0.53130  0.87125  1.0000
  H   H521      1.0  0.43565  0.55306  0.88437  1.0000
  C   C656      1.0  0.42201  0.58707  0.56445  1.0000
  H   H522      1.0  0.40296  0.63235  0.89292  1.0000
  H   H523      1.0  0.42417  0.52579  0.76275  1.0000
  H   H524      1.0  0.23380  0.48670  0.62965  1.0000
  H   H525      1.0  0.29195  0.45000  0.73804  1.0000
  H   H526      1.0  0.31444  0.55419  0.56927  1.0000
  H   H527      1.0  0.30897  0.42891  0.56863  1.0000
  H   H528      1.0  0.23202  0.47519  0.71577  1.0000
  C   C657      1.0  0.29482  0.44596  0.63844  1.0000
  C   C658      1.0  0.47151  0.60354  0.88246  1.0000
  C   C659      1.0  0.27528  0.43851  0.58815  1.0000
  P   P21       1.0  0.25817  0.47425  0.80982  1.0000
  C   C660      1.0  0.26819  0.50505  0.51699  1.0000
  C   C661      1.0  0.27619  0.48725  0.87326  1.0000
  C   C662      1.0  0.28294  0.51957  0.76090  1.0000
  S   S99       1.0  0.47199  0.38473  0.93943  1.0000
  H   H529      1.0  0.45725  0.56136  0.83754  1.0000
  H   H530      1.0  0.33640  0.54394  0.55114  1.0000
  C   C663      1.0  0.45336  0.47336  0.96297  1.0000
  C   C664      1.0  0.47663  0.40514  0.75496  1.0000
  C   C665      1.0  0.47393  0.35520  0.66780  1.0000
  H   H531      1.0  0.31719  0.44140  0.62999  1.0000
  C   C666      1.0  0.45774  0.34947  0.68119  1.0000
  S   S100      1.0  0.38458  0.42763  0.95679  1.0000
  C   C667      1.0  0.32853  0.53989  0.49531  1.0000
  C   C668      1.0  0.46901  0.39421  0.58920  1.0000
  C   C669      1.0  0.24873  0.45236  0.74966  1.0000
  H   H532      1.0  0.47193  0.32392  0.76331  1.0000
  H   H533      1.0  0.25559  0.58768  0.50414  1.0000
  C   C670      1.0  0.24063  0.50522  0.52628  1.0000
  C   C671      1.0  0.46752  0.47537  0.98327  1.0000
  H   H534      1.0  0.37013  0.59132  0.82619  1.0000
  S   S101      1.0  0.35695  0.48485  0.98585  1.0000
  H   H535      1.0  0.27184  0.44957  0.63911  1.0000
  H   H536      1.0  0.28467  0.49517  0.76196  1.0000
  C   C672      1.0  0.46171  0.61251  0.87083  1.0000
  C   C673      1.0  0.30566  0.47883  0.51263  1.0000
  H   H537      1.0  0.26296  0.46789  0.52483  1.0000
  H   H538      1.0  0.28243  0.42687  0.54211  1.0000
  C   C674      1.0  0.31515  0.55044  0.54136  1.0000
  H   H539      1.0  0.28746  0.46796  0.78605  1.0000
  H   H540      1.0  0.29440  0.55598  0.52461  1.0000
  H   H541      1.0  0.45347  0.35775  0.69718  1.0000
  H   H542      1.0  0.28600  0.44711  0.89120  1.0000
  H   H543      1.0  0.39017  0.39662  0.94436  1.0000
  C   C675      1.0  0.40806  0.59107  0.55909  1.0000
  Fe  Fe48      1.0  0.37458  0.44907  0.96833  1.0000
  H   H544      1.0  0.27662  0.50090  0.50170  1.0000
  C   C676      1.0  0.43869  0.57844  0.76490  1.0000
  C   C677      1.0  0.43321  0.57651  0.72905  1.0000
  C   C678      1.0  0.41750  0.57615  0.72086  1.0000
  C   C679      1.0  0.40732  0.57787  0.74847  1.0000
  C   C680      1.0  0.41250  0.57925  0.78486  1.0000
  C   C681      1.0  0.42840  0.57973  0.79274  1.0000
  P   P22       1.0  0.39932  0.58180  0.82042  1.0000
  C   C682      1.0  0.40313  0.57298  0.86235  1.0000
  C   C683      1.0  0.40353  0.60406  0.82723  1.0000
  C   C684      1.0  0.40184  0.61041  0.86165  1.0000
  C   C685      1.0  0.40416  0.62749  0.86630  1.0000
  H   H545      1.0  0.29959  0.45202  0.50733  1.0000
  C   C686      1.0  0.40915  0.63190  0.80217  1.0000
  C   C687      1.0  0.40723  0.61494  0.79757  1.0000
  C   C688      1.0  0.39161  0.55789  0.87598  1.0000
  C   C689      1.0  0.39453  0.55163  0.90912  1.0000
  C   C690      1.0  0.40900  0.56023  0.92864  1.0000
  C   C691      1.0  0.42055  0.57523  0.91527  1.0000
  C   C692      1.0  0.41757  0.58164  0.88243  1.0000
  C   C693      1.0  0.37806  0.57156  0.80594  1.0000
  C   C694      1.0  0.37306  0.55617  0.78664  1.0000
  C   C695      1.0  0.35714  0.54902  0.77207  1.0000
  C   C696      1.0  0.34592  0.55695  0.77755  1.0000
  C   C697      1.0  0.35063  0.57207  0.79753  1.0000
  C   C698      1.0  0.36665  0.57939  0.81162  1.0000
  H   H546      1.0  0.45116  0.57949  0.77103  1.0000
  H   H547      1.0  0.44139  0.57594  0.70750  1.0000
  H   H548      1.0  0.41344  0.57516  0.69292  1.0000
  H   H549      1.0  0.39553  0.57842  0.74116  1.0000
  H   H550      1.0  0.43315  0.58145  0.82008  1.0000
  H   H551      1.0  0.39852  0.60218  0.88483  1.0000
  C   C699      1.0  0.47300  0.37793  0.78044  1.0000
  H   H552      1.0  0.29680  0.47174  0.93272  1.0000
  C   C700      1.0  0.47077  0.38420  0.61751  1.0000
  H   H553      1.0  0.40836  0.61031  0.77072  1.0000
  H   H554      1.0  0.38035  0.55095  0.86132  1.0000
  H   H555      1.0  0.38572  0.53995  0.91967  1.0000
  H   H556      1.0  0.42959  0.59165  0.58850  1.0000
  H   H557      1.0  0.40662  0.63935  0.56916  1.0000
  H   H558      1.0  0.45361  0.62375  0.82574  1.0000
  C   C701      1.0  0.43102  0.53376  0.96972  1.0000
  H   H559      1.0  0.25340  0.41116  0.62287  1.0000
  H   H560      1.0  0.43094  0.53972  0.94408  1.0000
  H   H561      1.0  0.38722  0.54182  0.50693  1.0000
  C   C702      1.0  0.25718  0.42784  0.49619  1.0000
  C   C703      1.0  0.42935  0.62932  0.50306  1.0000
  H   H562      1.0  0.41128  0.55516  0.95403  1.0000
  C   C704      1.0  0.24882  0.45260  0.58919  1.0000
  C   C705      1.0  0.28568  0.43220  0.56902  1.0000
  H   H563      1.0  0.47494  0.63401  0.51164  1.0000
  H   H564      1.0  0.24992  0.55864  0.52626  1.0000
  C   C706      1.0  0.41690  0.57205  0.50685  1.0000
  C   C707      1.0  0.27985  0.45061  0.74121  1.0000
  H   H565      1.0  0.29857  0.45156  0.66509  1.0000
  C   C708      1.0  0.30072  0.43320  0.58410  1.0000
  C   C709      1.0  0.46495  0.33248  0.81397  1.0000
  C   C710      1.0  0.25173  0.50025  0.50595  1.0000
  H   H566      1.0  0.46758  0.39742  0.80879  1.0000
  H   H567      1.0  0.43726  0.57449  0.54254  1.0000
  H   H568      1.0  0.26458  0.54142  0.49986  1.0000
  C   C711      1.0  0.43633  0.62945  0.53759  1.0000
  C   C712      1.0  0.47628  0.33171  0.78733  1.0000
  H   H569      1.0  0.45537  0.41343  0.85868  1.0000
  C   C713      1.0  0.47848  0.37314  0.74816  1.0000
  C   C714      1.0  0.47681  0.42886  0.93639  1.0000
  C   C715      1.0  0.26161  0.46159  0.77337  1.0000
  P   P23       1.0  0.25579  0.43706  0.56867  1.0000
  C   C716      1.0  0.48033  0.43173  0.86126  1.0000
  C   C717      1.0  0.28295  0.45817  0.88646  1.0000
  H   H570      1.0  0.24675  0.50187  0.82806  1.0000
  C   C718      1.0  0.26140  0.45729  0.50695  1.0000
  H   H571      1.0  0.48003  0.41758  0.56045  1.0000
  Fe  Fe49      1.0  0.38214  0.48713  0.96860  1.0000
  C   C719      1.0  0.27336  0.45869  0.85645  1.0000
  C   C720      1.0  0.27811  0.50282  0.77225  1.0000
  H   H572      1.0  0.23888  0.52097  0.57150  1.0000
  C   C721      1.0  0.26478  0.49608  0.79593  1.0000
  C   C722      1.0  0.40320  0.57655  0.50067  1.0000
  C   C723      1.0  0.30367  0.55129  0.51575  1.0000
  C   C724      1.0  0.28906  0.47209  0.90996  1.0000
  C   C725      1.0  0.23581  0.48800  0.70607  1.0000
  S   S102      1.0  0.47133  0.64925  0.68139  1.0000
  C   C726      1.0  0.23110  0.39009  0.61083  1.0000
  S   S103      1.0  0.47091  0.61771  0.76120  1.0000
  H   H573      1.0  0.23274  0.38260  0.63298  1.0000
  C   C727      1.0  0.46765  0.32789  0.63804  1.0000
  H   H574      1.0  0.24139  0.43514  0.70406  1.0000
  H   H575      1.0  0.44571  0.46096  0.95244  1.0000
  C   C728      1.0  0.27012  0.47335  0.84928  1.0000
  C   C729      1.0  0.41401  0.39964  0.96692  1.0000
  H   H576      1.0  0.41301  0.38696  0.95953  1.0000
  S   S104      1.0  0.34798  0.44405  0.98412  1.0000
  H   H577      1.0  0.41156  0.64007  0.77885  1.0000
  H   H578      1.0  0.41650  0.62767  0.50079  1.0000
  S   S105      1.0  0.47207  0.59900  0.92976  1.0000
  H   H579      1.0  0.25488  0.53108  0.80624  1.0000
  C   C730      1.0  0.24282  0.40630  0.60493  1.0000
  H   H580      1.0  0.45801  0.38974  0.57235  1.0000
  C   C731      1.0  0.25677  0.50657  0.80902  1.0000
  H   H581      1.0  0.29049  0.49741  0.92165  1.0000
  C   C732      1.0  0.47033  0.61207  0.80803  1.0000
  C   C733      1.0  0.40169  0.42152  0.96815  1.0000
  C   C734      1.0  0.27447  0.52969  0.77280  1.0000
  C   C735      1.0  0.24082  0.41605  0.57618  1.0000
  H   H582      1.0  0.46101  0.37207  0.62207  1.0000
  Fe  Fe50      1.0  0.45457  0.38238  0.98617  1.0000
  C   C736      1.0  0.23214  0.44842  0.59784  1.0000
  H   H583      1.0  0.46940  0.36918  0.80282  1.0000
  C   C737      1.0  0.41591  0.43235  0.98609  1.0000
  S   S106      1.0  0.47818  0.35133  0.97160  1.0000
  H   H584      1.0  0.26889  0.43314  0.69745  1.0000
  C   C738      1.0  0.47991  0.60286  0.81958  1.0000
  H   H585      1.0  0.39257  0.64878  0.61813  1.0000
  H   H586      1.0  0.47913  0.36069  0.74598  1.0000
  H   H587      1.0  0.45607  0.54964  0.98235  1.0000
  H   H588      1.0  0.47086  0.46447  0.98755  1.0000
  C   C739      1.0  0.45178  0.32215  0.65236  1.0000
  H   H589      1.0  0.25512  0.41527  0.50596  1.0000
  C   C740      1.0  0.41085  0.65264  0.57670  1.0000
  C   C741      1.0  0.23797  0.47719  0.61842  1.0000
  H   H590      1.0  0.45194  0.32524  0.81009  1.0000
  H   H591      1.0  0.36732  0.51229  0.50574  1.0000
  C   C742      1.0  0.30948  0.49398  0.49338  1.0000
  C   C743      1.0  0.47874  0.34431  0.64579  1.0000
  H   H592      1.0  0.46834  0.62945  0.98473  1.0000
  H   H593      1.0  0.23660  0.45284  0.75235  1.0000
  C   C744      1.0  0.48043  0.59854  0.85633  1.0000
  H   H594      1.0  0.41695  0.44506  0.99295  1.0000
  S   S107      1.0  0.46378  0.69118  0.31560  1.0000
  Fe  Fe51      1.0  0.32026  0.77761  0.30256  1.0000
  S   S108      1.0  0.32891  0.80270  0.33125  1.0000
  S   S109      1.0  0.33841  0.76587  0.28487  1.0000
  Fe  Fe52      1.0  0.28410  0.77380  0.30513  1.0000
  S   S110      1.0  0.29082  0.79922  0.33303  1.0000
  S   S111      1.0  0.25648  0.75953  0.29654  1.0000
  Fe  Fe53      1.0  0.31174  0.80853  0.29229  1.0000
  S   S112      1.0  0.32198  0.83388  0.26153  1.0000
  Fe  Fe54      1.0  0.30739  0.79089  0.36872  1.0000
  S   S113      1.0  0.30566  0.78484  0.42962  1.0000
  S   S114      1.0  0.30380  0.78363  0.26254  1.0000
  S   S115      1.0  0.29985  0.76525  0.34158  1.0000
  Fe  Fe55      1.0  0.44121  0.77037  0.28649  1.0000
  S   S116      1.0  0.46821  0.78617  0.28380  1.0000
  S   S117      1.0  0.42812  0.74197  0.27988  1.0000
  Fe  Fe56      1.0  0.43251  0.80111  0.30266  1.0000
  S   S118      1.0  0.45887  0.81922  0.30157  1.0000
  S   S119      1.0  0.41296  0.81096  0.31920  1.0000
  Fe  Fe57      1.0  0.46085  0.80484  0.25105  1.0000
  H   H595      1.0  0.34277  0.75489  0.48496  1.0000
  Fe  Fe58      1.0  0.46353  0.79907  0.33429  1.0000
  C   C745      1.0  0.46951  0.71802  0.22167  1.0000
  S   S120      1.0  0.43397  0.78779  0.25096  1.0000
  S   S121      1.0  0.43708  0.78217  0.33818  1.0000
  S   S122      1.0  0.37159  0.88447  0.05929  1.0000
  H   H596      1.0  0.39058  0.65838  0.29884  1.0000
  Fe  Fe59      1.0  0.34477  0.86883  0.04908  1.0000
  S   S123      1.0  0.32759  0.84997  0.09038  1.0000
  C   C746      1.0  0.37305  0.79569  0.46632  1.0000
  C   C747      1.0  0.36665  0.87309  0.26937  1.0000
  Fe  Fe60      1.0  0.44941  0.66289  0.31471  1.0000
  H   H597      1.0  0.44033  0.69578  0.12492  1.0000
  C   C748      1.0  0.24428  0.71859  0.40964  1.0000
  C   C749      1.0  0.31829  0.81119  0.48071  1.0000
  C   C750      1.0  0.39514  0.69463  0.35243  1.0000
  H   H598      1.0  0.42363  0.82699  0.39065  1.0000
  C   C751      1.0  0.32425  0.83788  0.21369  1.0000
  C   C752      1.0  0.33251  0.85458  0.20159  1.0000
  C   C753      1.0  0.33431  0.85842  0.16421  1.0000
  C   C754      1.0  0.32744  0.84568  0.13803  1.0000
  C   C755      1.0  0.31916  0.82899  0.15017  1.0000
  C   C756      1.0  0.31771  0.82507  0.18749  1.0000
  H   H599      1.0  0.33733  0.86470  0.22123  1.0000
  H   H600      1.0  0.34049  0.87137  0.15570  1.0000
  H   H601      1.0  0.31381  0.81896  0.13056  1.0000
  H   H602      1.0  0.31126  0.81218  0.19599  1.0000
  C   C757      1.0  0.39245  0.79790  0.30980  1.0000
  C   C758      1.0  0.38841  0.78540  0.28268  1.0000
  C   C759      1.0  0.37178  0.77545  0.27538  1.0000
  C   C760      1.0  0.35921  0.77794  0.29527  1.0000
  C   C761      1.0  0.36339  0.79005  0.32314  1.0000
  C   C762      1.0  0.37992  0.80012  0.33014  1.0000
  H   H603      1.0  0.39804  0.78357  0.26698  1.0000
  H   H604      1.0  0.36865  0.76601  0.25394  1.0000
  H   H605      1.0  0.35394  0.79164  0.33952  1.0000
  H   H606      1.0  0.38299  0.80961  0.35148  1.0000
  H   H607      1.0  0.26548  0.72970  0.30451  1.0000
  H   H608      1.0  0.45005  0.83094  0.42157  1.0000
  H   H609      1.0  0.40844  0.89096  0.27881  1.0000
  C   C763      1.0  0.46238  0.79644  0.45123  1.0000
  C   C764      1.0  0.35313  0.81127  0.08103  1.0000
  H   H610      1.0  0.45109  0.79262  0.43565  1.0000
  C   C765      1.0  0.47599  0.83133  0.16317  1.0000
  C   C766      1.0  0.30998  0.79385  0.47414  1.0000
  C   C767      1.0  0.46961  0.73881  0.40873  1.0000
  H   H611      1.0  0.32219  0.81975  0.45817  1.0000
  H   H612      1.0  0.43570  0.70228  0.40471  1.0000
  C   C768      1.0  0.45360  0.70522  0.30702  1.0000
  C   C769      1.0  0.43692  0.69918  0.29753  1.0000
  C   C770      1.0  0.42928  0.71062  0.28919  1.0000
  C   C771      1.0  0.43818  0.72814  0.29100  1.0000
  C   C772      1.0  0.45480  0.73421  0.30109  1.0000
  C   C773      1.0  0.46252  0.72277  0.30879  1.0000
  H   H613      1.0  0.43005  0.68571  0.29590  1.0000
  H   H614      1.0  0.41649  0.70589  0.28094  1.0000
  H   H615      1.0  0.46177  0.74770  0.30231  1.0000
  H   H616      1.0  0.38144  0.76647  0.35139  1.0000
  H   H617      1.0  0.40660  0.87634  0.21352  1.0000
  C   C774      1.0  0.46960  0.68375  0.45946  1.0000
  C   C775      1.0  0.29677  0.80107  0.07053  1.0000
  H   H618      1.0  0.40183  0.79070  0.38380  1.0000
  C   C776      1.0  0.37311  0.83935  0.24167  1.0000
  C   C777      1.0  0.47758  0.80218  0.43297  1.0000
  H   H619      1.0  0.36477  0.81675  0.47071  1.0000
  C   C778      1.0  0.27579  0.82000  0.26195  1.0000
  C   C779      1.0  0.36296  0.80473  0.45776  1.0000
  C   C780      1.0  0.40639  0.68522  0.07086  1.0000
  Fe  Fe61      1.0  0.37592  0.87102  0.01047  1.0000
  C   C781      1.0  0.44033  0.67541  0.44853  1.0000
  Fe  Fe62      1.0  0.36917  0.90366  0.01932  1.0000
  C   C782      1.0  0.36905  0.83981  0.33201  1.0000
  H   H620      1.0  0.37319  0.91506  0.27382  1.0000
  C   C783      1.0  0.24572  0.73126  0.20260  1.0000
  H   H621      1.0  0.45690  0.73464  0.20818  1.0000
  H   H622      1.0  0.25190  0.79071  0.48943  1.0000
  C   C784      1.0  0.46227  0.75013  0.39754  1.0000
  H   H623      1.0  0.40278  0.68754  0.04397  1.0000
  C   C785      1.0  0.43825  0.86265  0.22318  1.0000
  H   H624      1.0  0.47551  0.72755  0.31528  1.0000
  H   H625      1.0  0.35724  0.76325  0.40537  1.0000
  C   C786      1.0  0.40753  0.85839  0.25359  1.0000
  H   H626      1.0  0.26918  0.77544  0.39498  1.0000
  C   C787      1.0  0.39470  0.67435  0.09407  1.0000
  C   C788      1.0  0.26406  0.80363  0.26528  1.0000
  C   C789      1.0  0.26001  0.72794  0.39661  1.0000
  C   C790      1.0  0.39226  0.90470  0.27625  1.0000
  C   C791      1.0  0.48094  0.82937  0.12759  1.0000
  C   C792      1.0  0.40655  0.67525  0.21778  1.0000
  C   C793      1.0  0.36771  0.68131  0.37668  1.0000
  H   H627      1.0  0.41163  0.65832  0.25507  1.0000
  C   C794      1.0  0.37595  0.90365  0.27331  1.0000
  C   C795      1.0  0.23447  0.73468  0.18014  1.0000
  C   C796      1.0  0.44054  0.69159  0.19910  1.0000
  C   C797      1.0  0.44175  0.70851  0.19746  1.0000
  H   H628      1.0  0.41290  0.96197  0.05643  1.0000
  C   C798      1.0  0.42395  0.81627  0.49245  1.0000
  C   C799      1.0  0.24138  0.70361  0.42886  1.0000
  H   H629      1.0  0.39972  0.69386  0.18933  1.0000
  C   C800      1.0  0.25865  0.79323  0.23466  1.0000
  C   C801      1.0  0.26086  0.74405  0.21091  1.0000
  H   H630      1.0  0.28508  0.72971  0.39197  1.0000
  C   C802      1.0  0.43873  0.82258  0.47327  1.0000
  H   H631      1.0  0.44683  0.66473  0.15094  1.0000
  C   C803      1.0  0.38288  0.68050  0.36716  1.0000
  H   H632      1.0  0.45714  0.67106  0.41081  1.0000
  H   H633      1.0  0.40693  0.85274  0.39655  1.0000
  H   H634      1.0  0.43145  0.71156  0.18808  1.0000
  H   H635      1.0  0.37420  0.67647  0.28879  1.0000
  H   H636      1.0  0.42170  0.78632  0.42645  1.0000
  H   H637      1.0  0.37892  0.83709  0.42028  1.0000
  C   C804      1.0  0.42918  0.82135  0.18096  1.0000
  C   C805      1.0  0.41693  0.81661  0.20728  1.0000
  C   C806      1.0  0.40250  0.81964  0.20201  1.0000
  C   C807      1.0  0.40033  0.82760  0.17060  1.0000
  C   C808      1.0  0.41247  0.83230  0.14360  1.0000
  C   C809      1.0  0.42698  0.82910  0.14921  1.0000
  P   P24       1.0  0.40854  0.84134  0.10188  1.0000
  C   C810      1.0  0.41164  0.86341  0.10920  1.0000
  C   C811      1.0  0.42139  0.83906  0.06530  1.0000
  C   C812      1.0  0.43864  0.84701  0.06764  1.0000
  C   C813      1.0  0.41431  0.82980  0.03376  1.0000
  C   C814      1.0  0.42210  0.87612  0.08683  1.0000
  C   C815      1.0  0.42331  0.89289  0.09102  1.0000
  C   C816      1.0  0.41376  0.89708  0.11681  1.0000
  C   C817      1.0  0.40321  0.88453  0.13894  1.0000
  C   C818      1.0  0.40226  0.86781  0.13538  1.0000
  C   C819      1.0  0.38700  0.82961  0.09144  1.0000
  C   C820      1.0  0.38050  0.81190  0.09460  1.0000
  C   C821      1.0  0.36361  0.80278  0.08953  1.0000
  C   C822      1.0  0.24296  0.76147  0.39317  1.0000
  H   H638      1.0  0.24255  0.71881  0.21428  1.0000
  C   C823      1.0  0.37640  0.83796  0.08221  1.0000
  H   H639      1.0  0.44039  0.81892  0.18508  1.0000
  H   H640      1.0  0.41868  0.81085  0.23211  1.0000
  H   H641      1.0  0.39306  0.81584  0.22251  1.0000
  H   H642      1.0  0.38895  0.82964  0.16702  1.0000
  H   H643      1.0  0.43662  0.83219  0.12934  1.0000
  H   H644      1.0  0.44448  0.85486  0.09087  1.0000
  C   C824      1.0  0.41572  0.67940  0.14067  1.0000
  H   H645      1.0  0.42889  0.87318  0.06507  1.0000
  H   H646      1.0  0.43120  0.90252  0.07320  1.0000
  H   H647      1.0  0.41423  0.90997  0.11891  1.0000
  H   H648      1.0  0.39543  0.88771  0.15816  1.0000
  H   H649      1.0  0.39371  0.85818  0.15199  1.0000
  H   H650      1.0  0.38847  0.80520  0.10155  1.0000
  H   H651      1.0  0.35866  0.78916  0.09242  1.0000
  C   C825      1.0  0.39252  0.66613  0.27491  1.0000
  C   C826      1.0  0.42280  0.69294  0.08221  1.0000
  H   H652      1.0  0.38104  0.85154  0.07872  1.0000
  C   C827      1.0  0.27300  0.72248  0.40265  1.0000
  H   H653      1.0  0.38202  0.66818  0.08513  1.0000
  H   H654      1.0  0.34003  0.80431  0.07730  1.0000
  H   H655      1.0  0.31555  0.73416  0.41120  1.0000
  C   C828      1.0  0.37097  0.78073  0.44698  1.0000
  H   H656      1.0  0.43192  0.70121  0.06409  1.0000
  C   C829      1.0  0.28732  0.81081  0.07796  1.0000
  C   C830      1.0  0.45620  0.72165  0.20863  1.0000
  C   C831      1.0  0.39762  0.68582  0.21278  1.0000
  S   S124      1.0  0.38579  0.93193  0.03204  1.0000
  C   C832      1.0  0.24245  0.70803  0.30193  1.0000
  C   C833      1.0  0.25444  0.69801  0.43419  1.0000
  C   C834      1.0  0.35955  0.82882  0.07718  1.0000
  H   H657      1.0  0.29121  0.83868  0.22542  1.0000
  H   H658      1.0  0.28033  0.82793  0.28577  1.0000
  H   H659      1.0  0.45091  0.74755  0.48722  1.0000
  H   H660      1.0  0.46966  0.92043  0.08317  1.0000
  H   H661      1.0  0.35828  0.83660  0.31460  1.0000
  C   C835      1.0  0.38058  0.84018  0.39186  1.0000
  C   C836      1.0  0.38302  0.87407  0.27139  1.0000
  H   H662      1.0  0.42967  0.66924  0.43131  1.0000
  C   C837      1.0  0.25334  0.76395  0.17512  1.0000
  H   H663      1.0  0.34394  0.80583  0.17490  1.0000
  H   H664      1.0  0.35144  0.79683  0.23391  1.0000
  H   H665      1.0  0.38504  0.66884  0.37049  1.0000
  H   H666      1.0  0.23437  0.72284  0.40354  1.0000
  C   C838      1.0  0.43604  0.72690  0.39056  1.0000
  P   P25       1.0  0.38732  0.85495  0.27153  1.0000
  H   H667      1.0  0.45001  0.86410  0.21119  1.0000
  C   C839      1.0  0.39635  0.84901  0.37850  1.0000
  C   C840      1.0  0.24551  0.75783  0.46819  1.0000
  C   C841      1.0  0.47886  0.86017  0.14729  1.0000
  C   C842      1.0  0.25222  0.72549  0.30228  1.0000
  H   H668      1.0  0.45296  0.67515  0.21683  1.0000
  C   C843      1.0  0.25956  0.76674  0.44782  1.0000
  H   H669      1.0  0.42523  0.98173  0.24621  1.0000
  H   H670      1.0  0.25228  0.68610  0.44752  1.0000
  C   C844      1.0  0.44558  0.74412  0.38809  1.0000
  C   C845      1.0  0.33075  0.73777  0.36395  1.0000
  C   C846      1.0  0.32642  0.73288  0.39963  1.0000
  C   C847      1.0  0.33637  0.72683  0.42053  1.0000
  C   C848      1.0  0.35063  0.72563  0.40568  1.0000
  C   C849      1.0  0.35485  0.73012  0.36952  1.0000
  C   C850      1.0  0.34498  0.73658  0.34907  1.0000
  P   P26       1.0  0.37424  0.73037  0.35207  1.0000
  C   C851      1.0  0.37739  0.71076  0.35838  1.0000
  C   C852      1.0  0.37562  0.73345  0.30375  1.0000
  C   C853      1.0  0.36266  0.72343  0.28110  1.0000
  C   C854      1.0  0.36393  0.72519  0.24350  1.0000
  C   C855      1.0  0.37832  0.73663  0.22824  1.0000
  C   C856      1.0  0.39141  0.74632  0.25058  1.0000
  C   C857      1.0  0.39008  0.74480  0.28819  1.0000
  C   C858      1.0  0.36492  0.69635  0.37214  1.0000
  S   S125      1.0  0.47189  0.81416  0.19450  1.0000
  C   C859      1.0  0.38491  0.84825  0.31810  1.0000
  C   C860      1.0  0.28194  0.82604  0.22789  1.0000
  C   C861      1.0  0.39235  0.70963  0.34756  1.0000
  C   C862      1.0  0.38965  0.74788  0.37544  1.0000
  C   C863      1.0  0.40070  0.74535  0.40030  1.0000
  C   C864      1.0  0.41219  0.75918  0.41879  1.0000
  C   C865      1.0  0.41258  0.77552  0.41289  1.0000
  C   C866      1.0  0.40141  0.77803  0.38875  1.0000
  C   C867      1.0  0.38997  0.76429  0.37016  1.0000
  H   H671      1.0  0.24197  0.76285  0.36422  1.0000
  C   C868      1.0  0.23825  0.75094  0.16636  1.0000
  H   H672      1.0  0.33317  0.72334  0.44839  1.0000
  H   H673      1.0  0.35854  0.72148  0.42251  1.0000
  H   H674      1.0  0.34841  0.74116  0.32190  1.0000
  H   H675      1.0  0.35154  0.71433  0.29252  1.0000
  H   H676      1.0  0.35376  0.71770  0.22618  1.0000
  H   H677      1.0  0.37939  0.73798  0.19913  1.0000
  H   H678      1.0  0.40273  0.75494  0.23883  1.0000
  H   H679      1.0  0.40051  0.75230  0.30482  1.0000
  H   H680      1.0  0.35296  0.69654  0.37885  1.0000
  H   H681      1.0  0.28185  0.82064  0.17134  1.0000
  H   H682      1.0  0.30613  0.80506  0.04975  1.0000
  C   C869      1.0  0.39849  0.85332  0.34192  1.0000
  H   H683      1.0  0.40186  0.72037  0.33524  1.0000
  H   H684      1.0  0.40051  0.73281  0.40547  1.0000
  H   H685      1.0  0.42099  0.75730  0.43729  1.0000
  C   C870      1.0  0.35856  0.77456  0.42072  1.0000
  H   H686      1.0  0.39751  0.81602  0.42399  1.0000
  C   C871      1.0  0.39936  0.67133  0.12877  1.0000
  C   C872      1.0  0.23450  0.78347  0.10759  1.0000
  C   C873      1.0  0.34796  0.78309  0.41395  1.0000
  C   C874      1.0  0.27662  0.81566  0.19718  1.0000
  H   H687      1.0  0.40107  0.82422  0.03035  1.0000
  C   C875      1.0  0.36693  0.82212  0.25054  1.0000
  C   C876      1.0  0.40888  0.81788  0.43830  1.0000
  C   C877      1.0  0.38330  0.67625  0.26919  1.0000
  H   H688      1.0  0.35047  0.88696  0.26846  1.0000
  S   S126      1.0  0.34160  0.88871  0.01154  1.0000
  H   H689      1.0  0.27618  0.77025  0.20520  1.0000
  H   H690      1.0  0.46936  0.94377  0.04540  1.0000
  H   H691      1.0  0.28017  0.70299  0.42512  1.0000
  C   C878      1.0  0.35224  0.81512  0.19331  1.0000
  C   C879      1.0  0.35640  0.81008  0.22659  1.0000
  C   C880      1.0  0.35856  0.83220  0.18401  1.0000
  C   C881      1.0  0.41642  0.89191  0.00069  1.0000
  S   S127      1.0  0.39481  0.85924  0.00641  1.0000
  C   C882      1.0  0.45585  0.67634  0.43699  1.0000
  C   C883      1.0  0.39579  0.88995  0.27567  1.0000
  H   H692      1.0  0.41073  0.86074  0.33246  1.0000
  C   C884      1.0  0.29444  0.78651  0.09054  1.0000
  C   C885      1.0  0.36884  0.84430  0.20820  1.0000
  P   P27       1.0  0.42166  0.67483  0.18489  1.0000
  C   C886      1.0  0.26465  0.76033  0.19736  1.0000
  H   H693      1.0  0.35522  0.83611  0.15831  1.0000
  H   H694      1.0  0.37035  0.81793  0.27572  1.0000
  H   H695      1.0  0.37904  0.77392  0.45184  1.0000
  C   C887      1.0  0.36315  0.88784  0.27016  1.0000
  C   C888      1.0  0.45974  0.72165  0.41285  1.0000
  H   H696      1.0  0.42329  0.72225  0.38216  1.0000
  C   C889      1.0  0.46829  0.70122  0.22408  1.0000
  H   H697      1.0  0.26204  0.73922  0.38088  1.0000
  C   C890      1.0  0.28269  0.78172  0.11811  1.0000
  H   H698      1.0  0.26831  0.81374  0.11067  1.0000
  H   H699      1.0  0.28117  0.77046  0.13328  1.0000
  H   H700      1.0  0.35146  0.83541  0.07035  1.0000
  H   H701      1.0  0.26880  0.74274  0.47721  1.0000
  C   C891      1.0  0.27546  0.80597  0.10522  1.0000
  C   C892      1.0  0.27312  0.79145  0.12574  1.0000
  C   C893      1.0  0.40887  0.81370  0.47503  1.0000
  H   H702      1.0  0.44018  0.75279  0.37782  1.0000
  C   C894      1.0  0.42750  0.68993  0.11687  1.0000
  C   C895      1.0  0.24479  0.73742  0.29879  1.0000
  H   H703      1.0  0.37337  0.85751  0.20078  1.0000
  H   H704      1.0  0.26938  0.74154  0.22916  1.0000
  H   H705      1.0  0.43432  0.91744  0.99847  1.0000
  C   C896      1.0  0.25827  0.76854  0.41049  1.0000
  H   H706      1.0  0.40215  0.91695  0.27924  1.0000
  C   C897      1.0  0.40430  0.66587  0.24964  1.0000
  C   C898      1.0  0.44306  0.71567  0.40323  1.0000
  C   C899      1.0  0.35027  0.79825  0.43222  1.0000
  C   C900      1.0  0.43860  0.82637  0.43658  1.0000
  P   P28       1.0  0.25774  0.78547  0.16101  1.0000
  C   C901      1.0  0.42370  0.82413  0.41920  1.0000
  H   H707      1.0  0.40676  0.69386  0.34425  1.0000
  H   H708      1.0  0.40738  0.89550  0.01491  1.0000
  C   C902      1.0  0.23922  0.78755  0.14393  1.0000
  H   H709      1.0  0.37929  0.69458  0.23453  1.0000
  C   C903      1.0  0.42433  0.82810  0.00567  1.0000
  C   C904      1.0  0.47477  0.84683  0.17262  1.0000
  H   H710      1.0  0.34216  0.80496  0.42649  1.0000
  H   H711      1.0  0.30185  0.77903  0.08492  1.0000
  C   C905      1.0  0.39272  0.95381  0.01818  1.0000
  C   C906      1.0  0.41369  0.86946  0.22462  1.0000
  C   C907      1.0  0.44147  0.83572  0.00872  1.0000
  H   H712      1.0  0.33810  0.77814  0.39411  1.0000
  H   H713      1.0  0.35465  0.82916  0.37914  1.0000
  C   C908      1.0  0.44859  0.84512  0.03975  1.0000
  H   H714      1.0  0.41188  0.83990  0.28746  1.0000
  H   H715      1.0  0.25931  0.79882  0.29168  1.0000
  C   C909      1.0  0.40662  0.96599  0.03533  1.0000
  C   C910      1.0  0.38604  0.68630  0.23841  1.0000
  C   C911      1.0  0.41257  0.98332  0.02543  1.0000
  C   C912      1.0  0.36693  0.83568  0.36869  1.0000
  C   C913      1.0  0.26508  0.79906  0.20037  1.0000
  H   H716      1.0  0.43918  0.84433  0.26212  1.0000
  H   H717      1.0  0.47821  0.87215  0.15537  1.0000
  C   C914      1.0  0.45381  0.68803  0.21324  1.0000
  C   C915      1.0  0.27021  0.70748  0.42139  1.0000
  H   H718      1.0  0.32332  0.74289  0.34785  1.0000
  C   C916      1.0  0.42897  0.87155  0.20943  1.0000
  H   H719      1.0  0.46187  0.85116  0.04211  1.0000
  H   H720      1.0  0.28950  0.82238  0.06312  1.0000
  H   H721      1.0  0.35655  0.86090  0.26743  1.0000
  H   H722      1.0  0.24833  0.69891  0.30394  1.0000
  H   H723      1.0  0.35807  0.67021  0.38727  1.0000
  H   H724      1.0  0.43357  0.87995  0.18673  1.0000
  H   H725      1.0  0.27151  0.77255  0.46087  1.0000
  C   C917      1.0  0.41674  0.84917  0.26654  1.0000
  C   C918      1.0  0.43218  0.85155  0.25192  1.0000
  H   H726      1.0  0.46500  0.71281  0.42265  1.0000
  H   H727      1.0  0.39023  0.66268  0.14632  1.0000
  S   S128      1.0  0.34965  0.85434  0.00160  1.0000
  S   S129      1.0  0.47987  0.80372  0.38490  1.0000
  H   H728      1.0  0.24957  0.78056  0.23797  1.0000
  H   H729      1.0  0.24194  0.77916  0.08958  1.0000
  C   C919      1.0  0.43852  0.68184  0.48259  1.0000
  H   H730      1.0  0.23239  0.79583  0.19502  1.0000
  H   H731      1.0  0.42638  0.68089  0.49118  1.0000
  H   H732      1.0  0.48054  0.72817  0.23123  1.0000
  H   H733      1.0  0.46940  0.76358  0.39552  1.0000
  H   H734      1.0  0.47832  0.69836  0.23586  1.0000
  C   C920      1.0  0.47674  0.97447  0.00522  1.0000
  C   C921      1.0  0.46193  0.79580  0.48981  1.0000
  H   H735      1.0  0.47108  0.84868  0.19973  1.0000
  H   H736      1.0  0.45032  0.82437  0.48674  1.0000
  H   H737      1.0  0.40800  0.78130  0.48822  1.0000
  H   H738      1.0  0.44996  0.71836  0.48999  1.0000
  S   S130      1.0  0.46547  0.69145  0.69705  1.0000
  Fe  Fe63      1.0  0.28662  0.77010  0.67829  1.0000
  S   S131      1.0  0.29200  0.79822  0.68089  1.0000
  S   S132      1.0  0.26077  0.75277  0.65955  1.0000
  Fe  Fe64      1.0  0.32306  0.77634  0.68988  1.0000
  S   S133      1.0  0.33086  0.80452  0.69163  1.0000
  S   S134      1.0  0.34226  0.76502  0.69875  1.0000
  Fe  Fe65      1.0  0.30913  0.79975  0.72843  1.0000
  S   S135      1.0  0.31115  0.80998  0.78746  1.0000
  Fe  Fe66      1.0  0.31334  0.80034  0.64400  1.0000
  S   S136      1.0  0.32041  0.81537  0.59138  1.0000
  S   S137      1.0  0.30192  0.77126  0.72807  1.0000
  S   S138      1.0  0.30733  0.77249  0.64008  1.0000
  Fe  Fe67      1.0  0.46182  0.79747  0.60847  1.0000
  S   S139      1.0  0.43568  0.77930  0.61070  1.0000
  C   C922      1.0  0.34095  0.75578  0.51377  1.0000
  Fe  Fe68      1.0  0.46161  0.80973  0.68894  1.0000
  S   S140      1.0  0.43534  0.79201  0.69568  1.0000
  H   H739      1.0  0.29220  0.72526  0.72042  1.0000
  Fe  Fe69      1.0  0.44235  0.77242  0.66553  1.0000
  S   S141      1.0  0.43023  0.74442  0.67920  1.0000
  Fe  Fe70      1.0  0.43100  0.80015  0.64038  1.0000
  S   S142      1.0  0.40983  0.80769  0.62471  1.0000
  S   S143      1.0  0.46910  0.78945  0.66219  1.0000
  S   S144      1.0  0.45675  0.81901  0.63457  1.0000
  C   C923      1.0  0.39566  0.77719  0.78661  1.0000
  Fe  Fe71      1.0  0.34849  0.87473  0.96502  1.0000
  H   H740      1.0  0.29854  0.76957  0.49938  1.0000
  S   S145      1.0  0.34040  0.87103  0.90456  1.0000
  C   C924      1.0  0.41648  0.81985  0.85655  1.0000
  C   C925      1.0  0.45049  0.74165  0.51328  1.0000
  C   C926      1.0  0.36443  0.79141  0.78511  1.0000
  S   S146      1.0  0.37552  0.89068  0.97147  1.0000
  C   C927      1.0  0.38126  0.76285  0.79183  1.0000
  C   C928      1.0  0.46591  0.69423  0.57927  1.0000
  C   C929      1.0  0.25359  0.72198  0.69452  1.0000
  H   H741      1.0  0.39699  0.72641  0.64540  1.0000
  H   H742      1.0  0.29398  0.66321  0.53337  1.0000
  P   P29       1.0  0.44969  0.69601  0.55103  1.0000
  H   H743      1.0  0.45025  0.79145  0.50373  1.0000
  C   C930      1.0  0.40322  0.93359  0.93733  1.0000
  C   C931      1.0  0.38011  0.74705  0.77814  1.0000
  C   C932      1.0  0.39067  0.97679  0.98135  1.0000
  C   C933      1.0  0.38766  0.89079  0.87230  1.0000
  H   H744      1.0  0.37088  0.76379  0.80633  1.0000
  H   H745      1.0  0.28688  0.73447  0.65979  1.0000
  C   C934      1.0  0.42537  0.82128  0.77059  1.0000
  H   H746      1.0  0.44673  0.74804  0.75919  1.0000
  H   H747      1.0  0.44014  0.81552  0.92609  1.0000
  C   C935      1.0  0.31629  0.80669  0.54649  1.0000
  C   C936      1.0  0.46798  0.82601  0.80369  1.0000
  H   H748      1.0  0.36887  0.73610  0.78167  1.0000
  H   H749      1.0  0.46461  0.88121  0.85966  1.0000
  H   H750      1.0  0.30388  0.78079  0.56227  1.0000
  C   C937      1.0  0.32001  0.82716  0.81937  1.0000
  C   C938      1.0  0.32892  0.84385  0.80885  1.0000
  C   C939      1.0  0.33500  0.85699  0.83519  1.0000
  C   C940      1.0  0.33263  0.85371  0.87257  1.0000
  C   C941      1.0  0.32413  0.83694  0.88309  1.0000
  C   C942      1.0  0.31780  0.82386  0.85674  1.0000
  H   H751      1.0  0.33081  0.84671  0.78038  1.0000
  H   H752      1.0  0.34159  0.86984  0.82653  1.0000
  H   H753      1.0  0.32203  0.83411  0.91153  1.0000
  H   H754      1.0  0.31093  0.81108  0.86543  1.0000
  C   C943      1.0  0.39128  0.79608  0.64643  1.0000
  C   C944      1.0  0.39042  0.78361  0.67157  1.0000
  C   C945      1.0  0.37543  0.77446  0.68842  1.0000
  C   C946      1.0  0.36116  0.77741  0.67941  1.0000
  C   C947      1.0  0.36203  0.78989  0.65432  1.0000
  C   C948      1.0  0.37711  0.79934  0.63824  1.0000
  H   H755      1.0  0.40126  0.78096  0.67801  1.0000
  H   H756      1.0  0.37483  0.76498  0.70817  1.0000
  H   H757      1.0  0.35106  0.79210  0.64676  1.0000
  H   H758      1.0  0.37777  0.80900  0.61895  1.0000
  H   H759      1.0  0.25767  0.76383  0.73969  1.0000
  C   C949      1.0  0.45535  0.70566  0.68834  1.0000
  C   C950      1.0  0.43818  0.70043  0.68849  1.0000
  C   C951      1.0  0.43068  0.71244  0.68503  1.0000
  C   C952      1.0  0.44023  0.72972  0.68072  1.0000
  C   C953      1.0  0.45738  0.73486  0.67898  1.0000
  C   C954      1.0  0.46489  0.72290  0.68318  1.0000
  H   H760      1.0  0.43071  0.68722  0.69249  1.0000
  H   H761      1.0  0.41740  0.70832  0.68635  1.0000
  H   H762      1.0  0.46487  0.74811  0.67561  1.0000
  H   H763      1.0  0.36406  0.83886  0.81912  1.0000
  C   C955      1.0  0.26809  0.80857  0.52693  1.0000
  P   P30       1.0  0.39735  0.79786  0.80307  1.0000
  C   C956      1.0  0.43139  0.81195  0.90376  1.0000
  H   H764      1.0  0.26440  0.72318  0.60425  1.0000
  C   C957      1.0  0.38139  0.78084  0.55581  1.0000
  C   C958      1.0  0.37366  0.80562  0.84282  1.0000
  C   C959      1.0  0.47824  0.93113  0.88106  1.0000
  H   H765      1.0  0.43245  0.81918  0.79278  1.0000
  H   H766      1.0  0.36731  0.83254  0.70487  1.0000
  C   C960      1.0  0.44996  0.71746  0.54874  1.0000
  H   H767      1.0  0.28328  0.79881  0.60452  1.0000
  C   C961      1.0  0.26760  0.73849  0.50490  1.0000
  H   H768      1.0  0.24871  0.74078  0.78457  1.0000
  C   C962      1.0  0.45088  0.75085  0.54507  1.0000
  H   H769      1.0  0.40174  0.82738  0.68644  1.0000
  C   C963      1.0  0.45074  0.74342  0.57865  1.0000
  H   H770      1.0  0.29257  0.69027  0.51265  1.0000
  P   P31       1.0  0.24710  0.75684  0.51691  1.0000
  C   C964      1.0  0.23281  0.72391  0.65353  1.0000
  H   H771      1.0  0.45162  0.76385  0.54375  1.0000
  H   H772      1.0  0.36412  0.85615  0.87202  1.0000
  C   C965      1.0  0.41874  0.95495  0.89489  1.0000
  C   C966      1.0  0.33717  0.77165  0.56543  1.0000
  H   H773      1.0  0.46815  0.91668  0.79479  1.0000
  H   H774      1.0  0.28455  0.82356  0.56868  1.0000
  H   H775      1.0  0.41210  0.83402  0.53861  1.0000
  C   C967      1.0  0.33709  0.74332  0.57358  1.0000
  C   C968      1.0  0.33645  0.75836  0.58819  1.0000
  C   C969      1.0  0.40866  0.67499  0.61464  1.0000
  C   C970      1.0  0.40812  0.81301  0.76882  1.0000
  H   H776      1.0  0.31537  0.71558  0.72944  1.0000
  H   H777      1.0  0.32780  0.83098  0.52137  1.0000
  C   C971      1.0  0.41351  0.79056  0.86256  1.0000
  C   C972      1.0  0.45179  0.87895  0.85365  1.0000
  C   C973      1.0  0.30497  0.78300  0.50398  1.0000
  C   C974      1.0  0.25877  0.79220  0.51448  1.0000
  H   H778      1.0  0.34169  0.73135  0.52502  1.0000
  C   C975      1.0  0.37402  0.83402  0.93780  1.0000
  H   H779      1.0  0.33606  0.78301  0.57674  1.0000
  H   H780      1.0  0.41088  0.75869  0.52529  1.0000
  C   C976      1.0  0.32191  0.70575  0.57871  1.0000
  C   C977      1.0  0.24469  0.75620  0.74267  1.0000
  H   H781      1.0  0.33500  0.75972  0.61705  1.0000
  C   C978      1.0  0.40968  0.80300  0.84415  1.0000
  C   C979      1.0  0.26714  0.78056  0.56710  1.0000
  C   C980      1.0  0.42409  0.94418  0.80435  1.0000
  H   H782      1.0  0.26530  0.72775  0.70828  1.0000
  C   C981      1.0  0.32230  0.69033  0.59087  1.0000
  H   H783      1.0  0.24779  0.69767  0.71977  1.0000
  C   C982      1.0  0.24835  0.73151  0.67034  1.0000
  C   C983      1.0  0.42432  0.79505  0.89229  1.0000
  H   H784      1.0  0.33895  0.78021  0.51031  1.0000
  H   H785      1.0  0.40951  0.84838  0.89012  1.0000
  H   H786      1.0  0.40842  0.77745  0.85374  1.0000
  H   H787      1.0  0.38955  0.88535  0.89750  1.0000
  H   H788      1.0  0.45114  0.75056  0.60339  1.0000
  C   C984      1.0  0.34867  0.79143  0.79127  1.0000
  C   C985      1.0  0.39683  0.84602  0.89663  1.0000
  H   H789      1.0  0.44986  0.77826  0.76082  1.0000
  C   C986      1.0  0.30805  0.78934  0.53982  1.0000
  H   H790      1.0  0.38300  0.81107  0.86336  1.0000
  C   C987      1.0  0.42533  0.83429  0.71267  1.0000
  C   C988      1.0  0.37711  0.79852  0.81080  1.0000
  C   C989      1.0  0.39968  0.81540  0.73825  1.0000
  H   H791      1.0  0.36656  0.78556  0.76044  1.0000
  C   C990      1.0  0.40909  0.77530  0.76904  1.0000
  C   C991      1.0  0.42641  0.86314  0.82156  1.0000
  H   H792      1.0  0.47142  0.74044  0.75507  1.0000
  C   C992      1.0  0.43385  0.83205  0.74291  1.0000
  H   H793      1.0  0.44712  0.83830  0.74433  1.0000
  C   C993      1.0  0.36470  0.84108  0.91766  1.0000
  C   C994      1.0  0.25860  0.77801  0.53394  1.0000
  C   C995      1.0  0.38148  0.90376  0.87355  1.0000
  H   H794      1.0  0.42047  0.78606  0.76584  1.0000
  C   C996      1.0  0.39956  0.83212  0.54570  1.0000
  C   C997      1.0  0.44344  0.89961  0.97379  1.0000
  C   C998      1.0  0.38744  0.85297  0.87591  1.0000
  H   H795      1.0  0.33007  0.69006  0.61360  1.0000
  C   C999      1.0  0.42741  0.82435  0.88600  1.0000
  H   H796      1.0  0.43200  0.84207  0.69052  1.0000
  C   C1000     1.0  0.44386  0.88823  0.87183  1.0000
  H   H797      1.0  0.44861  0.87908  0.94937  1.0000
  C   C1001     1.0  0.39064  0.78615  0.52419  1.0000
  C   C1002     1.0  0.39051  0.88440  0.83884  1.0000
  H   H798      1.0  0.35246  0.83971  0.92644  1.0000
  H   H799      1.0  0.43111  0.65973  0.54000  1.0000
  C   C1003     1.0  0.34025  0.74248  0.53649  1.0000
  H   H800      1.0  0.41724  0.96133  0.72603  1.0000
  C   C1004     1.0  0.40244  0.76469  0.53347  1.0000
  C   C1005     1.0  0.45711  0.98585  0.90164  1.0000
  H   H801      1.0  0.30982  0.71724  0.54201  1.0000
  H   H802      1.0  0.35509  0.82566  0.57538  1.0000
  C   C1006     1.0  0.33901  0.77018  0.52811  1.0000
  C   C1007     1.0  0.39341  0.74539  0.75978  1.0000
  H   H803      1.0  0.41359  0.82953  0.84275  1.0000
  H   H804      1.0  0.43312  0.83749  0.89464  1.0000
  H   H805      1.0  0.42746  0.78547  0.90607  1.0000
  C   C1008     1.0  0.27699  0.81093  0.55929  1.0000
  H   H806      1.0  0.35577  0.70922  0.57184  1.0000
  C   C1009     1.0  0.35784  0.80555  0.84893  1.0000
  C   C1010     1.0  0.40827  0.82599  0.71040  1.0000
  C   C1011     1.0  0.39006  0.83645  0.92723  1.0000
  C   C1012     1.0  0.30001  0.72504  0.69785  1.0000
  C   C1013     1.0  0.42717  0.88487  0.86528  1.0000
  H   H807      1.0  0.35168  0.82503  0.76216  1.0000
  C   C1014     1.0  0.38086  0.84104  0.58116  1.0000
  C   C1015     1.0  0.39688  0.84326  0.57075  1.0000
  C   C1016     1.0  0.36207  0.73530  0.64562  1.0000
  C   C1017     1.0  0.37136  0.85044  0.88684  1.0000
  C   C1018     1.0  0.31311  0.71961  0.70293  1.0000
  P   P32       1.0  0.44716  0.95583  0.86002  1.0000
  H   H808      1.0  0.42110  0.89166  0.88098  1.0000
  H   H809      1.0  0.38655  0.80885  0.73506  1.0000
  H   H810      1.0  0.35518  0.81101  0.87361  1.0000
  C   C1019     1.0  0.38753  0.85436  0.79559  1.0000
  H   H811      1.0  0.28172  0.71505  0.56051  1.0000
  H   H812      1.0  0.37354  0.92070  0.84287  1.0000
  C   C1020     1.0  0.44311  0.86650  0.82831  1.0000
  H   H813      1.0  0.45058  0.72154  0.60685  1.0000
  C   C1021     1.0  0.34537  0.79848  0.82319  1.0000
  H   H814      1.0  0.33335  0.71518  0.67852  1.0000
  C   C1022     1.0  0.37864  0.91089  0.84163  1.0000
  H   H815      1.0  0.37830  0.90788  0.89931  1.0000
  H   H816      1.0  0.39548  0.85468  0.70506  1.0000
  C   C1023     1.0  0.37017  0.81625  0.54225  1.0000
  H   H817      1.0  0.35649  0.74274  0.66068  1.0000
  H   H818      1.0  0.33313  0.79847  0.82795  1.0000
  C   C1024     1.0  0.45031  0.72685  0.58049  1.0000
  H   H819      1.0  0.33897  0.78595  0.77126  1.0000
  C   C1025     1.0  0.38191  0.90499  0.80825  1.0000
  H   H820      1.0  0.37339  0.78705  0.56539  1.0000
  C   C1026     1.0  0.37140  0.84217  0.79489  1.0000
  P   P33       1.0  0.39612  0.86595  0.83699  1.0000
  C   C1027     1.0  0.41827  0.87226  0.84014  1.0000
  H   H821      1.0  0.40821  0.86884  0.76218  1.0000
  C   C1028     1.0  0.39608  0.85893  0.76278  1.0000
  H   H822      1.0  0.38977  0.88713  0.78061  1.0000
  C   C1029     1.0  0.37295  0.83866  0.73006  1.0000
  C   C1030     1.0  0.36421  0.83430  0.76234  1.0000
  C   C1031     1.0  0.38621  0.81858  0.53085  1.0000
  C   C1032     1.0  0.47689  0.83713  0.77680  1.0000
  C   C1033     1.0  0.37755  0.73559  0.65626  1.0000
  C   C1034     1.0  0.38882  0.85108  0.73024  1.0000
  C   C1035     1.0  0.38781  0.89180  0.80680  1.0000
  H   H823      1.0  0.37877  0.84962  0.60066  1.0000
  H   H824      1.0  0.38393  0.74330  0.67922  1.0000
  H   H825      1.0  0.39751  0.83165  0.94391  1.0000
  H   H826      1.0  0.41981  0.85301  0.80285  1.0000
  H   H827      1.0  0.37931  0.91024  0.78348  1.0000
  C   C1036     1.0  0.23963  0.74314  0.76777  1.0000
  H   H828      1.0  0.45055  0.89773  0.89187  1.0000
  H   H829      1.0  0.44928  0.85919  0.81459  1.0000
  C   C1037     1.0  0.46065  0.77493  0.75951  1.0000
  H   H830      1.0  0.46001  0.81326  0.79626  1.0000
  C   C1038     1.0  0.30740  0.73040  0.63482  1.0000
  C   C1039     1.0  0.32093  0.72549  0.63995  1.0000
  H   H831      1.0  0.39530  0.75037  0.58236  1.0000
  C   C1040     1.0  0.40792  0.75949  0.75545  1.0000
  C   C1041     1.0  0.45867  0.93345  0.82298  1.0000
  H   H832      1.0  0.37618  0.76430  0.60151  1.0000
  P   P34       1.0  0.33386  0.72522  0.60203  1.0000
  C   C1042     1.0  0.36159  0.71642  0.59578  1.0000
  H   H833      1.0  0.39253  0.73318  0.74897  1.0000
  C   C1043     1.0  0.36751  0.82754  0.56689  1.0000
  C   C1044     1.0  0.32343  0.71964  0.67402  1.0000
  C   C1045     1.0  0.27508  0.72284  0.55173  1.0000
  H   H834      1.0  0.41825  0.75817  0.74134  1.0000
  C   C1046     1.0  0.47815  0.92246  0.84874  1.0000
  H   H835      1.0  0.45127  0.93421  0.80008  1.0000
  C   C1047     1.0  0.31239  0.67507  0.57429  1.0000
  C   C1048     1.0  0.25777  0.74311  0.52964  1.0000
  C   C1049     1.0  0.38287  0.76778  0.57637  1.0000
  H   H836      1.0  0.24510  0.69829  0.50343  1.0000
  C   C1050     1.0  0.29705  0.73026  0.66372  1.0000
  C   C1051     1.0  0.35384  0.72551  0.61567  1.0000
  C   C1052     1.0  0.39358  0.75990  0.56552  1.0000
  H   H837      1.0  0.30492  0.73458  0.60864  1.0000
  S   S147      1.0  0.47793  0.80015  0.55838  1.0000
  C   C1053     1.0  0.43803  0.95770  0.81719  1.0000
  H   H838      1.0  0.40728  0.85351  0.58242  1.0000
  C   C1054     1.0  0.40088  0.77766  0.51270  1.0000
  C   C1055     1.0  0.43057  0.68152  0.57001  1.0000
  H   H839      1.0  0.44515  0.98122  0.91410  1.0000
  H   H840      1.0  0.24176  0.69423  0.56935  1.0000
  C   C1056     1.0  0.31096  0.70561  0.55066  1.0000
  H   H841      1.0  0.39705  0.95490  0.92251  1.0000
  H   H842      1.0  0.45901  0.66737  0.56797  1.0000
  C   C1057     1.0  0.24357  0.70496  0.70116  1.0000
  H   H843      1.0  0.36908  0.82735  0.96254  1.0000
  C   C1058     1.0  0.38495  0.72610  0.63708  1.0000
  H   H844      1.0  0.31271  0.66321  0.58393  1.0000
  C   C1059     1.0  0.32145  0.81753  0.51665  1.0000
  Fe  Fe72      1.0  0.45384  0.66256  0.69316  1.0000
  C   C1060     1.0  0.47725  0.70826  0.59781  1.0000
  C   C1061     1.0  0.37699  0.71655  0.60676  1.0000
  H   H845      1.0  0.42428  0.81312  0.52076  1.0000
  C   C1062     1.0  0.42472  0.66429  0.56005  1.0000
  H   H846      1.0  0.38424  0.98084  0.96060  1.0000
  P   P35       1.0  0.38966  0.80387  0.49897  1.0000
  C   C1063     1.0  0.48032  0.84768  0.85129  1.0000
  C   C1064     1.0  0.42240  0.68672  0.59767  1.0000
  H   H847      1.0  0.24902  0.74060  0.58484  1.0000
  S   S148      1.0  0.46282  0.91483  0.96445  1.0000
  C   C1065     1.0  0.25652  0.73722  0.56528  1.0000
  C   C1066     1.0  0.42306  0.96029  0.75136  1.0000
  C   C1067     1.0  0.41669  0.94548  0.77151  1.0000
  H   H848      1.0  0.26858  0.81944  0.51129  1.0000
  C   C1068     1.0  0.43010  0.94696  0.89060  1.0000
  H   H849      1.0  0.35966  0.80567  0.53243  1.0000
  H   H850      1.0  0.46318  0.82231  0.86101  1.0000
  C   C1069     1.0  0.47285  0.75366  0.75632  1.0000
  C   C1070     1.0  0.30105  0.69033  0.53414  1.0000
  C   C1071     1.0  0.43687  0.97381  0.76403  1.0000
  H   H851      1.0  0.40593  0.93504  0.76179  1.0000
  C   C1072     1.0  0.41393  0.92504  0.93174  1.0000
  H   H852      1.0  0.26703  0.77006  0.58339  1.0000
  H   H853      1.0  0.41178  0.91329  0.94562  1.0000
  C   C1073     1.0  0.47670  0.80083  0.51011  1.0000
  C   C1074     1.0  0.46745  0.67843  0.58209  1.0000
  C   C1075     1.0  0.45884  0.94233  0.85539  1.0000
  H   H854      1.0  0.38288  0.70940  0.59162  1.0000
  S   S149      1.0  0.47598  0.83112  0.72976  1.0000
  H   H855      1.0  0.42670  0.69965  0.60713  1.0000
  C   C1076     1.0  0.26528  0.72732  0.57638  1.0000
  H   H856      1.0  0.43570  0.92499  0.90544  1.0000
  C   C1077     1.0  0.40552  0.94842  0.91858  1.0000
  C   C1078     1.0  0.42742  0.93171  0.90866  1.0000
  H   H857      1.0  0.47818  0.72706  0.68310  1.0000
  C   C1079     1.0  0.40289  0.65795  0.60421  1.0000
  H   H858      1.0  0.37401  0.95047  0.97774  1.0000
  C   C1080     1.0  0.30180  0.67507  0.54587  1.0000
  C   C1081     1.0  0.44435  0.97255  0.79683  1.0000
  H   H859      1.0  0.41893  0.93266  0.81983  1.0000
  C   C1082     1.0  0.45003  0.72506  0.51504  1.0000
  H   H860      1.0  0.42021  0.96639  0.88029  1.0000
  H   H861      1.0  0.40280  0.67905  0.63671  1.0000
  C   C1083     1.0  0.46147  0.97635  0.87513  1.0000
  C   C1084     1.0  0.45891  0.75793  0.75877  1.0000
  C   C1085     1.0  0.45219  0.68882  0.50584  1.0000
  H   H862      1.0  0.46890  0.94764  0.90986  1.0000
  C   C1086     1.0  0.27623  0.72840  0.51598  1.0000
  C   C1087     1.0  0.46977  0.83123  0.84054  1.0000
  H   H863      1.0  0.23709  0.76925  0.70103  1.0000
  H   H864      1.0  0.41878  0.82110  0.98132  1.0000
  C   C1088     1.0  0.43989  0.88265  0.96461  1.0000
  C   C1089     1.0  0.27631  0.79694  0.57954  1.0000
  C   C1090     1.0  0.46831  0.92355  0.81975  1.0000
  H   H865      1.0  0.39302  0.92861  0.95592  1.0000
  C   C1091     1.0  0.23284  0.69312  0.51438  1.0000
  C   C1092     1.0  0.47633  0.78765  0.75772  1.0000
  C   C1093     1.0  0.46867  0.94105  0.88444  1.0000
  H   H866      1.0  0.45491  0.98327  0.80624  1.0000
  H   H867      1.0  0.47750  0.80076  0.75761  1.0000
  H   H868      1.0  0.42240  0.85710  0.96826  1.0000
  S   S150      1.0  0.47531  0.87518  0.98072  1.0000
  C   C1094     1.0  0.42493  0.87023  0.97474  1.0000
  H   H869      1.0  0.44174  0.98535  0.74857  1.0000
  C   C1095     1.0  0.46432  0.96017  0.99023  1.0000
  H   H870      1.0  0.43359  0.97534  0.98255  1.0000
  H   H871      1.0  0.43897  0.94907  0.97317  1.0000
  C   C1096     1.0  0.23304  0.75925  0.72083  1.0000
  H   H872      1.0  0.28389  0.72505  0.49681  1.0000
  C   C1097     1.0  0.44869  0.96037  0.98316  1.0000
  C   C1098     1.0  0.46780  0.68997  0.49376  1.0000
  H   H873      1.0  0.47668  0.72065  0.59610  1.0000
  H   H874      1.0  0.46666  0.94877  0.98435  1.0000
  C   C1099     1.0  0.44559  0.97514  0.98907  1.0000
  H   H875      1.0  0.47856  0.69534  0.51102  1.0000
  C   C1100     1.0  0.47731  0.98301  0.86001  1.0000
  H   H876      1.0  0.48101  0.97593  0.83958  1.0000
  C   C1101     1.0  0.38481  0.95945  0.99105  1.0000
  H   H877      1.0  0.44930  0.83462  0.98691  1.0000
  C   C1102     1.0  0.43162  0.90431  0.99140  1.0000
  C   C1103     1.0  0.41326  0.87484  0.99302  1.0000
  C   C1104     1.0  0.47997  0.67667  0.60325  1.0000
  H   H878      1.0  0.48100  0.66441  0.60543  1.0000
  H   H879      1.0  0.51965  0.24612  0.37216  1.0000
  S   S151      1.0  0.51795  0.30699  0.25375  1.0000
  H   H880      1.0  0.58659  0.15616  0.41955  1.0000
  S   S152      1.0  0.52027  0.30554  0.34319  1.0000
  H   H881      1.0  0.53831  0.24246  0.41919  1.0000
  H   H882      1.0  0.52530  0.26416  0.29036  1.0000
  Fe  Fe73      1.0  0.50340  0.29039  0.29881  1.0000
  S   S153      1.0  0.49132  0.26157  0.30220  1.0000
  Fe  Fe74      1.0  0.67813  0.18183  0.30147  1.0000
  S   S154      1.0  0.67302  0.15378  0.30635  1.0000
  S   S155      1.0  0.70567  0.19883  0.29892  1.0000
  Fe  Fe75      1.0  0.64171  0.17542  0.31451  1.0000
  S   S156      1.0  0.63497  0.14758  0.32185  1.0000
  S   S157      1.0  0.62238  0.18719  0.32113  1.0000
  Fe  Fe76      1.0  0.65811  0.15507  0.35537  1.0000
  S   S158      1.0  0.66091  0.14219  0.40773  1.0000
  Fe  Fe77      1.0  0.65022  0.14889  0.27162  1.0000
  S   S159      1.0  0.63590  0.12806  0.22914  1.0000
  S   S160      1.0  0.66393  0.18290  0.35148  1.0000
  S   S161      1.0  0.65633  0.17692  0.26359  1.0000
  H   H883      1.0  0.59752  0.18669  0.39144  1.0000
  S   S162      1.0  0.58623  0.06058  0.03656  1.0000
  H   H884      1.0  0.56975  0.17457  0.41782  1.0000
  Fe  Fe78      1.0  0.61291  0.07679  0.02792  1.0000
  S   S163      1.0  0.63186  0.09247  0.07149  1.0000
  C   C1105     1.0  0.71867  0.24999  0.28556  1.0000
  H   H885      1.0  0.51029  0.20405  0.37890  1.0000
  Fe  Fe79      1.0  0.51367  0.17752  0.30383  1.0000
  S   S164      1.0  0.52462  0.20635  0.29890  1.0000
  Fe  Fe80      1.0  0.52681  0.14903  0.30214  1.0000
  S   S165      1.0  0.50181  0.12913  0.31152  1.0000
  S   S166      1.0  0.54749  0.13945  0.29579  1.0000
  Fe  Fe81      1.0  0.49264  0.14278  0.27008  1.0000
  Fe  Fe82      1.0  0.49917  0.14716  0.35428  1.0000
  H   H886      1.0  0.59630  0.01089  0.05431  1.0000
  S   S167      1.0  0.51799  0.16170  0.25840  1.0000
  S   S168      1.0  0.52481  0.16618  0.34655  1.0000
  C   C1106     1.0  0.55935  0.10922  0.39963  1.0000
  H   H887      1.0  0.48339  0.00103  0.01884  1.0000
  H   H888      1.0  0.65250  0.16524  0.45965  1.0000
  H   H889      1.0  0.49864  0.18334  0.42777  1.0000
  H   H890      1.0  0.54630  0.11926  0.36239  1.0000
  C   C1107     1.0  0.51840  0.20126  0.39788  1.0000
  H   H891      1.0  0.49557  0.10116  0.13049  1.0000
  C   C1108     1.0  0.60159  0.17405  0.31268  1.0000
  C   C1109     1.0  0.58914  0.18066  0.31670  1.0000
  C   C1110     1.0  0.57246  0.17030  0.31105  1.0000
  C   C1111     1.0  0.56818  0.15326  0.30130  1.0000
  C   C1112     1.0  0.58061  0.14674  0.29688  1.0000
  C   C1113     1.0  0.59722  0.15709  0.30228  1.0000
  H   H892      1.0  0.59240  0.19383  0.32429  1.0000
  H   H893      1.0  0.56295  0.17546  0.31444  1.0000
  H   H894      1.0  0.57735  0.13358  0.28938  1.0000
  H   H895      1.0  0.60662  0.15192  0.29796  1.0000
  C   C1114     1.0  0.63492  0.11881  0.18455  1.0000
  C   C1115     1.0  0.62007  0.10611  0.17248  1.0000
  C   C1116     1.0  0.61875  0.09823  0.13793  1.0000
  C   C1117     1.0  0.63232  0.10279  0.11467  1.0000
  C   C1118     1.0  0.64715  0.11549  0.12673  1.0000
  C   C1119     1.0  0.64842  0.12353  0.16109  1.0000
  H   H896      1.0  0.60950  0.10219  0.19013  1.0000
  H   H897      1.0  0.60733  0.08833  0.12969  1.0000
  H   H898      1.0  0.65782  0.11914  0.10936  1.0000
  H   H899      1.0  0.65996  0.13318  0.16964  1.0000
  C   C1120     1.0  0.51002  0.99314  0.03767  1.0000
  H   H900      1.0  0.69609  0.22775  0.28244  1.0000
  C   C1121     1.0  0.50645  0.11032  0.02066  1.0000
  C   C1122     1.0  0.65880  0.14307  0.45573  1.0000
  C   C1123     1.0  0.70328  0.19453  0.40245  1.0000
  H   H901      1.0  0.66495  0.12101  0.46172  1.0000
  C   C1124     1.0  0.53650  0.12861  0.46844  1.0000
  C   C1125     1.0  0.50089  0.24648  0.30178  1.0000
  C   C1126     1.0  0.49123  0.22936  0.30804  1.0000
  C   C1127     1.0  0.49830  0.21691  0.30767  1.0000
  C   C1128     1.0  0.51510  0.22146  0.30064  1.0000
  C   C1129     1.0  0.52477  0.23859  0.29467  1.0000
  C   C1130     1.0  0.51773  0.25105  0.29527  1.0000
  C   C1131     1.0  0.62358  0.18582  0.48074  1.0000
  S   S169      1.0  0.57299  0.01370  0.00536  1.0000
  H   H902      1.0  0.55914  0.21104  0.41360  1.0000
  C   C1132     1.0  0.61394  0.16864  0.48439  1.0000
  C   C1133     1.0  0.53029  0.02288  0.07361  1.0000
  H   H903      1.0  0.50343  0.06651  0.01254  1.0000
  H   H904      1.0  0.53194  0.08770  0.01704  1.0000
  H   H905      1.0  0.54045  0.21762  0.37190  1.0000
  H   H906      1.0  0.48562  0.21643  0.19505  1.0000
  H   H907      1.0  0.52108  0.17657  0.17385  1.0000
  C   C1134     1.0  0.71653  0.20994  0.40676  1.0000
  H   H908      1.0  0.53778  0.24222  0.28921  1.0000
  H   H909      1.0  0.61691  0.21479  0.41157  1.0000
  H   H910      1.0  0.54716  0.08257  0.25882  1.0000
  H   H911      1.0  0.50111  0.06433  0.08623  1.0000
  C   C1135     1.0  0.52564  0.00282  0.02388  1.0000
  H   H912      1.0  0.67025  0.00664  0.08764  1.0000
  C   C1136     1.0  0.48644  0.11383  0.17145  1.0000
  C   C1137     1.0  0.57980  0.09448  0.09994  1.0000
  C   C1138     1.0  0.59053  0.10452  0.07408  1.0000
  C   C1139     1.0  0.59815  0.12195  0.07979  1.0000
  C   C1140     1.0  0.59499  0.12940  0.11136  1.0000
  C   C1141     1.0  0.58465  0.11933  0.13812  1.0000
  C   C1142     1.0  0.57691  0.10182  0.13195  1.0000
  P   P36       1.0  0.57940  0.12893  0.17760  1.0000
  C   C1143     1.0  0.56048  0.13218  0.16815  1.0000
  C   C1144     1.0  0.57674  0.11489  0.21550  1.0000
  C   C1145     1.0  0.56120  0.10255  0.22314  1.0000
  C   C1146     1.0  0.55921  0.09188  0.25278  1.0000
  C   C1147     1.0  0.57273  0.09328  0.27469  1.0000
  C   C1148     1.0  0.58826  0.10532  0.26692  1.0000
  C   C1149     1.0  0.59025  0.11608  0.23755  1.0000
  C   C1150     1.0  0.55086  0.13428  0.19673  1.0000
  C   C1151     1.0  0.53607  0.13651  0.18976  1.0000
  C   C1152     1.0  0.53077  0.13668  0.15410  1.0000
  C   C1153     1.0  0.54024  0.13457  0.12540  1.0000
  C   C1154     1.0  0.55508  0.13238  0.13233  1.0000
  C   C1155     1.0  0.59571  0.14874  0.18982  1.0000
  C   C1156     1.0  0.61227  0.15079  0.18473  1.0000
  C   C1157     1.0  0.62495  0.16561  0.19634  1.0000
  C   C1158     1.0  0.62124  0.17843  0.21365  1.0000
  C   C1159     1.0  0.60483  0.17649  0.21902  1.0000
  C   C1160     1.0  0.59210  0.16171  0.20722  1.0000
  H   H913      1.0  0.57383  0.08098  0.09513  1.0000
  H   H914      1.0  0.59293  0.09878  0.04957  1.0000
  H   H915      1.0  0.60653  0.12964  0.05969  1.0000
  H   H916      1.0  0.60062  0.14300  0.11474  1.0000
  H   H917      1.0  0.56856  0.09383  0.15164  1.0000
  H   H918      1.0  0.55062  0.10121  0.20634  1.0000
  H   H919      1.0  0.59886  0.10645  0.28359  1.0000
  H   H920      1.0  0.60239  0.12535  0.23240  1.0000
  H   H921      1.0  0.55482  0.13416  0.22446  1.0000
  H   H922      1.0  0.52874  0.13803  0.21219  1.0000
  C   C1161     1.0  0.57243  0.11312  0.42436  1.0000
  C   C1162     1.0  0.48521  0.10433  0.13898  1.0000
  H   H923      1.0  0.56221  0.13077  0.10969  1.0000
  H   H924      1.0  0.61548  0.14070  0.17302  1.0000
  H   H925      1.0  0.63765  0.16683  0.19296  1.0000
  H   H926      1.0  0.63107  0.18967  0.22385  1.0000
  H   H927      1.0  0.60200  0.18619  0.23357  1.0000
  H   H928      1.0  0.57955  0.16031  0.21292  1.0000
  Fe  Fe83      1.0  0.58836  0.04220  0.99363  1.0000
  C   C1163     1.0  0.63227  0.19164  0.44882  1.0000
  C   C1164     1.0  0.63114  0.18032  0.42042  1.0000
  C   C1165     1.0  0.62186  0.16308  0.42428  1.0000
  H   H929      1.0  0.68597  0.19193  0.48548  1.0000
  P   P37       1.0  0.60036  0.13482  0.46059  1.0000
  H   H930      1.0  0.49334  0.99042  0.08233  1.0000
  H   H931      1.0  0.63969  0.20495  0.44581  1.0000
  H   H932      1.0  0.63740  0.18491  0.39518  1.0000
  H   H933      1.0  0.62133  0.15465  0.40182  1.0000
  S   S170      1.0  0.48578  0.30425  0.30299  1.0000
  Fe  Fe84      1.0  0.50352  0.31999  0.34577  1.0000
  H   H934      1.0  0.62261  0.10925  0.36336  1.0000
  C   C1166     1.0  0.72912  0.17788  0.46145  1.0000
  H   H935      1.0  0.68333  0.99713  0.03676  1.0000
  C   C1167     1.0  0.57356  0.19537  0.45555  1.0000
  C   C1168     1.0  0.54593  0.16395  0.47268  1.0000
  C   C1169     1.0  0.53848  0.15501  0.44111  1.0000
  C   C1170     1.0  0.53377  0.13744  0.43904  1.0000
  C   C1171     1.0  0.50505  0.99807  0.07058  1.0000
  H   H936      1.0  0.53607  0.13454  0.09774  1.0000
  H   H937      1.0  0.57507  0.10295  0.43692  1.0000
  C   C1172     1.0  0.58467  0.21138  0.46684  1.0000
  C   C1173     1.0  0.60030  0.21831  0.45123  1.0000
  C   C1174     1.0  0.60489  0.20940  0.42407  1.0000
  C   C1175     1.0  0.59390  0.19353  0.41261  1.0000
  C   C1176     1.0  0.57824  0.18661  0.42799  1.0000
  C   C1177     1.0  0.51512  0.01293  0.08840  1.0000
  C   C1178     1.0  0.52969  0.07516  0.00635  1.0000
  H   H938      1.0  0.64475  0.01205  0.07747  1.0000
  C   C1179     1.0  0.56591  0.13907  0.38998  1.0000
  C   C1180     1.0  0.70789  0.21243  0.46817  1.0000
  C   C1181     1.0  0.54600  0.20509  0.41775  1.0000
  H   H939      1.0  0.60882  0.23067  0.45992  1.0000
  C   C1182     1.0  0.50511  0.31743  0.46446  1.0000
  H   H940      1.0  0.53636  0.16158  0.41790  1.0000
  H   H941      1.0  0.52781  0.13071  0.41465  1.0000
  C   C1183     1.0  0.51358  0.06324  0.00346  1.0000
  C   C1184     1.0  0.70916  0.23251  0.28832  1.0000
  C   C1185     1.0  0.67219  0.99961  0.03212  1.0000
  C   C1186     1.0  0.53954  0.19323  0.44535  1.0000
  C   C1187     1.0  0.55618  0.12220  0.38223  1.0000
  C   C1188     1.0  0.60704  0.02198  0.06097  1.0000
  C   C1189     1.0  0.54293  0.07090  0.99527  1.0000
  C   C1190     1.0  0.71670  0.22117  0.29763  1.0000
  C   C1191     1.0  0.69455  0.19705  0.46359  1.0000
  H   H942      1.0  0.54138  0.31273  0.46249  1.0000
  Fe  Fe85      1.0  0.50148  0.32192  0.26051  1.0000
  C   C1192     1.0  0.52380  0.24563  0.46379  1.0000
  C   C1193     1.0  0.52740  0.24478  0.42712  1.0000
  H   H943      1.0  0.50034  0.09946  0.03757  1.0000
  H   H944      1.0  0.56345  0.14907  0.37622  1.0000
  H   H945      1.0  0.52190  0.19904  0.21806  1.0000
  H   H946      1.0  0.71973  0.17409  0.44040  1.0000
  C   C1194     1.0  0.53559  0.01775  0.04157  1.0000
  C   C1195     1.0  0.57897  0.14303  0.41471  1.0000
  H   H947      1.0  0.51928  0.13838  0.14876  1.0000
  H   H948      1.0  0.57122  0.08503  0.29764  1.0000
  H   H949      1.0  0.49411  0.15613  0.15146  1.0000
  H   H950      1.0  0.51115  0.01679  0.11355  1.0000
  C   C1196     1.0  0.62237  0.02449  0.04529  1.0000
  C   C1197     1.0  0.61263  0.11996  0.40604  1.0000
  H   H951      1.0  0.48856  0.25373  0.45439  1.0000
  C   C1198     1.0  0.61333  0.15700  0.45655  1.0000
  C   C1199     1.0  0.49803  0.13756  0.48401  1.0000
  C   C1200     1.0  0.58240  0.13007  0.43190  1.0000
  H   H952      1.0  0.51546  0.15272  0.01803  1.0000
  H   H953      1.0  0.53806  0.03451  0.08704  1.0000
  H   H954      1.0  0.68195  0.17624  0.42718  1.0000
  C   C1201     1.0  0.55987  0.30865  0.36919  1.0000
  S   S171      1.0  0.48766  0.15944  0.31376  1.0000
  H   H955      1.0  0.70141  0.18767  0.37685  1.0000
  C   C1202     1.0  0.69226  0.18813  0.43078  1.0000
  H   H956      1.0  0.50136  0.25602  0.00214  1.0000
  H   H957      1.0  0.63121  0.09640  0.47155  1.0000
  H   H958      1.0  0.49503  0.25202  0.38991  1.0000
  C   C1203     1.0  0.49094  0.03720  0.07990  1.0000
  H   H959      1.0  0.61725  0.05872  0.10966  1.0000
  C   C1204     1.0  0.54849  0.29438  0.38560  1.0000
  H   H960      1.0  0.48762  0.08114  0.23660  1.0000
  H   H961      1.0  0.60753  0.12639  0.38713  1.0000
  C   C1205     1.0  0.73095  0.25463  0.41461  1.0000
  H   H962      1.0  0.55189  0.09614  0.39331  1.0000
  H   H963      1.0  0.53261  0.28498  0.43118  1.0000
  H   H964      1.0  0.59326  0.03233  0.09562  1.0000
  C   C1206     1.0  0.66147  0.13042  0.47565  1.0000
  H   H965      1.0  0.64758  0.04212  0.04008  1.0000
  C   C1207     1.0  0.49558  0.19212  0.21825  1.0000
  H   H966      1.0  0.53285  0.11500  0.46663  1.0000
  C   C1208     1.0  0.53545  0.20897  0.39404  1.0000
  C   C1209     1.0  0.51494  0.14031  0.00961  1.0000
  S   S172      1.0  0.56278  0.08648  0.99550  1.0000
  C   C1210     1.0  0.52236  0.18544  0.44883  1.0000
  H   H967      1.0  0.49618  0.20158  0.23859  1.0000
  C   C1211     1.0  0.63580  0.03954  0.05300  1.0000
  C   C1212     1.0  0.66484  0.00500  0.06076  1.0000
  C   C1213     1.0  0.49459  0.16658  0.16905  1.0000
  C   C1214     1.0  0.61118  0.12178  0.44363  1.0000
  P   P38       1.0  0.55298  0.18681  0.47399  1.0000
  C   C1215     1.0  0.71886  0.21912  0.43952  1.0000
  H   H968      1.0  0.72229  0.31589  0.36451  1.0000
  C   C1216     1.0  0.61770  0.11293  0.46712  1.0000
  H   H969      1.0  0.51074  0.31040  0.44827  1.0000
  C   C1217     1.0  0.54188  0.29596  0.41923  1.0000
  H   H970      1.0  0.64422  0.06352  0.08173  1.0000
  C   C1218     1.0  0.62577  0.10275  0.45323  1.0000
  H   H971      1.0  0.49079  0.20381  0.31251  1.0000
  H   H972      1.0  0.70341  0.25728  0.35178  1.0000
  C   C1219     1.0  0.50298  0.25011  0.41069  1.0000
  H   H973      1.0  0.63444  0.09417  0.40525  1.0000
  H   H974      1.0  0.56449  0.30762  0.34240  1.0000
  C   C1220     1.0  0.50701  0.12630  0.03136  1.0000
  C   C1221     1.0  0.60524  0.03417  0.08443  1.0000
  H   H975      1.0  0.54434  0.28225  0.37156  1.0000
  H   H976      1.0  0.49756  0.11769  0.18769  1.0000
  C   C1222     1.0  0.61871  0.04902  0.09227  1.0000
  H   H977      1.0  0.50121  0.12772  0.05647  1.0000
  H   H978      1.0  0.71274  0.25857  0.27773  1.0000
  C   C1223     1.0  0.51693  0.24689  0.40059  1.0000
  S   S173      1.0  0.49198  0.13505  0.41033  1.0000
  H   H979      1.0  0.50501  0.12968  0.47873  1.0000
  C   C1224     1.0  0.63398  0.05169  0.07656  1.0000
  H   H980      1.0  0.48767  0.24566  0.20692  1.0000
  C   C1225     1.0  0.51186  0.18957  0.42537  1.0000
  C   C1226     1.0  0.65446  0.15529  0.47454  1.0000
  C   C1227     1.0  0.71680  0.24965  0.39249  1.0000
  H   H981      1.0  0.72361  0.28669  0.34946  1.0000
  C   C1228     1.0  0.65044  0.00818  0.05483  1.0000
  C   C1229     1.0  0.49138  0.05264  0.09408  1.0000
  C   C1230     1.0  0.72537  0.27798  0.36865  1.0000
  P   P39       1.0  0.62455  0.00963  0.01235  1.0000
  C   C1231     1.0  0.49097  0.14304  0.45478  1.0000
  C   C1232     1.0  0.62756  0.10145  0.41589  1.0000
  C   C1233     1.0  0.62092  0.10998  0.39230  1.0000
  H   H982      1.0  0.54748  0.02532  0.03041  1.0000
  C   C1234     1.0  0.71404  0.26134  0.36972  1.0000
  C   C1235     1.0  0.50974  0.17799  0.18185  1.0000
  H   H983      1.0  0.70800  0.23676  0.39198  1.0000
  C   C1236     1.0  0.50961  0.24851  0.47426  1.0000
  C   C1237     1.0  0.54686  0.31175  0.43679  1.0000
  C   C1238     1.0  0.51022  0.19068  0.20667  1.0000
  H   H984      1.0  0.51708  0.17590  0.46920  1.0000
  H   H985      1.0  0.50039  0.03689  0.06129  1.0000
  C   C1239     1.0  0.64349  0.00629  0.01999  1.0000
  C   C1240     1.0  0.49932  0.25098  0.44738  1.0000
  H   H986      1.0  0.53207  0.24400  0.48404  1.0000
  H   H987      1.0  0.53037  0.99895  0.99977  1.0000
  H   H988      1.0  0.72470  0.21487  0.38406  1.0000
  H   H989      1.0  0.58119  0.21862  0.48727  1.0000
  C   C1241     1.0  0.66506  0.99725  0.99757  1.0000
  C   C1242     1.0  0.60831  0.98894  0.01442  1.0000
  H   H990      1.0  0.58182  0.12886  0.99409  1.0000
  C   C1243     1.0  0.48110  0.15237  0.46244  1.0000
  H   H991      1.0  0.71408  0.24866  0.49288  1.0000
  H   H992      1.0  0.52729  0.26521  0.66389  1.0000
  Fe  Fe86      1.0  0.50773  0.29129  0.67657  1.0000
  S   S174      1.0  0.49485  0.26325  0.68810  1.0000
  C   C1244     1.0  0.56275  0.14454  0.91368  1.0000
  C   C1245     1.0  0.68720  0.20837  0.57146  1.0000
  C   C1246     1.0  0.70289  0.22084  0.57615  1.0000
  S   S175      1.0  0.52281  0.30251  0.62734  1.0000
  S   S176      1.0  0.52508  0.30962  0.71626  1.0000
  Fe  Fe87      1.0  0.67066  0.18111  0.67907  1.0000
  S   S177      1.0  0.66661  0.15332  0.67814  1.0000
  S   S178      1.0  0.69782  0.19800  0.68621  1.0000
  Fe  Fe88      1.0  0.63354  0.17291  0.67020  1.0000
  S   S179      1.0  0.62752  0.14490  0.66778  1.0000
  S   S180      1.0  0.61375  0.18418  0.66638  1.0000
  Fe  Fe89      1.0  0.64496  0.14922  0.71534  1.0000
  S   S181      1.0  0.63714  0.13708  0.77161  1.0000
  Fe  Fe90      1.0  0.64958  0.15185  0.63088  1.0000
  S   S182      1.0  0.64961  0.13690  0.57900  1.0000
  S   S183      1.0  0.65018  0.17726  0.71883  1.0000
  S   S184      1.0  0.65452  0.17960  0.63053  1.0000
  Fe  Fe91      1.0  0.60901  0.07198  0.94375  1.0000
  S   S185      1.0  0.62035  0.07653  0.88658  1.0000
  H   H993      1.0  0.55268  0.30447  0.52402  1.0000
  S   S186      1.0  0.58194  0.05582  0.94753  1.0000
  Fe  Fe92      1.0  0.51388  0.17975  0.67750  1.0000
  H   H994      1.0  0.71309  0.18203  0.50066  1.0000
  S   S187      1.0  0.52805  0.20822  0.67918  1.0000
  Fe  Fe93      1.0  0.52013  0.14721  0.66630  1.0000
  S   S188      1.0  0.49315  0.13114  0.66136  1.0000
  S   S189      1.0  0.53868  0.13465  0.66281  1.0000
  Fe  Fe94      1.0  0.49196  0.15228  0.62620  1.0000
  H   H995      1.0  0.50061  0.00408  0.85909  1.0000
  C   C1247     1.0  0.49489  0.23110  0.69256  1.0000
  H   H996      1.0  0.51886  0.29803  0.93013  1.0000
  S   S190      1.0  0.51909  0.16701  0.62809  1.0000
  S   S191      1.0  0.51755  0.16113  0.71639  1.0000
  H   H997      1.0  0.57866  0.23694  0.79354  1.0000
  C   C1248     1.0  0.62551  0.03737  0.90533  1.0000
  C   C1249     1.0  0.54656  0.26407  0.74605  1.0000
  H   H998      1.0  0.61265  0.13580  0.59139  1.0000
  C   C1250     1.0  0.72863  0.14868  0.61451  1.0000
  C   C1251     1.0  0.56611  0.23857  0.91334  1.0000
  C   C1252     1.0  0.64007  0.03096  0.95548  1.0000
  C   C1253     1.0  0.68547  0.19164  0.56429  1.0000
  H   H999      1.0  0.51291  0.09573  0.98026  1.0000
  H   H1000     1.0  0.58711  0.16349  0.90678  1.0000
  C   C1254     1.0  0.49235  0.28453  0.92995  1.0000
  C   C1255     1.0  0.71000  0.24780  0.66020  1.0000
  C   C1256     1.0  0.65239  0.15437  0.51280  1.0000
  H   H1001     1.0  0.52464  0.25090  0.58938  1.0000
  H   H1002     1.0  0.70952  0.21889  0.49400  1.0000
  C   C1257     1.0  0.65435  0.14103  0.53218  1.0000
  C   C1258     1.0  0.71522  0.19982  0.56670  1.0000
  H   H1003     1.0  0.51396  0.10374  0.63271  1.0000
  H   H1004     1.0  0.66056  0.11891  0.52749  1.0000
  P   P40       1.0  0.54269  0.22102  0.80067  1.0000
  C   C1259     1.0  0.63308  0.12026  0.80351  1.0000
  C   C1260     1.0  0.63431  0.10474  0.79447  1.0000
  C   C1261     1.0  0.63037  0.09162  0.82017  1.0000
  C   C1262     1.0  0.62519  0.09373  0.85540  1.0000
  C   C1263     1.0  0.62409  0.10930  0.86452  1.0000
  C   C1264     1.0  0.62787  0.12237  0.83870  1.0000
  H   H1005     1.0  0.63829  0.10283  0.76767  1.0000
  H   H1006     1.0  0.63139  0.07973  0.81269  1.0000
  H   H1007     1.0  0.62040  0.11132  0.89152  1.0000
  H   H1008     1.0  0.62682  0.13425  0.84614  1.0000
  C   C1265     1.0  0.55945  0.14854  0.66294  1.0000
  C   C1266     1.0  0.57178  0.14202  0.66851  1.0000
  C   C1267     1.0  0.58842  0.15282  0.66968  1.0000
  C   C1268     1.0  0.59291  0.17023  0.66479  1.0000
  C   C1269     1.0  0.58055  0.17673  0.65881  1.0000
  C   C1270     1.0  0.56384  0.16592  0.65783  1.0000
  H   H1009     1.0  0.56848  0.12861  0.67234  1.0000
  H   H1010     1.0  0.59768  0.14764  0.67506  1.0000
  H   H1011     1.0  0.58392  0.19017  0.65502  1.0000
  H   H1012     1.0  0.55440  0.17103  0.65308  1.0000
  H   H1013     1.0  0.55129  0.09834  0.91618  1.0000
  C   C1271     1.0  0.50575  0.31705  0.50302  1.0000
  H   H1014     1.0  0.49489  0.20583  0.69836  1.0000
  H   H1015     1.0  0.50335  0.28189  0.55119  1.0000
  C   C1272     1.0  0.50398  0.24794  0.68305  1.0000
  H   H1016     1.0  0.65176  0.04857  0.91310  1.0000
  C   C1273     1.0  0.50197  0.21870  0.69060  1.0000
  C   C1274     1.0  0.51828  0.22310  0.67936  1.0000
  C   C1275     1.0  0.52732  0.23991  0.66950  1.0000
  C   C1276     1.0  0.52017  0.25226  0.67099  1.0000
  H   H1017     1.0  0.49254  0.14047  0.86067  1.0000
  H   H1018     1.0  0.53999  0.24342  0.66107  1.0000
  C   C1277     1.0  0.72540  0.18247  0.49580  1.0000
  C   C1278     1.0  0.53846  0.09068  0.91146  1.0000
  C   C1279     1.0  0.54361  0.13735  0.50024  1.0000
  C   C1280     1.0  0.61055  0.02648  0.91936  1.0000
  C   C1281     1.0  0.50006  0.22991  0.54395  1.0000
  C   C1282     1.0  0.52385  0.20269  0.80559  1.0000
  H   H1019     1.0  0.70653  0.16161  0.67575  1.0000
  C   C1283     1.0  0.52392  0.12817  0.88597  1.0000
  C   C1284     1.0  0.56603  0.19477  0.54384  1.0000
  H   H1020     1.0  0.56833  0.12028  0.49819  1.0000
  P   P41       1.0  0.50557  0.25013  0.52192  1.0000
  C   C1285     1.0  0.70077  0.23048  0.66600  1.0000
  H   H1021     1.0  0.52859  0.19749  0.86103  1.0000
  C   C1286     1.0  0.55659  0.24669  0.89732  1.0000
  C   C1287     1.0  0.51353  0.10823  0.98797  1.0000
  H   H1022     1.0  0.51199  0.30983  0.51624  1.0000
  C   C1288     1.0  0.64026  0.03966  0.92344  1.0000
  H   H1023     1.0  0.49105  0.31195  0.82498  1.0000
  C   C1289     1.0  0.55312  0.19412  0.52032  1.0000
  H   H1024     1.0  0.68751  0.22552  0.66292  1.0000
  C   C1290     1.0  0.54948  0.24146  0.86312  1.0000
  H   H1025     1.0  0.57165  0.24266  0.93979  1.0000
  H   H1026     1.0  0.71553  0.13762  0.66307  1.0000
  Fe  Fe95      1.0  0.58168  0.07478  0.98985  1.0000
  P   P42       1.0  0.53115  0.11974  0.92419  1.0000
  H   H1027     1.0  0.58331  0.12415  0.60980  1.0000
  C   C1291     1.0  0.72609  0.25213  0.50560  1.0000
  C   C1292     1.0  0.71908  0.14833  0.64504  1.0000
  H   H1028     1.0  0.50080  0.13689  0.54223  1.0000
  H   H1029     1.0  0.50270  0.12991  0.91357  1.0000
  H   H1030     1.0  0.52842  0.14921  0.96051  1.0000
  H   H1031     1.0  0.54542  0.13053  0.52338  1.0000
  C   C1293     1.0  0.55200  0.22814  0.84457  1.0000
  H   H1032     1.0  0.59906  0.18600  0.76240  1.0000
  C   C1294     1.0  0.54476  0.27479  0.58957  1.0000
  H   H1033     1.0  0.70372  0.25610  0.65268  1.0000
  C   C1295     1.0  0.55743  0.21590  0.77339  1.0000
  H   H1034     1.0  0.61990  0.14013  0.52716  1.0000
  H   H1035     1.0  0.57150  0.99607  0.93459  1.0000
  C   C1296     1.0  0.49381  0.22812  0.57933  1.0000
  C   C1297     1.0  0.57653  0.13341  0.97182  1.0000
  C   C1298     1.0  0.50558  0.17962  0.84162  1.0000
  C   C1299     1.0  0.54993  0.25043  0.75984  1.0000
  C   C1300     1.0  0.56139  0.21989  0.86109  1.0000
  H   H1036     1.0  0.56178  0.24969  0.75445  1.0000
  C   C1301     1.0  0.52398  0.04257  0.97970  1.0000
  H   H1037     1.0  0.55765  0.14933  0.89168  1.0000
  H   H1038     1.0  0.51891  0.99355  0.89454  1.0000
  C   C1302     1.0  0.56377  0.19738  0.73043  1.0000
  C   C1303     1.0  0.50381  0.13799  0.85868  1.0000
  H   H1039     1.0  0.64513  0.99830  0.96479  1.0000
  C   C1304     1.0  0.55987  0.12517  0.96308  1.0000
  C   C1305     1.0  0.53161  0.12943  0.85220  1.0000
  C   C1306     1.0  0.48551  0.29117  0.78748  1.0000
  C   C1307     1.0  0.65901  0.12925  0.51315  1.0000
  C   C1308     1.0  0.58642  0.12571  0.58133  1.0000
  C   C1309     1.0  0.59471  0.13035  0.50764  1.0000
  H   H1040     1.0  0.48759  0.10883  0.77120  1.0000
  H   H1041     1.0  0.54211  0.24789  0.85128  1.0000
  C   C1310     1.0  0.69938  0.18734  0.56223  1.0000
  H   H1042     1.0  0.67332  0.18184  0.56160  1.0000
  H   H1043     1.0  0.59908  0.02521  0.90607  1.0000
  C   C1311     1.0  0.49553  0.14152  0.52018  1.0000
  H   H1044     1.0  0.62564  0.04447  0.88105  1.0000
  C   C1312     1.0  0.52620  0.09763  0.91350  1.0000
  C   C1313     1.0  0.57401  0.12127  0.55491  1.0000
  C   C1314     1.0  0.62509  0.01977  0.96942  1.0000
  C   C1315     1.0  0.52217  0.13826  0.97698  1.0000
  C   C1316     1.0  0.72725  0.25448  0.66472  1.0000
  H   H1045     1.0  0.51509  0.20410  0.75135  1.0000
  C   C1317     1.0  0.71688  0.21665  0.57368  1.0000
  H   H1046     1.0  0.50888  0.10486  0.51720  1.0000
  H   H1047     1.0  0.52180  0.02999  0.96928  1.0000
  H   H1048     1.0  0.50280  0.17277  0.86682  1.0000
  C   C1318     1.0  0.49133  0.19883  0.57958  1.0000
  H   H1049     1.0  0.71560  0.31350  0.66336  1.0000
  H   H1050     1.0  0.50726  0.25356  0.77551  1.0000
  C   C1319     1.0  0.71400  0.16179  0.65221  1.0000
  H   H1051     1.0  0.71889  0.26231  0.55361  1.0000
  H   H1052     1.0  0.50722  0.14434  0.80221  1.0000
  H   H1053     1.0  0.48386  0.08784  0.82064  1.0000
  H   H1054     1.0  0.54949  0.27262  0.61541  1.0000
  Fe  Fe96      1.0  0.49034  0.14601  0.71016  1.0000
  S   S192      1.0  0.49054  0.03271  0.98199  1.0000
  C   C1320     1.0  0.70872  0.21970  0.67663  1.0000
  C   C1321     1.0  0.57434  0.22585  0.77601  1.0000
  C   C1322     1.0  0.52127  0.12213  0.96566  1.0000
  H   H1055     1.0  0.50608  0.99584  0.95290  1.0000
  H   H1056     1.0  0.61691  0.11392  0.49613  1.0000
  C   C1323     1.0  0.52023  0.19370  0.83817  1.0000
  S   S193      1.0  0.60796  0.09196  0.98273  1.0000
  C   C1324     1.0  0.54836  0.15494  0.50237  1.0000
  H   H1057     1.0  0.52665  0.10952  0.57216  1.0000
  H   H1058     1.0  0.65155  0.03337  0.96978  1.0000
  H   H1059     1.0  0.49241  0.23874  0.59350  1.0000
  C   C1325     1.0  0.71840  0.17553  0.62886  1.0000
  H   H1060     1.0  0.56324  0.20938  0.84752  1.0000
  H   H1061     1.0  0.53939  0.19389  0.74720  1.0000
  C   C1326     1.0  0.57946  0.15279  0.92248  1.0000
  H   H1062     1.0  0.59864  0.01000  0.96275  1.0000
  H   H1063     1.0  0.52439  0.27987  0.97554  1.0000
  C   C1327     1.0  0.52576  0.13553  0.82226  1.0000
  H   H1064     1.0  0.59884  0.22930  0.75792  1.0000
  C   C1328     1.0  0.51184  0.27731  0.96684  1.0000
  C   C1329     1.0  0.57949  0.09572  0.67854  1.0000
  C   C1330     1.0  0.59541  0.09567  0.68170  1.0000
  C   C1331     1.0  0.60397  0.10032  0.71449  1.0000
  C   C1332     1.0  0.59668  0.10515  0.74399  1.0000
  C   C1333     1.0  0.58083  0.10557  0.74099  1.0000
  C   C1334     1.0  0.57221  0.10067  0.70802  1.0000
  P   P43       1.0  0.57278  0.11429  0.77793  1.0000
  C   C1335     1.0  0.57837  0.10753  0.82046  1.0000
  C   C1336     1.0  0.58143  0.13715  0.77488  1.0000
  C   C1337     1.0  0.59734  0.14545  0.76113  1.0000
  C   C1338     1.0  0.60364  0.16300  0.75698  1.0000
  C   C1339     1.0  0.59417  0.17246  0.76650  1.0000
  C   C1340     1.0  0.57846  0.16439  0.78093  1.0000
  C   C1341     1.0  0.57218  0.14683  0.78545  1.0000
  C   C1342     1.0  0.58121  0.11796  0.85140  1.0000
  C   C1343     1.0  0.58438  0.11212  0.88478  1.0000
  C   C1344     1.0  0.58464  0.09587  0.88757  1.0000
  C   C1345     1.0  0.58200  0.08549  0.85685  1.0000
  C   C1346     1.0  0.57880  0.09123  0.82342  1.0000
  C   C1347     1.0  0.55052  0.10692  0.77545  1.0000
  C   C1348     1.0  0.54062  0.09511  0.80032  1.0000
  C   C1349     1.0  0.52344  0.08956  0.79809  1.0000
  C   C1350     1.0  0.51601  0.09558  0.77085  1.0000
  C   C1351     1.0  0.52574  0.10750  0.74638  1.0000
  C   C1352     1.0  0.54291  0.11325  0.74883  1.0000
  H   H1065     1.0  0.57290  0.09220  0.65304  1.0000
  H   H1066     1.0  0.60122  0.09220  0.65869  1.0000
  H   H1067     1.0  0.61644  0.10062  0.71698  1.0000
  H   H1068     1.0  0.60364  0.10912  0.76889  1.0000
  H   H1069     1.0  0.56003  0.10089  0.70462  1.0000
  H   H1070     1.0  0.60496  0.13853  0.75314  1.0000
  H   H1071     1.0  0.61579  0.16923  0.74560  1.0000
  H   H1072     1.0  0.57109  0.17174  0.78812  1.0000
  H   H1073     1.0  0.56005  0.14081  0.79668  1.0000
  H   H1074     1.0  0.58104  0.13058  0.84982  1.0000
  H   H1075     1.0  0.58686  0.12019  0.90856  1.0000
  H   H1076     1.0  0.55960  0.18639  0.71267  1.0000
  H   H1077     1.0  0.58284  0.07313  0.85893  1.0000
  H   H1078     1.0  0.57668  0.08294  0.79996  1.0000
  H   H1079     1.0  0.54601  0.09013  0.82156  1.0000
  H   H1080     1.0  0.51587  0.08055  0.81749  1.0000
  H   H1081     1.0  0.50272  0.09099  0.76874  1.0000
  H   H1082     1.0  0.52000  0.11236  0.72546  1.0000
  H   H1083     1.0  0.55027  0.12260  0.72980  1.0000
  C   C1353     1.0  0.56588  0.19949  0.58018  1.0000
  C   C1354     1.0  0.55283  0.20356  0.59345  1.0000
  C   C1355     1.0  0.53995  0.20296  0.57034  1.0000
  C   C1356     1.0  0.51928  0.25282  0.77189  1.0000
  H   H1084     1.0  0.57577  0.19976  0.59822  1.0000
  H   H1085     1.0  0.55255  0.20694  0.62179  1.0000
  H   H1086     1.0  0.52974  0.20587  0.58102  1.0000
  C   C1357     1.0  0.50541  0.06986  0.90033  1.0000
  C   C1358     1.0  0.51763  0.06296  0.89913  1.0000
  C   C1359     1.0  0.53415  0.07339  0.90433  1.0000
  C   C1360     1.0  0.53127  0.26529  0.75219  1.0000
  H   H1087     1.0  0.58734  0.09149  0.91337  1.0000
  C   C1361     1.0  0.50969  0.08715  0.90717  1.0000
  C   C1362     1.0  0.48477  0.28821  0.85296  1.0000
  C   C1363     1.0  0.50862  0.28761  0.94098  1.0000
  H   H1088     1.0  0.55473  0.25707  0.91139  1.0000
  C   C1364     1.0  0.49722  0.20036  0.54416  1.0000
  C   C1365     1.0  0.72878  0.26000  0.53976  1.0000
  C   C1366     1.0  0.50621  0.10174  0.60880  1.0000
  H   H1089     1.0  0.55242  0.11449  0.97917  1.0000
  H   H1090     1.0  0.51321  0.22983  0.80151  1.0000
  H   H1091     1.0  0.51427  0.04948  0.89500  1.0000
  C   C1367     1.0  0.54656  0.29278  0.53822  1.0000
  H   H1092     1.0  0.55568  0.27355  0.72998  1.0000
  H   H1093     1.0  0.51957  0.30803  0.86111  1.0000
  C   C1368     1.0  0.50338  0.10241  0.54380  1.0000
  H   H1094     1.0  0.53156  0.13643  0.79611  1.0000
  H   H1095     1.0  0.54196  0.12546  0.84899  1.0000
  C   C1369     1.0  0.49803  0.18314  0.78008  1.0000
  S   S194      1.0  0.48651  0.16593  0.67447  1.0000
  S   S195      1.0  0.49142  0.30649  0.67175  1.0000
  C   C1370     1.0  0.52264  0.23926  0.78603  1.0000
  C   C1371     1.0  0.55227  0.20166  0.75031  1.0000
  C   C1372     1.0  0.58054  0.20732  0.73316  1.0000
  C   C1373     1.0  0.48738  0.29838  0.82216  1.0000
  S   S196      1.0  0.61589  0.05742  0.98820  1.0000
  C   C1374     1.0  0.48848  0.99893  0.87103  1.0000
  H   H1096     1.0  0.58942  0.20401  0.71747  1.0000
  H   H1097     1.0  0.55392  0.16136  0.52723  1.0000
  H   H1098     1.0  0.57583  0.21882  0.90773  1.0000
  C   C1375     1.0  0.50497  0.31800  0.89490  1.0000
  H   H1099     1.0  0.56123  0.11621  0.56308  1.0000
  H   H1100     1.0  0.64858  0.16348  0.52694  1.0000
  C   C1376     1.0  0.51257  0.19735  0.77667  1.0000
  H   H1101     1.0  0.54361  0.06801  0.90419  1.0000
  C   C1377     1.0  0.54004  0.19821  0.53394  1.0000
  C   C1378     1.0  0.61034  0.01782  0.95142  1.0000
  C   C1379     1.0  0.48508  0.15020  0.52781  1.0000
  C   C1380     1.0  0.53057  0.26248  0.57466  1.0000
  C   C1381     1.0  0.55289  0.13046  0.93362  1.0000
  H   H1102     1.0  0.67635  0.21154  0.57451  1.0000
  H   H1103     1.0  0.69771  0.17416  0.55818  1.0000
  H   H1104     1.0  0.70419  0.23366  0.58322  1.0000
  C   C1382     1.0  0.55272  0.28997  0.57146  1.0000
  H   H1105     1.0  0.49253  0.06179  0.89680  1.0000
  C   C1383     1.0  0.52424  0.26532  0.54141  1.0000
  C   C1384     1.0  0.53233  0.28059  0.52340  1.0000
  H   H1106     1.0  0.57610  0.19134  0.53429  1.0000
  H   H1107     1.0  0.60700  0.16460  0.50903  1.0000
  C   C1385     1.0  0.53801  0.23794  0.78011  1.0000
  H   H1108     1.0  0.50004  0.09227  0.90847  1.0000
  H   H1109     1.0  0.52848  0.27559  0.74063  1.0000
  C   C1386     1.0  0.50157  0.21583  0.52629  1.0000
  H   H1110     1.0  0.55032  0.05094  0.97524  1.0000
  C   C1387     1.0  0.56848  0.22514  0.89526  1.0000
  C   C1388     1.0  0.58582  0.22157  0.75595  1.0000
  C   C1389     1.0  0.50967  0.13203  0.88871  1.0000
  H   H1111     1.0  0.56355  0.29958  0.58343  1.0000
  H   H1112     1.0  0.71428  0.18579  0.63483  1.0000
  C   C1390     1.0  0.51895  0.31909  0.87481  1.0000
  C   C1391     1.0  0.72597  0.22637  0.68068  1.0000
  C   C1392     1.0  0.51337  0.10497  0.57460  1.0000
  C   C1393     1.0  0.60294  0.13234  0.57105  1.0000
  C   C1394     1.0  0.60704  0.13471  0.53448  1.0000
  C   C1395     1.0  0.51198  0.13999  0.82562  1.0000
  H   H1113     1.0  0.52747  0.28316  0.49811  1.0000
  C   C1396     1.0  0.58635  0.14723  0.95153  1.0000
  H   H1114     1.0  0.49274  0.02040  0.90684  1.0000
  C   C1397     1.0  0.48406  0.00819  0.89768  1.0000
  C   C1398     1.0  0.48911  0.09637  0.61237  1.0000
  H   H1115     1.0  0.52981  0.19764  0.51687  1.0000
  H   H1116     1.0  0.49832  0.18945  0.53067  1.0000
  C   C1399     1.0  0.49120  0.27325  0.54325  1.0000
  C   C1400     1.0  0.49887  0.26388  0.98185  1.0000
  C   C1401     1.0  0.48626  0.09698  0.54726  1.0000
  C   C1402     1.0  0.57811  0.12357  0.51815  1.0000
  H   H1117     1.0  0.48390  0.09406  0.63919  1.0000
  H   H1118     1.0  0.59932  0.15350  0.95814  1.0000
  H   H1119     1.0  0.50594  0.21659  0.49879  1.0000
  H   H1120     1.0  0.72886  0.22647  0.57855  1.0000
  C   C1403     1.0  0.51068  0.04714  0.98902  1.0000
  H   H1121     1.0  0.67063  0.99287  0.97546  1.0000
  H   H1122     1.0  0.48778  0.29919  0.76389  1.0000
  C   C1404     1.0  0.54013  0.05444  0.98302  1.0000
  Fe  Fe97      1.0  0.50782  0.31890  0.62451  1.0000
  C   C1405     1.0  0.48863  0.25713  0.52872  1.0000
  H   H1123     1.0  0.48807  0.18690  0.59353  1.0000
  C   C1406     1.0  0.56336  0.99201  0.98983  1.0000
  C   C1407     1.0  0.49452  0.17429  0.81254  1.0000
  C   C1408     1.0  0.72792  0.17599  0.59805  1.0000
  C   C1409     1.0  0.48952  0.21266  0.59701  1.0000
  P   P44       1.0  0.48780  0.29798  0.89752  1.0000
  H   H1124     1.0  0.48478  0.21138  0.62433  1.0000
  H   H1125     1.0  0.48325  0.16324  0.81502  1.0000
  H   H1126     1.0  0.62423  0.19463  0.50261  1.0000
  H   H1127     1.0  0.48235  0.22766  0.70188  1.0000
  C   C1410     1.0  0.48266  0.26070  0.97095  1.0000
  H   H1128     1.0  0.48949  0.17889  0.75745  1.0000
  C   C1411     1.0  0.65067  0.00043  0.99157  1.0000
  Fe  Fe98      1.0  0.64962  0.45772  0.38410  1.0000
  S   S197      1.0  0.64536  0.43017  0.37850  1.0000
  S   S198      1.0  0.65935  0.47160  0.43773  1.0000
  Fe  Fe99      1.0  0.64139  0.46027  0.30218  1.0000
  S   S199      1.0  0.63705  0.43283  0.29205  1.0000
  S   S200      1.0  0.63737  0.47853  0.26078  1.0000
  Fe  Fe100     1.0  0.62327  0.42815  0.34473  1.0000
  S   S201      1.0  0.59712  0.41052  0.35674  1.0000
  Fe  Fe101     1.0  0.65983  0.43774  0.32699  1.0000
  S   S202      1.0  0.67968  0.42696  0.31540  1.0000
  S   S203      1.0  0.62658  0.45541  0.35361  1.0000
  S   S204      1.0  0.66512  0.46549  0.33373  1.0000
  S   S205      1.0  0.56120  0.33588  0.29401  1.0000
  S   S206      1.0  0.51762  0.33904  0.30406  1.0000
  H   H1129     1.0  0.67479  0.55600  0.09416  1.0000
  C   C1412     1.0  0.52870  0.38897  0.26013  1.0000
  S   S207      1.0  0.58051  0.49906  0.06456  1.0000
  C   C1413     1.0  0.59350  0.37411  0.42106  1.0000
  C   C1414     1.0  0.55359  0.57110  0.00932  1.0000
  S   S208      1.0  0.49601  0.33743  0.21436  1.0000
  Fe  Fe102     1.0  0.60108  0.48945  0.05583  1.0000
  S   S209      1.0  0.61301  0.47651  0.09599  1.0000
  C   C1415     1.0  0.53496  0.39895  0.11164  1.0000
  S   S210      1.0  0.50834  0.60716  0.00702  1.0000
  C   C1416     1.0  0.52736  0.38548  0.19487  1.0000
  S   S211      1.0  0.50164  0.57721  0.06641  1.0000
  C   C1417     1.0  0.70212  0.42872  0.48121  1.0000
  Fe  Fe103     1.0  0.49321  0.59892  0.05809  1.0000
  C   C1418     1.0  0.72229  0.50193  0.28399  1.0000
  C   C1419     1.0  0.51650  0.43593  0.01036  1.0000
  H   H1130     1.0  0.52558  0.37718  0.17161  1.0000
  C   C1420     1.0  0.62077  0.37324  0.41509  1.0000
  H   H1131     1.0  0.48324  0.34287  0.45555  1.0000
  C   C1421     1.0  0.58730  0.35730  0.43313  1.0000
  H   H1132     1.0  0.61476  0.39494  0.40268  1.0000
  C   C1422     1.0  0.55377  0.39512  0.06717  1.0000
  C   C1423     1.0  0.55755  0.46070  0.12039  1.0000
  C   C1424     1.0  0.57526  0.55278  0.01224  1.0000
  H   H1133     1.0  0.55308  0.53054  0.01548  1.0000
  C   C1425     1.0  0.55802  0.54417  0.01340  1.0000
  C   C1426     1.0  0.71163  0.50307  0.34436  1.0000
  H   H1134     1.0  0.70291  0.57768  0.09620  1.0000
  C   C1427     1.0  0.55367  0.35872  0.42984  1.0000
  H   H1135     1.0  0.53241  0.42583  0.21950  1.0000
  H   H1136     1.0  0.62283  0.34945  0.42757  1.0000
  C   C1428     1.0  0.70703  0.49238  0.44344  1.0000
  S   S212      1.0  0.49498  0.32811  0.39906  1.0000
  C   C1429     1.0  0.71379  0.56225  0.06764  1.0000
  C   C1430     1.0  0.55857  0.32608  0.42076  1.0000
  C   C1431     1.0  0.49048  0.41213  0.08855  1.0000
  C   C1432     1.0  0.70138  0.47558  0.23435  1.0000
  H   H1137     1.0  0.51891  0.48292  0.06248  1.0000
  C   C1433     1.0  0.62875  0.47647  0.21615  1.0000
  C   C1434     1.0  0.62308  0.48896  0.20372  1.0000
  C   C1435     1.0  0.61756  0.48881  0.16765  1.0000
  C   C1436     1.0  0.61808  0.47641  0.14300  1.0000
  C   C1437     1.0  0.62341  0.46370  0.15565  1.0000
  C   C1438     1.0  0.62852  0.46359  0.19199  1.0000
  H   H1138     1.0  0.62317  0.49900  0.22207  1.0000
  H   H1139     1.0  0.61332  0.49857  0.15880  1.0000
  H   H1140     1.0  0.62405  0.45412  0.13694  1.0000
  H   H1141     1.0  0.63298  0.45398  0.20079  1.0000
  C   C1439     1.0  0.58756  0.39011  0.33741  1.0000
  C   C1440     1.0  0.59647  0.38181  0.31923  1.0000
  C   C1441     1.0  0.58832  0.36515  0.30600  1.0000
  C   C1442     1.0  0.57124  0.35683  0.31048  1.0000
  C   C1443     1.0  0.56239  0.36533  0.32794  1.0000
  C   C1444     1.0  0.57052  0.38179  0.34173  1.0000
  H   H1142     1.0  0.60963  0.38808  0.31603  1.0000
  H   H1143     1.0  0.59526  0.35868  0.29233  1.0000
  H   H1144     1.0  0.54928  0.35915  0.33118  1.0000
  H   H1145     1.0  0.56356  0.38809  0.35587  1.0000
  C   C1445     1.0  0.70123  0.43889  0.31909  1.0000
  C   C1446     1.0  0.71245  0.43121  0.30969  1.0000
  H   H1146     1.0  0.53716  0.54097  0.09120  1.0000
  C   C1447     1.0  0.70743  0.45579  0.33095  1.0000
  H   H1147     1.0  0.70782  0.41815  0.30052  1.0000
  H   H1148     1.0  0.69900  0.46188  0.33836  1.0000
  H   H1149     1.0  0.50787  0.44230  0.01166  1.0000
  C   C1448     1.0  0.53067  0.40593  0.25641  1.0000
  H   H1150     1.0  0.51562  0.46043  0.10641  1.0000
  C   C1449     1.0  0.68473  0.55329  0.08156  1.0000
  C   C1450     1.0  0.51258  0.53987  0.10200  1.0000
  C   C1451     1.0  0.54490  0.35998  0.14780  1.0000
  C   C1452     1.0  0.53851  0.34794  0.17476  1.0000
  C   C1453     1.0  0.54720  0.34937  0.20717  1.0000
  C   C1454     1.0  0.56214  0.36289  0.21283  1.0000
  C   C1455     1.0  0.56851  0.37525  0.18625  1.0000
  C   C1456     1.0  0.55978  0.37368  0.15358  1.0000
  P   P45       1.0  0.58787  0.39268  0.19422  1.0000
  C   C1457     1.0  0.58563  0.40758  0.22725  1.0000
  C   C1458     1.0  0.60278  0.38440  0.21118  1.0000
  C   C1459     1.0  0.60126  0.36772  0.20290  1.0000
  C   C1460     1.0  0.61271  0.36133  0.21649  1.0000
  C   C1461     1.0  0.62587  0.37157  0.23806  1.0000
  C   C1462     1.0  0.62762  0.38824  0.24597  1.0000
  C   C1463     1.0  0.61613  0.39463  0.23258  1.0000
  C   C1464     1.0  0.59704  0.42438  0.22821  1.0000
  C   C1465     1.0  0.59605  0.43571  0.25493  1.0000
  C   C1466     1.0  0.58373  0.43039  0.28103  1.0000
  C   C1467     1.0  0.57227  0.41378  0.28017  1.0000
  C   C1468     1.0  0.57318  0.40240  0.25346  1.0000
  C   C1469     1.0  0.59543  0.40350  0.15221  1.0000
  C   C1470     1.0  0.60595  0.39866  0.12992  1.0000
  C   C1471     1.0  0.61194  0.40731  0.09777  1.0000
  C   C1472     1.0  0.60744  0.42081  0.08765  1.0000
  C   C1473     1.0  0.59679  0.42553  0.10942  1.0000
  C   C1474     1.0  0.59073  0.41684  0.14140  1.0000
  H   H1151     1.0  0.53813  0.35878  0.12269  1.0000
  C   C1475     1.0  0.52411  0.53424  0.08603  1.0000
  H   H1152     1.0  0.54232  0.34004  0.22811  1.0000
  H   H1153     1.0  0.56875  0.36368  0.23801  1.0000
  H   H1154     1.0  0.56442  0.38290  0.13249  1.0000
  H   H1155     1.0  0.59118  0.35955  0.18621  1.0000
  H   H1156     1.0  0.61128  0.34835  0.21059  1.0000
  H   H1157     1.0  0.63466  0.36657  0.24883  1.0000
  H   H1158     1.0  0.63777  0.39617  0.26290  1.0000
  H   H1159     1.0  0.61764  0.40749  0.23931  1.0000
  H   H1160     1.0  0.60699  0.42862  0.20894  1.0000
  H   H1161     1.0  0.60512  0.44852  0.25611  1.0000
  H   H1162     1.0  0.58337  0.43900  0.30253  1.0000
  H   H1163     1.0  0.56305  0.40952  0.30113  1.0000
  H   H1164     1.0  0.56442  0.38953  0.25424  1.0000
  H   H1165     1.0  0.60963  0.38830  0.13739  1.0000
  H   H1166     1.0  0.62021  0.40365  0.08087  1.0000
  H   H1167     1.0  0.61233  0.42774  0.06315  1.0000
  H   H1168     1.0  0.59352  0.43620  0.10188  1.0000
  H   H1169     1.0  0.58256  0.42068  0.15797  1.0000
  C   C1476     1.0  0.66203  0.50084  0.16278  1.0000
  C   C1477     1.0  0.66422  0.48580  0.15414  1.0000
  C   C1478     1.0  0.66566  0.48156  0.11804  1.0000
  C   C1479     1.0  0.66467  0.49226  0.09043  1.0000
  C   C1480     1.0  0.66180  0.50708  0.09876  1.0000
  C   C1481     1.0  0.66103  0.51156  0.13523  1.0000
  P   P46       1.0  0.66140  0.52145  0.06347  1.0000
  C   C1482     1.0  0.68175  0.53768  0.06412  1.0000
  C   C1483     1.0  0.65654  0.51100  0.01977  1.0000
  H   H1170     1.0  0.65529  0.54940  0.02943  1.0000
  C   C1484     1.0  0.54751  0.38425  0.43548  1.0000
  H   H1171     1.0  0.56583  0.39947  0.05483  1.0000
  H   H1172     1.0  0.51666  0.55101  0.11943  1.0000
  C   C1485     1.0  0.64415  0.49480  0.01661  1.0000
  H   H1173     1.0  0.57338  0.33542  0.37297  1.0000
  C   C1486     1.0  0.67398  0.44496  0.23301  1.0000
  C   C1487     1.0  0.49695  0.32678  0.44702  1.0000
  Fe  Fe104     1.0  0.56668  0.47990  0.02258  1.0000
  C   C1488     1.0  0.69500  0.53431  0.04930  1.0000
  C   C1489     1.0  0.64577  0.53029  0.07049  1.0000
  C   C1490     1.0  0.64582  0.54396  0.04944  1.0000
  C   C1491     1.0  0.63330  0.55037  0.05333  1.0000
  C   C1492     1.0  0.62066  0.54319  0.07817  1.0000
  C   C1493     1.0  0.62042  0.52946  0.09887  1.0000
  C   C1494     1.0  0.63283  0.52292  0.09477  1.0000
  H   H1174     1.0  0.66081  0.50401  0.19088  1.0000
  H   H1175     1.0  0.66454  0.47731  0.17542  1.0000
  H   H1176     1.0  0.66734  0.46988  0.11145  1.0000
  H   H1177     1.0  0.66606  0.48885  0.06268  1.0000
  H   H1178     1.0  0.65942  0.52322  0.14242  1.0000
  S   S213      1.0  0.58631  0.46925  0.01620  1.0000
  H   H1179     1.0  0.52676  0.33757  0.17076  1.0000
  C   C1495     1.0  0.49708  0.40613  0.16011  1.0000
  H   H1180     1.0  0.56031  0.41592  0.10482  1.0000
  H   H1181     1.0  0.63763  0.48835  0.04029  1.0000
  C   C1496     1.0  0.48571  0.33535  0.17142  1.0000
  C   C1497     1.0  0.49053  0.51716  0.07179  1.0000
  C   C1498     1.0  0.52556  0.37519  0.06920  1.0000
  C   C1499     1.0  0.54576  0.43268  0.14644  1.0000
  H   H1182     1.0  0.69298  0.52217  0.03650  1.0000
  C   C1500     1.0  0.58138  0.57046  0.00946  1.0000
  C   C1501     1.0  0.50206  0.51187  0.05438  1.0000
  H   H1183     1.0  0.61078  0.54796  0.08055  1.0000
  H   H1184     1.0  0.61035  0.52358  0.11733  1.0000
  H   H1185     1.0  0.63200  0.51185  0.10980  1.0000
  H   H1186     1.0  0.58561  0.38114  0.41705  1.0000
  C   C1502     1.0  0.68960  0.43295  0.42544  1.0000
  H   H1187     1.0  0.63305  0.56061  0.03640  1.0000
  C   C1503     1.0  0.53487  0.37781  0.40994  1.0000
  C   C1504     1.0  0.53149  0.36182  0.39462  1.0000
  C   C1505     1.0  0.54079  0.35224  0.40451  1.0000
  C   C1506     1.0  0.54724  0.55332  0.01194  1.0000
  H   H1188     1.0  0.55016  0.39669  0.44702  1.0000
  H   H1189     1.0  0.52762  0.38514  0.40199  1.0000
  H   H1190     1.0  0.52159  0.35681  0.37502  1.0000
  H   H1191     1.0  0.53785  0.33985  0.39217  1.0000
  C   C1507     1.0  0.56483  0.32445  0.38657  1.0000
  C   C1508     1.0  0.51116  0.41906  0.99848  1.0000
  C   C1509     1.0  0.61470  0.35642  0.42634  1.0000
  H   H1192     1.0  0.70474  0.54443  0.15375  1.0000
  C   C1510     1.0  0.70895  0.49826  0.30786  1.0000
  H   H1193     1.0  0.71550  0.38016  0.40001  1.0000
  H   H1194     1.0  0.48791  0.41433  0.06074  1.0000
  H   H1195     1.0  0.53406  0.54672  0.01276  1.0000
  H   H1196     1.0  0.55661  0.47003  0.10173  1.0000
  Fe  Fe105     1.0  0.58983  0.51562  0.01599  1.0000
  S   S214      1.0  0.59011  0.54276  0.01433  1.0000
  H   H1197     1.0  0.58174  0.47651  0.13954  1.0000
  P   P47       1.0  0.71890  0.49538  0.23687  1.0000
  H   H1198     1.0  0.49448  0.36234  0.16388  1.0000
  H   H1199     1.0  0.59213  0.43961  0.43348  1.0000
  C   C1511     1.0  0.59804  0.34846  0.43512  1.0000
  H   H1200     1.0  0.72279  0.46287  0.41966  1.0000
  C   C1512     1.0  0.72764  0.51162  0.35737  1.0000
  H   H1201     1.0  0.65936  0.46046  0.23626  1.0000
  C   C1513     1.0  0.59252  0.44070  0.46279  1.0000
  C   C1514     1.0  0.51888  0.52018  0.06265  1.0000
  C   C1515     1.0  0.50996  0.41121  0.13486  1.0000
  C   C1516     1.0  0.55666  0.37461  0.44602  1.0000
  H   H1202     1.0  0.69617  0.49541  0.43874  1.0000
  C   C1517     1.0  0.56000  0.43651  0.16806  1.0000
  H   H1203     1.0  0.68840  0.43188  0.39617  1.0000
  H   H1204     1.0  0.68323  0.48737  0.23683  1.0000
  C   C1518     1.0  0.70064  0.42735  0.44345  1.0000
  H   H1205     1.0  0.71875  0.51378  0.47882  1.0000
  C   C1519     1.0  0.53303  0.44456  0.02000  1.0000
  H   H1206     1.0  0.70125  0.49996  0.36260  1.0000
  H   H1207     1.0  0.51567  0.36417  0.05824  1.0000
  C   C1520     1.0  0.70840  0.47824  0.42644  1.0000
  H   H1208     1.0  0.72111  0.54401  0.03901  1.0000
  C   C1521     1.0  0.54472  0.44491  0.12239  1.0000
  C   C1522     1.0  0.52960  0.40256  0.19083  1.0000
  Fe  Fe106     1.0  0.53329  0.32352  0.29891  1.0000
  H   H1209     1.0  0.49919  0.40328  0.18771  1.0000
  C   C1523     1.0  0.54120  0.38061  0.05369  1.0000
  C   C1524     1.0  0.70356  0.46003  0.23296  1.0000
  H   H1210     1.0  0.53182  0.41381  0.28027  1.0000
  S   S215      1.0  0.53974  0.46586  0.03253  1.0000
  S   S216      1.0  0.61216  0.50788  0.01016  1.0000
  C   C1525     1.0  0.50660  0.47443  0.06955  1.0000
  C   C1526     1.0  0.70666  0.50659  0.17686  1.0000
  H   H1211     1.0  0.70811  0.42201  0.42801  1.0000
  H   H1212     1.0  0.56132  0.42725  0.18640  1.0000
  C   C1527     1.0  0.52234  0.41084  0.99680  1.0000
  H   H1213     1.0  0.72413  0.53123  0.25069  1.0000
  H   H1214     1.0  0.51599  0.41727  0.07853  1.0000
  C   C1528     1.0  0.67169  0.46034  0.23457  1.0000
  H   H1215     1.0  0.63360  0.37937  0.40766  1.0000
  H   H1216     1.0  0.66347  0.43311  0.23364  1.0000
  S   S217      1.0  0.49049  0.61795  0.10029  1.0000
  C   C1529     1.0  0.57289  0.45229  0.16572  1.0000
  H   H1217     1.0  0.56621  0.37962  0.46641  1.0000
  C   C1530     1.0  0.53104  0.41270  0.22192  1.0000
  H   H1218     1.0  0.63249  0.44066  0.45962  1.0000
  H   H1219     1.0  0.69876  0.47058  0.40807  1.0000
  C   C1531     1.0  0.70343  0.51869  0.15615  1.0000
  C   C1532     1.0  0.61017  0.38204  0.41241  1.0000
  H   H1220     1.0  0.70347  0.49387  0.16603  1.0000
  C   C1533     1.0  0.52249  0.38422  0.09822  1.0000
  C   C1534     1.0  0.68990  0.44482  0.23205  1.0000
  C   C1535     1.0  0.72459  0.46490  0.33278  1.0000
  P   P48       1.0  0.56565  0.34645  0.44357  1.0000
  H   H1221     1.0  0.51009  0.65056  0.05575  1.0000
  C   C1536     1.0  0.60215  0.45602  0.47949  1.0000
  C   C1537     1.0  0.71407  0.51091  0.21122  1.0000
  H   H1222     1.0  0.52519  0.36555  0.23239  1.0000
  H   H1223     1.0  0.59345  0.33527  0.44278  1.0000
  C   C1538     1.0  0.68531  0.47559  0.23501  1.0000
  C   C1539     1.0  0.72114  0.37656  0.42305  1.0000
  H   H1224     1.0  0.53421  0.44236  0.10465  1.0000
  C   C1540     1.0  0.57074  0.57944  0.00788  1.0000
  H   H1225     1.0  0.54340  0.37372  0.03075  1.0000
  H   H1226     1.0  0.55664  0.44259  0.02793  1.0000
  C   C1541     1.0  0.71968  0.50262  0.46619  1.0000
  H   H1227     1.0  0.69645  0.49154  0.29866  1.0000
  H   H1228     1.0  0.69772  0.51528  0.12967  1.0000
  C   C1542     1.0  0.71095  0.54660  0.05088  1.0000
  C   C1543     1.0  0.53870  0.41929  0.00760  1.0000
  C   C1544     1.0  0.48213  0.61571  0.14503  1.0000
  H   H1229     1.0  0.51112  0.47099  0.99519  1.0000
  H   H1230     1.0  0.48771  0.44156  0.12557  1.0000
  C   C1545     1.0  0.54405  0.43616  0.01927  1.0000
  C   C1546     1.0  0.50647  0.41409  0.09894  1.0000
  Fe  Fe107     1.0  0.51485  0.58370  0.01312  1.0000
  C   C1547     1.0  0.68189  0.44186  0.48277  1.0000
  H   H1231     1.0  0.51022  0.37995  0.10951  1.0000
  H   H1232     1.0  0.69167  0.43287  0.23226  1.0000
  C   C1548     1.0  0.55062  0.40438  0.09578  1.0000
  P   P49       1.0  0.49546  0.49374  0.02408  1.0000
  H   H1233     1.0  0.58393  0.45514  0.18212  1.0000
  H   H1234     1.0  0.52828  0.38360  0.28678  1.0000
  C   C1549     1.0  0.72209  0.47390  0.43320  1.0000
  C   C1550     1.0  0.70070  0.56557  0.08307  1.0000
  H   H1235     1.0  0.57681  0.41481  0.47044  1.0000
  C   C1551     1.0  0.70740  0.53512  0.16971  1.0000
  C   C1552     1.0  0.68028  0.44025  0.44516  1.0000
  H   H1236     1.0  0.67197  0.44496  0.43125  1.0000
  C   C1553     1.0  0.50478  0.46178  0.09483  1.0000
  C   C1554     1.0  0.52704  0.37878  0.22939  1.0000
  H   H1237     1.0  0.72924  0.47797  0.34175  1.0000
  P   P50       1.0  0.53019  0.41149  0.14639  1.0000
  C   C1555     1.0  0.63832  0.44763  0.48378  1.0000
  C   C1556     1.0  0.57167  0.46437  0.14180  1.0000
  H   H1238     1.0  0.71569  0.45945  0.23343  1.0000
  H   H1239     1.0  0.72615  0.57181  0.06867  1.0000
  H   H1240     1.0  0.70360  0.37902  0.46134  1.0000
  H   H1241     1.0  0.52802  0.51595  0.05081  1.0000
  C   C1557     1.0  0.72169  0.37110  0.48711  1.0000
  C   C1558     1.0  0.49579  0.53118  0.09527  1.0000
  C   C1559     1.0  0.49271  0.47623  0.05387  1.0000
  C   C1560     1.0  0.71482  0.53954  0.20384  1.0000
  C   C1561     1.0  0.71826  0.52752  0.22446  1.0000
  C   C1562     1.0  0.65171  0.46298  0.48071  1.0000
  S   S218      1.0  0.54126  0.58394  0.00705  1.0000
  C   C1563     1.0  0.48801  0.64042  0.02346  1.0000
  H   H1242     1.0  0.60929  0.46676  0.46321  1.0000
  C   C1564     1.0  0.48726  0.35012  0.15222  1.0000
  C   C1565     1.0  0.71446  0.37592  0.45758  1.0000
  C   C1566     1.0  0.48963  0.33568  0.46847  1.0000
  H   H1243     1.0  0.72972  0.51510  0.38577  1.0000
  C   C1567     1.0  0.56258  0.34309  0.49167  1.0000
  H   H1244     1.0  0.58383  0.41902  0.99954  1.0000
  H   H1245     1.0  0.48681  0.53550  0.10764  1.0000
  C   C1568     1.0  0.51554  0.65175  0.99863  1.0000
  H   H1246     1.0  0.53772  0.34296  0.49034  1.0000
  H   H1247     1.0  0.71794  0.55230  0.21435  1.0000
  H   H1248     1.0  0.54726  0.41286  0.00652  1.0000
  H   H1249     1.0  0.59455  0.57736  0.00850  1.0000
  C   C1569     1.0  0.58386  0.42666  0.48385  1.0000
  H   H1250     1.0  0.57593  0.59308  0.00576  1.0000
  C   C1570     1.0  0.72962  0.44037  0.31139  1.0000
  H   H1251     1.0  0.48219  0.59088  0.15469  1.0000
  H   H1252     1.0  0.72930  0.33625  0.41559  1.0000
  C   C1571     1.0  0.50504  0.64812  0.02850  1.0000
  C   C1572     1.0  0.48905  0.45107  0.10532  1.0000
  Fe  Fe108     1.0  0.66156  0.44030  0.70236  1.0000
  S   S219      1.0  0.65973  0.46451  0.68228  1.0000
  S   S220      1.0  0.68287  0.43133  0.69263  1.0000
  Fe  Fe109     1.0  0.62427  0.42452  0.71708  1.0000
  S   S221      1.0  0.62032  0.44739  0.69659  1.0000
  S   S222      1.0  0.60145  0.40423  0.73921  1.0000
  Fe  Fe110     1.0  0.63743  0.44740  0.65095  1.0000
  S   S223      1.0  0.62863  0.44385  0.59173  1.0000
  Fe  Fe111     1.0  0.64252  0.46188  0.73047  1.0000
  S   S224      1.0  0.63996  0.48253  0.76826  1.0000
  S   S225      1.0  0.63968  0.42347  0.66997  1.0000
  S   S226      1.0  0.64609  0.43887  0.75227  1.0000
  S   S227      1.0  0.52480  0.33938  0.66090  1.0000
  C   C1573     1.0  0.49027  0.33534  0.50635  1.0000
  C   C1574     1.0  0.51499  0.64420  0.85170  1.0000
  S   S228      1.0  0.60388  0.47457  0.92284  1.0000
  H   H1253     1.0  0.49372  0.33228  0.92689  1.0000
  H   H1254     1.0  0.48661  0.63587  0.93208  1.0000
  H   H1255     1.0  0.68589  0.38769  0.63611  1.0000
  C   C1575     1.0  0.49852  0.49660  0.89529  1.0000
  H   H1256     1.0  0.61293  0.36724  0.54468  1.0000
  C   C1576     1.0  0.53787  0.50184  0.94388  1.0000
  C   C1577     1.0  0.50613  0.45340  0.75487  1.0000
  C   C1578     1.0  0.65915  0.47178  0.51257  1.0000
  C   C1579     1.0  0.53395  0.38105  0.70795  1.0000
  H   H1257     1.0  0.53836  0.52725  0.93933  1.0000
  C   C1580     1.0  0.49312  0.34132  0.79154  1.0000
  H   H1258     1.0  0.53214  0.43215  0.76267  1.0000
  C   C1581     1.0  0.57553  0.45490  0.81218  1.0000
  H   H1259     1.0  0.50147  0.44725  0.93984  1.0000
  H   H1260     1.0  0.54352  0.35268  0.78656  1.0000
  H   H1261     1.0  0.55106  0.41971  0.58848  1.0000
  C   C1582     1.0  0.58513  0.38374  0.57421  1.0000
  C   C1583     1.0  0.69245  0.38032  0.62433  1.0000
  C   C1584     1.0  0.71656  0.37253  0.62354  1.0000
  H   H1262     1.0  0.49957  0.45759  0.73455  1.0000
  C   C1585     1.0  0.55025  0.37615  0.81664  1.0000
  Fe  Fe112     1.0  0.48847  0.37925  0.97982  1.0000
  C   C1586     1.0  0.51232  0.65198  0.88353  1.0000
  C   C1587     1.0  0.63898  0.45074  0.54998  1.0000
  C   C1588     1.0  0.63200  0.44163  0.51817  1.0000
  P   P51       1.0  0.57491  0.40916  0.54877  1.0000
  H   H1263     1.0  0.53838  0.37692  0.81187  1.0000
  C   C1589     1.0  0.65291  0.46565  0.54706  1.0000
  H   H1264     1.0  0.62127  0.43011  0.52010  1.0000
  H   H1265     1.0  0.65846  0.47281  0.57124  1.0000
  C   C1590     1.0  0.62993  0.48008  0.81134  1.0000
  C   C1591     1.0  0.62790  0.49416  0.82807  1.0000
  C   C1592     1.0  0.62002  0.49279  0.86201  1.0000
  C   C1593     1.0  0.61401  0.47726  0.87987  1.0000
  C   C1594     1.0  0.61615  0.46322  0.86326  1.0000
  C   C1595     1.0  0.62403  0.46460  0.82937  1.0000
  H   H1266     1.0  0.63248  0.50624  0.81462  1.0000
  H   H1267     1.0  0.61862  0.50377  0.87430  1.0000
  H   H1268     1.0  0.61184  0.45118  0.87678  1.0000
  H   H1269     1.0  0.62556  0.45366  0.81722  1.0000
  C   C1596     1.0  0.59196  0.38499  0.71546  1.0000
  C   C1597     1.0  0.60064  0.37874  0.69117  1.0000
  C   C1598     1.0  0.59281  0.36270  0.67484  1.0000
  C   C1599     1.0  0.57618  0.35310  0.68196  1.0000
  C   C1600     1.0  0.56746  0.35956  0.70562  1.0000
  C   C1601     1.0  0.57538  0.37541  0.72244  1.0000
  H   H1270     1.0  0.61350  0.38601  0.68597  1.0000
  H   H1271     1.0  0.59970  0.35763  0.65707  1.0000
  H   H1272     1.0  0.55469  0.35223  0.71154  1.0000
  H   H1273     1.0  0.56868  0.38031  0.74103  1.0000
  C   C1602     1.0  0.70423  0.44316  0.69862  1.0000
  C   C1603     1.0  0.71561  0.43623  0.68619  1.0000
  H   H1274     1.0  0.55377  0.33236  0.59341  1.0000
  C   C1604     1.0  0.71008  0.45894  0.71617  1.0000
  H   H1275     1.0  0.71122  0.42410  0.67231  1.0000
  C   C1605     1.0  0.49958  0.48062  0.89303  1.0000
  H   H1276     1.0  0.70146  0.46441  0.72583  1.0000
  H   H1277     1.0  0.50793  0.52222  0.87605  1.0000
  C   C1606     1.0  0.57138  0.33666  0.55033  1.0000
  C   C1607     1.0  0.53217  0.33453  0.87190  1.0000
  H   H1278     1.0  0.64366  0.48947  0.92510  1.0000
  C   C1608     1.0  0.54532  0.47023  0.88425  1.0000
  C   C1609     1.0  0.58639  0.39525  0.54629  1.0000
  H   H1279     1.0  0.49096  0.34838  0.63434  1.0000
  P   P52       1.0  0.55952  0.40724  0.85422  1.0000
  C   C1610     1.0  0.56266  0.38876  0.83648  1.0000
  C   C1611     1.0  0.57001  0.42549  0.82672  1.0000
  C   C1612     1.0  0.58178  0.42528  0.80115  1.0000
  C   C1613     1.0  0.53154  0.34900  0.88891  1.0000
  C   C1614     1.0  0.57794  0.38716  0.84163  1.0000
  C   C1615     1.0  0.58082  0.37333  0.82674  1.0000
  C   C1616     1.0  0.56841  0.36087  0.80711  1.0000
  C   C1617     1.0  0.55310  0.36223  0.80227  1.0000
  C   C1618     1.0  0.56760  0.41109  0.90008  1.0000
  C   C1619     1.0  0.56261  0.39792  0.92525  1.0000
  C   C1620     1.0  0.56839  0.40074  0.96098  1.0000
  H   H1280     1.0  0.58624  0.34127  0.50280  1.0000
  C   C1621     1.0  0.58472  0.42981  0.94686  1.0000
  C   C1622     1.0  0.57886  0.42706  0.91115  1.0000
  H   H1281     1.0  0.58465  0.41411  0.79666  1.0000
  H   H1282     1.0  0.53480  0.47604  0.95522  1.0000
  H   H1283     1.0  0.58782  0.39690  0.85611  1.0000
  H   H1284     1.0  0.59287  0.37254  0.82952  1.0000
  H   H1285     1.0  0.57081  0.35040  0.79473  1.0000
  H   H1286     1.0  0.55390  0.38556  0.91755  1.0000
  C   C1623     1.0  0.51891  0.51217  0.97444  1.0000
  C   C1624     1.0  0.65954  0.51164  0.95430  1.0000
  C   C1625     1.0  0.69373  0.35908  0.58172  1.0000
  H   H1287     1.0  0.58317  0.43752  0.89262  1.0000
  C   C1626     1.0  0.54737  0.34152  0.50687  1.0000
  H   H1288     1.0  0.50455  0.39475  0.90837  1.0000
  H   H1289     1.0  0.52982  0.43843  0.82716  1.0000
  S   S229      1.0  0.49339  0.56777  0.97792  1.0000
  C   C1627     1.0  0.70800  0.38226  0.63783  1.0000
  H   H1290     1.0  0.59335  0.44218  0.95524  1.0000
  C   C1628     1.0  0.57387  0.41547  0.59533  1.0000
  H   H1291     1.0  0.67309  0.53226  0.98972  1.0000
  P   P53       1.0  0.48762  0.37692  0.67553  1.0000
  C   C1629     1.0  0.50679  0.64502  0.81962  1.0000
  C   C1630     1.0  0.72713  0.46742  0.72229  1.0000
  H   H1292     1.0  0.70527  0.49850  0.54050  1.0000
  C   C1631     1.0  0.56052  0.41956  0.60724  1.0000
  C   C1632     1.0  0.55921  0.42338  0.64379  1.0000
  C   C1633     1.0  0.57107  0.42291  0.66872  1.0000
  C   C1634     1.0  0.58443  0.41906  0.65691  1.0000
  H   H1293     1.0  0.57696  0.38261  0.59687  1.0000
  H   H1294     1.0  0.54888  0.42644  0.65291  1.0000
  H   H1295     1.0  0.57002  0.42552  0.69721  1.0000
  H   H1296     1.0  0.52343  0.35903  0.53226  1.0000
  H   H1297     1.0  0.57355  0.46656  0.81728  1.0000
  C   C1635     1.0  0.70030  0.47180  0.54443  1.0000
  Fe  Fe113     1.0  0.50981  0.32567  0.70861  1.0000
  C   C1636     1.0  0.69917  0.48975  0.59494  1.0000
  C   C1637     1.0  0.51593  0.44436  0.74449  1.0000
  H   H1298     1.0  0.49846  0.41248  0.99031  1.0000
  H   H1299     1.0  0.55238  0.37358  0.55146  1.0000
  C   C1638     1.0  0.53019  0.45659  0.88785  1.0000
  H   H1300     1.0  0.59987  0.43965  0.76271  1.0000
  S   S230      1.0  0.50805  0.34171  0.75820  1.0000
  H   H1301     1.0  0.66521  0.51823  0.92996  1.0000
  C   C1639     1.0  0.55632  0.33540  0.56519  1.0000
  C   C1640     1.0  0.57942  0.41672  0.97182  1.0000
  H   H1302     1.0  0.50705  0.39966  0.79275  1.0000
  C   C1641     1.0  0.52972  0.44231  0.90729  1.0000
  C   C1642     1.0  0.54395  0.44204  0.92410  1.0000
  C   C1643     1.0  0.55875  0.45590  0.92158  1.0000
  H   H1303     1.0  0.51326  0.59071  0.90366  1.0000
  H   H1304     1.0  0.52323  0.63736  0.85155  1.0000
  C   C1644     1.0  0.51070  0.47763  0.86900  1.0000
  C   C1645     1.0  0.52067  0.49093  0.84727  1.0000
  C   C1646     1.0  0.51969  0.50695  0.84988  1.0000
  C   C1647     1.0  0.50861  0.50978  0.87386  1.0000
  H   H1305     1.0  0.67320  0.36727  0.58605  1.0000
  C   C1648     1.0  0.52321  0.44276  0.80729  1.0000
  C   C1649     1.0  0.60539  0.37488  0.54487  1.0000
  H   H1306     1.0  0.56413  0.39059  0.98032  1.0000
  H   H1307     1.0  0.57121  0.48038  0.89847  1.0000
  H   H1308     1.0  0.55788  0.44081  0.85155  1.0000
  C   C1650     1.0  0.59455  0.44324  0.53838  1.0000
  H   H1309     1.0  0.70082  0.40602  0.55052  1.0000
  H   H1310     1.0  0.59606  0.44441  0.56751  1.0000
  C   C1651     1.0  0.49349  0.44133  0.88396  1.0000
  H   H1311     1.0  0.49147  0.35984  0.87377  1.0000
  C   C1652     1.0  0.71131  0.41603  0.56256  1.0000
  H   H1312     1.0  0.51846  0.43131  0.90958  1.0000
  H   H1313     1.0  0.54353  0.43106  0.93914  1.0000
  H   H1314     1.0  0.56967  0.45577  0.93529  1.0000
  H   H1315     1.0  0.55842  0.61960  0.95865  1.0000
  C   C1653     1.0  0.65959  0.41944  0.55427  1.0000
  H   H1316     1.0  0.52919  0.48896  0.82820  1.0000
  C   C1654     1.0  0.52446  0.43906  0.77069  1.0000
  H   H1317     1.0  0.68940  0.44929  0.62242  1.0000
  H   H1318     1.0  0.71368  0.34181  0.66229  1.0000
  H   H1319     1.0  0.63329  0.40769  0.55979  1.0000
  C   C1655     1.0  0.51771  0.34807  0.90899  1.0000
  C   C1656     1.0  0.54327  0.63355  0.94307  1.0000
  Fe  Fe114     1.0  0.59638  0.48778  0.97105  1.0000
  H   H1320     1.0  0.48784  0.59144  0.86442  1.0000
  C   C1657     1.0  0.51306  0.40016  0.81861  1.0000
  H   H1321     1.0  0.68732  0.41682  0.61665  1.0000
  C   C1658     1.0  0.54221  0.38250  0.67508  1.0000
  C   C1659     1.0  0.68532  0.36880  0.59622  1.0000
  P   P54       1.0  0.69376  0.43707  0.55050  1.0000
  H   H1322     1.0  0.55505  0.38391  0.67472  1.0000
  C   C1660     1.0  0.64739  0.49542  0.95149  1.0000
  H   H1323     1.0  0.53696  0.40589  0.79512  1.0000
  S   S231      1.0  0.49861  0.32721  0.57257  1.0000
  H   H1324     1.0  0.49726  0.46419  0.79908  1.0000
  H   H1325     1.0  0.59415  0.36549  0.59612  1.0000
  S   S232      1.0  0.56654  0.33301  0.66143  1.0000
  C   C1661     1.0  0.72585  0.32434  0.65373  1.0000
  C   C1662     1.0  0.50885  0.37852  0.67569  1.0000
  H   H1326     1.0  0.53971  0.59256  0.93178  1.0000
  C   C1663     1.0  0.58617  0.41594  0.62030  1.0000
  H   H1327     1.0  0.53405  0.40081  0.91138  1.0000
  C   C1664     1.0  0.53380  0.38166  0.64250  1.0000
  P   P55       1.0  0.52261  0.65082  0.92535  1.0000
  C   C1665     1.0  0.52852  0.40070  0.88518  1.0000
  H   H1328     1.0  0.50597  0.61606  0.90124  1.0000
  C   C1666     1.0  0.58740  0.45463  0.78714  1.0000
  C   C1667     1.0  0.53785  0.40385  0.85336  1.0000
  H   H1329     1.0  0.51136  0.35882  0.82687  1.0000
  C   C1668     1.0  0.53668  0.60378  0.92980  1.0000
  H   H1330     1.0  0.50526  0.42776  0.59879  1.0000
  H   H1331     1.0  0.52754  0.51721  0.83334  1.0000
  H   H1332     1.0  0.54032  0.38101  0.73313  1.0000
  H   H1333     1.0  0.58058  0.33464  0.56741  1.0000
  H   H1334     1.0  0.51478  0.52247  0.98018  1.0000
  C   C1669     1.0  0.55403  0.39821  0.53287  1.0000
  C   C1670     1.0  0.54432  0.33774  0.54348  1.0000
  H   H1335     1.0  0.54849  0.50412  0.92672  1.0000
  H   H1336     1.0  0.51711  0.35935  0.92194  1.0000
  C   C1671     1.0  0.69551  0.45769  0.56721  1.0000
  C   C1672     1.0  0.64515  0.40877  0.57074  1.0000
  H   H1337     1.0  0.66183  0.39783  0.64482  1.0000
  H   H1338     1.0  0.66961  0.48359  0.51057  1.0000
  C   C1673     1.0  0.53001  0.40369  0.82005  1.0000
  H   H1339     1.0  0.54011  0.38228  0.61708  1.0000
  H   H1340     1.0  0.63473  0.39266  0.61600  1.0000
  C   C1674     1.0  0.49743  0.40565  0.63243  1.0000
  C   C1675     1.0  0.66125  0.40321  0.61862  1.0000
  C   C1676     1.0  0.56676  0.44034  0.83167  1.0000
  C   C1677     1.0  0.54604  0.38077  0.53849  1.0000
  C   C1678     1.0  0.64597  0.40043  0.60257  1.0000
  H   H1341     1.0  0.59468  0.46605  0.77291  1.0000
  C   C1679     1.0  0.69478  0.47585  0.61787  1.0000
  C   C1680     1.0  0.69283  0.45987  0.60408  1.0000
  C   C1681     1.0  0.51718  0.37962  0.64273  1.0000
  C   C1682     1.0  0.50387  0.39699  0.85047  1.0000
  C   C1683     1.0  0.49563  0.41562  0.60410  1.0000
  H   H1342     1.0  0.49070  0.39396  0.84965  1.0000
  H   H1343     1.0  0.54626  0.48121  0.86871  1.0000
  C   C1684     1.0  0.67573  0.41404  0.60244  1.0000
  C   C1685     1.0  0.51732  0.37907  0.70833  1.0000
  C   C1686     1.0  0.49190  0.63995  0.95869  1.0000
  H   H1344     1.0  0.71552  0.35313  0.58408  1.0000
  H   H1345     1.0  0.51112  0.37759  0.73409  1.0000
  S   S233      1.0  0.57500  0.49662  0.97436  1.0000
  H   H1346     1.0  0.72507  0.39996  0.56999  1.0000
  C   C1687     1.0  0.49842  0.35142  0.82301  1.0000
  H   H1347     1.0  0.51081  0.37873  0.61714  1.0000
  H   H1348     1.0  0.49000  0.49884  0.91409  1.0000
  C   C1688     1.0  0.54523  0.40725  0.51698  1.0000
  C   C1689     1.0  0.60305  0.45731  0.51724  1.0000
  C   C1690     1.0  0.63967  0.48703  0.98261  1.0000
  C   C1691     1.0  0.72483  0.34036  0.65302  1.0000
  C   C1692     1.0  0.50492  0.45720  0.79145  1.0000
  C   C1693     1.0  0.51352  0.45198  0.81793  1.0000
  C   C1694     1.0  0.52860  0.63270  0.92602  1.0000
  H   H1349     1.0  0.50837  0.63850  0.79536  1.0000
  C   C1695     1.0  0.50443  0.33263  0.91190  1.0000
  C   C1696     1.0  0.55953  0.46984  0.90107  1.0000
  H   H1350     1.0  0.48490  0.40902  0.70011  1.0000
  C   C1697     1.0  0.49610  0.65379  0.81890  1.0000
  H   H1351     1.0  0.71306  0.39129  0.65961  1.0000
  C   C1698     1.0  0.59040  0.43978  0.78147  1.0000
  H   H1352     1.0  0.51699  0.44156  0.71613  1.0000
  H   H1353     1.0  0.53258  0.33646  0.55514  1.0000
  P   P56       1.0  0.51192  0.45687  0.86517  1.0000
  H   H1354     1.0  0.61098  0.46901  0.53021  1.0000
  H   H1355     1.0  0.54285  0.33530  0.85611  1.0000
  C   C1699     1.0  0.59488  0.37393  0.57387  1.0000
  H   H1356     1.0  0.70282  0.47062  0.51609  1.0000
  C   C1700     1.0  0.57453  0.34045  0.51366  1.0000
  C   C1701     1.0  0.53010  0.48601  0.95964  1.0000
  H   H1357     1.0  0.69285  0.47741  0.64646  1.0000
  C   C1702     1.0  0.54731  0.61912  0.94475  1.0000
  H   H1358     1.0  0.50852  0.41023  0.64892  1.0000
  C   C1703     1.0  0.70193  0.48772  0.55824  1.0000
  C   C1704     1.0  0.49160  0.43981  0.92171  1.0000
  H   H1359     1.0  0.70042  0.50207  0.60569  1.0000
  C   C1705     1.0  0.52183  0.60275  0.91387  1.0000
  C   C1706     1.0  0.70927  0.36092  0.59532  1.0000
  C   C1707     1.0  0.58497  0.42776  0.52184  1.0000
  C   C1708     1.0  0.51678  0.48325  0.98286  1.0000
  C   C1709     1.0  0.51775  0.61712  0.91234  1.0000
  H   H1360     1.0  0.59353  0.41846  0.67614  1.0000
  C   C1710     1.0  0.53218  0.51488  0.95104  1.0000
  C   C1711     1.0  0.71120  0.43241  0.56666  1.0000
  H   H1361     1.0  0.54172  0.36092  0.88613  1.0000
  H   H1362     1.0  0.59707  0.41375  0.61179  1.0000
  C   C1712     1.0  0.69258  0.43580  0.50137  1.0000
  C   C1713     1.0  0.51164  0.39732  0.88365  1.0000
  H   H1363     1.0  0.65842  0.42613  0.53050  1.0000
  H   H1364     1.0  0.68809  0.34993  0.56031  1.0000
  C   C1714     1.0  0.67509  0.42195  0.56959  1.0000
  C   C1715     1.0  0.52104  0.38145  0.51128  1.0000
  H   H1365     1.0  0.48441  0.34232  0.52203  1.0000
  C   C1716     1.0  0.48714  0.35198  0.84984  1.0000
  H   H1366     1.0  0.48712  0.59915  0.79991  1.0000
  C   C1717     1.0  0.72503  0.41254  0.57361  1.0000
  C   C1718     1.0  0.51144  0.49647  0.99127  1.0000
  C   C1719     1.0  0.52882  0.39886  0.50606  1.0000
  C   C1720     1.0  0.50901  0.64802  0.96341  1.0000
  C   C1721     1.0  0.66404  0.51948  0.98827  1.0000
  C   C1722     1.0  0.48184  0.40027  0.72237  1.0000
  Fe  Fe115     1.0  0.48585  0.59052  0.97510  1.0000
  H   H1367     1.0  0.50837  0.37485  0.50258  1.0000
  C   C1723     1.0  0.52961  0.37247  0.52776  1.0000
  H   H1368     1.0  0.55138  0.64515  0.95590  1.0000
  H   H1369     1.0  0.67484  0.44796  0.49726  1.0000
  S   S234      1.0  0.51601  0.39016  0.98041  1.0000
  C   C1724     1.0  0.48502  0.38983  0.63929  1.0000
  C   C1725     1.0  0.72470  0.44499  0.58355  1.0000
  H   H1370     1.0  0.72471  0.45753  0.58843  1.0000
  H   H1371     1.0  0.49170  0.47079  0.91027  1.0000
  H   H1372     1.0  0.48129  0.43274  0.83218  1.0000
  C   C1726     1.0  0.49828  0.32610  0.52414  1.0000
  H   H1373     1.0  0.71633  0.37035  0.51372  1.0000
  H   H1374     1.0  0.62985  0.47469  0.98019  1.0000
  H   H1375     1.0  0.55101  0.42079  0.51312  1.0000
  C   C1727     1.0  0.60611  0.38561  0.51607  1.0000
  C   C1728     1.0  0.59670  0.39579  0.51676  1.0000
  H   H1376     1.0  0.48946  0.65401  0.79415  1.0000
  C   C1729     1.0  0.48260  0.38413  0.71857  1.0000
  C   C1730     1.0  0.48145  0.63623  0.98859  1.0000
  C   C1731     1.0  0.48143  0.40989  0.58248  1.0000
  Fe  Fe116     1.0  0.53879  0.32227  0.66673  1.0000
  H   H1377     1.0  0.71079  0.42431  0.49423  1.0000
  H   H1378     1.0  0.61423  0.38635  0.49350  1.0000
  H   H1379     1.0  0.59788  0.40428  0.49451  1.0000
  H   H1380     1.0  0.52213  0.40583  0.49341  1.0000
  C   C1732     1.0  0.49209  0.80703  0.45359  1.0000
  C   C1733     1.0  0.48407  0.85829  0.11188  1.0000
  Fe  Fe117     1.0  0.49587  0.88385  0.02154  1.0000
  C   C1734     1.0  0.49849  0.76789  0.36034  1.0000
  H   H1381     1.0  0.49604  0.91978  0.10632  1.0000
  C   C1735     1.0  0.55425  0.97951  0.01451  1.0000
  H   H1382     1.0  0.48932  0.75753  0.34572  1.0000
  C   C1736     1.0  0.52568  0.72478  0.40602  1.0000
  H   H1383     1.0  0.50304  0.78473  0.31505  1.0000
  C   C1737     1.0  0.51440  0.77961  0.41472  1.0000
  C   C1738     1.0  0.49397  0.71908  0.38012  1.0000
  H   H1384     1.0  0.53805  0.72709  0.41575  1.0000
  C   C1739     1.0  0.51084  0.94329  0.08135  1.0000
  C   C1740     1.0  0.50210  0.70847  0.36919  1.0000
  H   H1385     1.0  0.49612  0.69813  0.35027  1.0000
  C   C1741     1.0  0.52229  0.79492  0.39694  1.0000
  C   C1742     1.0  0.49277  0.74864  0.46800  1.0000
  H   H1386     1.0  0.52389  0.80880  0.34769  1.0000
  C   C1743     1.0  0.50212  0.76612  0.39679  1.0000
  C   C1744     1.0  0.48483  0.84263  0.10213  1.0000
  S   S235      1.0  0.48988  0.87603  0.08169  1.0000
  C   C1745     1.0  0.58971  0.96577  0.04974  1.0000
  C   C1746     1.0  0.60228  0.98179  0.04806  1.0000
  H   H1387     1.0  0.52240  0.94292  0.09115  1.0000
  C   C1747     1.0  0.51756  0.73541  0.41704  1.0000
  H   H1388     1.0  0.48880  0.84086  0.07523  1.0000
  C   C1748     1.0  0.49056  0.76243  0.48511  1.0000
  P   P57       1.0  0.49673  0.97383  0.01538  1.0000
  H   H1389     1.0  0.50387  0.81154  0.44009  1.0000
  S   S236      1.0  0.50080  0.91157  0.01202  1.0000
  H   H1390     1.0  0.54045  0.95278  0.02386  1.0000
  C   C1749     1.0  0.50151  0.73246  0.40463  1.0000
  C   C1750     1.0  0.51813  0.79679  0.36112  1.0000
  H   H1391     1.0  0.52243  0.96635  0.05224  1.0000
  C   C1751     1.0  0.51083  0.95646  0.05903  1.0000
  C   C1752     1.0  0.51792  0.71126  0.38221  1.0000
  H   H1392     1.0  0.52379  0.74594  0.43522  1.0000
  H   H1393     1.0  0.48196  0.81752  0.11973  1.0000
  C   C1753     1.0  0.50635  0.78323  0.34273  1.0000
  C   C1754     1.0  0.49600  0.93032  0.09010  1.0000
  H   H1394     1.0  0.52420  0.70304  0.37351  1.0000
  H   H1395     1.0  0.53141  0.80548  0.41112  1.0000
  H   H1396     1.0  0.58475  0.96051  0.07566  1.0000
  H   H1397     1.0  0.51781  0.77846  0.44243  1.0000
  C   C1755     1.0  0.54691  0.96218  0.00414  1.0000
  C   C1756     1.0  0.49599  0.95677  0.04510  1.0000
  P   P58       1.0  0.49133  0.74641  0.41939  1.0000
  H   H1398     1.0  0.48158  0.68428  0.45052  1.0000
  H   H1399     1.0  0.49588  0.72484  0.47679  1.0000
  H   H1400     1.0  0.57336  0.94436  0.01902  1.0000
  H   H1401     1.0  0.55308  0.98323  0.04213  1.0000
  H   H1402     1.0  0.48189  0.71681  0.36904  1.0000
  H   H1403     1.0  0.48817  0.77195  0.46930  1.0000
  C   C1757     1.0  0.58338  0.95660  0.01793  1.0000
  H   H1404     1.0  0.52874  0.65696  0.00313  1.0000
  C   C1758     1.0  0.49487  0.73598  0.48924  1.0000
  C   C1759     1.0  0.48108  0.94389  0.05480  1.0000
  H   H1405     1.0  0.60716  0.98866  0.07297  1.0000
  C   C1760     1.0  0.49166  0.80630  0.49148  1.0000
  C   C1761     1.0  0.48113  0.93066  0.07691  1.0000
  Fe  Fe118     1.0  0.49389  0.87627  0.93756  1.0000
  S   S237      1.0  0.49869  0.90343  0.92377  1.0000
  C   C1762     1.0  0.50768  0.95667  0.96266  1.0000
  C   C1763     1.0  0.52812  0.84580  0.80465  1.0000
  C   C1764     1.0  0.51188  0.79611  0.67635  1.0000
  C   C1765     1.0  0.48854  0.76637  0.75414  1.0000
  H   H1406     1.0  0.60709  0.98427  0.95644  1.0000
  H   H1407     1.0  0.57787  0.71304  0.93310  1.0000
  H   H1408     1.0  0.52821  0.68318  0.96298  1.0000
  C   C1766     1.0  0.48715  0.85367  0.78747  1.0000
  P   P59       1.0  0.51042  0.80015  0.75097  1.0000
  H   H1409     1.0  0.51576  0.78055  0.81051  1.0000
  S   S238      1.0  0.48330  0.85289  0.89876  1.0000
  H   H1410     1.0  0.51164  0.79219  0.61846  1.0000
  H   H1411     1.0  0.54173  0.80453  0.71457  1.0000
  H   H1412     1.0  0.53321  0.83548  0.75490  1.0000
  C   C1767     1.0  0.55295  0.69947  0.95051  1.0000
  H   H1413     1.0  0.53748  0.85824  0.80043  1.0000
  H   H1414     1.0  0.49449  0.75290  0.57303  1.0000
  H   H1415     1.0  0.48550  0.92997  0.90391  1.0000
  C   C1768     1.0  0.50934  0.81584  0.63210  1.0000
  C   C1769     1.0  0.51122  0.80065  0.64023  1.0000
  C   C1770     1.0  0.52554  0.83294  0.77874  1.0000
  C   C1771     1.0  0.51094  0.80689  0.70462  1.0000
  H   H1416     1.0  0.48557  0.91473  0.84643  1.0000
  H   H1417     1.0  0.55513  0.66216  0.89225  1.0000
  C   C1772     1.0  0.56475  0.98679  0.95424  1.0000
  H   H1418     1.0  0.53830  0.77069  0.82498  1.0000
  C   C1773     1.0  0.49570  0.73761  0.52695  1.0000
  C   C1774     1.0  0.56733  0.70121  0.93167  1.0000
  C   C1775     1.0  0.51861  0.84267  0.83601  1.0000
  C   C1776     1.0  0.50840  0.98446  0.94647  1.0000
  C   C1777     1.0  0.49400  0.75166  0.54378  1.0000
  H   H1419     1.0  0.55941  0.96561  0.91685  1.0000
  C   C1778     1.0  0.54874  0.95689  0.96891  1.0000
  C   C1779     1.0  0.53889  0.77788  0.80064  1.0000
  C   C1780     1.0  0.50819  0.82652  0.66006  1.0000
  H   H1420     1.0  0.49700  0.87160  0.83180  1.0000
  C   C1781     1.0  0.49376  0.66199  0.85016  1.0000
  C   C1782     1.0  0.55772  0.96941  0.94410  1.0000
  H   H1421     1.0  0.50483  0.94629  0.98136  1.0000
  C   C1783     1.0  0.53934  0.68420  0.94873  1.0000
  H   H1422     1.0  0.58476  0.95618  0.95987  1.0000
  Fe  Fe119     1.0  0.51822  0.91128  0.96797  1.0000
  C   C1784     1.0  0.50897  0.82207  0.69616  1.0000
  C   C1785     1.0  0.52674  0.79265  0.76069  1.0000
  C   C1786     1.0  0.50195  0.66122  0.88230  1.0000
  H   H1423     1.0  0.51276  0.78403  0.68225  1.0000
  C   C1787     1.0  0.58980  0.96332  0.98447  1.0000
  H   H1424     1.0  0.49795  0.71705  0.63469  1.0000
  C   C1788     1.0  0.54061  0.79683  0.73828  1.0000
  S   S239      1.0  0.54185  0.93481  0.95586  1.0000
  C   C1789     1.0  0.48876  0.85897  0.82426  1.0000
  C   C1790     1.0  0.50386  0.81380  0.81564  1.0000
  H   H1425     1.0  0.50619  0.83803  0.65383  1.0000
  C   C1791     1.0  0.54014  0.67046  0.92850  1.0000
  C   C1792     1.0  0.55338  0.79127  0.74671  1.0000
  H   H1426     1.0  0.57914  0.68912  0.89584  1.0000
  H   H1427     1.0  0.49413  0.86244  0.76712  1.0000
  H   H1428     1.0  0.52040  0.85268  0.85592  1.0000
  H   H1429     1.0  0.49927  0.82430  0.86606  1.0000
  C   C1793     1.0  0.50492  0.97144  0.97184  1.0000
  H   H1430     1.0  0.50829  0.81910  0.60413  1.0000
  C   C1794     1.0  0.51849  0.96854  0.90454  1.0000
  C   C1795     1.0  0.51303  0.81698  0.78351  1.0000
  H   H1431     1.0  0.56241  0.77751  0.78435  1.0000
  C   C1796     1.0  0.52611  0.78342  0.79228  1.0000
  C   C1797     1.0  0.50662  0.82664  0.84165  1.0000
  C   C1798     1.0  0.56806  0.68772  0.91075  1.0000
  C   C1799     1.0  0.49094  0.69058  0.62219  1.0000
  H   H1432     1.0  0.52418  0.96755  0.87905  1.0000
  H   H1433     1.0  0.50749  0.83029  0.71723  1.0000
  C   C1800     1.0  0.55249  0.78175  0.77778  1.0000
  C   C1801     1.0  0.55447  0.67244  0.90893  1.0000
  H   H1434     1.0  0.56404  0.79448  0.72929  1.0000
  H   H1435     1.0  0.55232  0.70998  0.96644  1.0000
  C   C1802     1.0  0.60229  0.97937  0.98267  1.0000
  H   H1436     1.0  0.50001  0.66764  0.90630  1.0000
  H   H1437     1.0  0.49908  0.76274  0.75083  1.0000
  H   H1438     1.0  0.49767  0.72798  0.54307  1.0000
  H   H1439     1.0  0.50024  0.68900  0.63962  1.0000
  C   C1803     1.0  0.51440  0.95526  0.92905  1.0000
  C   C1804     1.0  0.49143  0.76404  0.52285  1.0000
  S   S240      1.0  0.51484  0.88375  0.97932  1.0000
  H   H1440     1.0  0.51680  0.94397  0.92237  1.0000
  C   C1805     1.0  0.51548  0.98314  0.91324  1.0000
  H   H1441     1.0  0.49456  0.80147  0.82078  1.0000
  H   H1442     1.0  0.50313  0.81017  0.50652  1.0000
  C   C1806     1.0  0.49040  0.78349  0.75541  1.0000
  H   H1443     1.0  0.48544  0.66876  0.84947  1.0000
  C   C1807     1.0  0.48963  0.70638  0.61934  1.0000
  H   H1444     1.0  0.48989  0.77481  0.53592  1.0000
  Fe  Fe120     1.0  0.48145  0.90254  0.96894  1.0000
  C   C1808     1.0  0.83569  0.26510  0.17808  1.0000
  C   C1809     1.0  0.76219  0.24493  0.39654  1.0000
  Fe  Fe121     1.0  0.77484  0.29174  0.29933  1.0000
  S   S241      1.0  0.79385  0.27976  0.29764  1.0000
  S   S242      1.0  0.74717  0.27859  0.28845  1.0000
  Fe  Fe122     1.0  0.80226  0.29318  0.35164  1.0000
  S   S243      1.0  0.80854  0.27990  0.39990  1.0000
  Fe  Fe123     1.0  0.81053  0.30387  0.27005  1.0000
  C   C1810     1.0  0.75683  0.18255  0.48166  1.0000
  S   S244      1.0  0.78261  0.30404  0.35411  1.0000
  C   C1811     1.0  0.78289  0.23278  0.40617  1.0000
  H   H1445     1.0  0.78610  0.18327  0.14786  1.0000
  C   C1812     1.0  0.81037  0.25167  0.25067  1.0000
  C   C1813     1.0  0.84326  0.28268  0.12488  1.0000
  H   H1446     1.0  0.76840  0.23068  0.21574  1.0000
  C   C1814     1.0  0.75808  0.26524  0.20940  1.0000
  H   H1447     1.0  0.80201  0.26901  0.13850  1.0000
  C   C1815     1.0  0.82677  0.28049  0.11948  1.0000
  C   C1816     1.0  0.84771  0.27492  0.15406  1.0000
  C   C1817     1.0  0.78252  0.20692  0.14375  1.0000
  C   C1818     1.0  0.82777  0.26742  0.30047  1.0000
  H   H1448     1.0  0.79961  0.28297  0.19968  1.0000
  H   H1449     1.0  0.78360  0.25003  0.36330  1.0000
  C   C1819     1.0  0.80631  0.28054  0.44808  1.0000
  C   C1820     1.0  0.81128  0.26942  0.46835  1.0000
  H   H1450     1.0  0.79638  0.30024  0.45166  1.0000
  H   H1451     1.0  0.81592  0.26085  0.45455  1.0000
  H   H1452     1.0  0.83039  0.27596  0.24576  1.0000
  H   H1453     1.0  0.77514  0.29082  0.20252  1.0000
  C   C1821     1.0  0.73573  0.25644  0.29277  1.0000
  C   C1822     1.0  0.74322  0.24514  0.30263  1.0000
  C   C1823     1.0  0.73885  0.24893  0.48783  1.0000
  C   C1824     1.0  0.80100  0.20173  0.18676  1.0000
  H   H1454     1.0  0.75633  0.24985  0.30801  1.0000
  H   H1455     1.0  0.74824  0.29595  0.38987  1.0000
  C   C1825     1.0  0.78685  0.22339  0.15752  1.0000
  C   C1826     1.0  0.81870  0.25494  0.32463  1.0000
  H   H1456     1.0  0.74742  0.26880  0.21167  1.0000
  H   H1457     1.0  0.85261  0.29066  0.10681  1.0000
  S   S245      1.0  0.83082  0.30769  0.22666  1.0000
  C   C1827     1.0  0.82362  0.26582  0.26364  1.0000
  C   C1828     1.0  0.80027  0.29155  0.46681  1.0000
  H   H1458     1.0  0.86052  0.27672  0.15836  1.0000
  C   C1829     1.0  0.80534  0.21819  0.20063  1.0000
  H   H1459     1.0  0.78140  0.23170  0.14566  1.0000
  H   H1460     1.0  0.79833  0.23121  0.33065  1.0000
  H   H1461     1.0  0.82337  0.28670  0.09713  1.0000
  C   C1830     1.0  0.79805  0.22902  0.18653  1.0000
  C   C1831     1.0  0.78953  0.19606  0.15847  1.0000
  H   H1462     1.0  0.80652  0.19334  0.19798  1.0000
  H   H1463     1.0  0.74765  0.17438  0.42765  1.0000
  H   H1464     1.0  0.83932  0.25906  0.20036  1.0000
  C   C1832     1.0  0.81473  0.27068  0.14344  1.0000
  H   H1465     1.0  0.77368  0.20255  0.12170  1.0000
  C   C1833     1.0  0.80554  0.24076  0.31190  1.0000
  H   H1466     1.0  0.82160  0.25654  0.35334  1.0000
  P   P60       1.0  0.73540  0.23963  0.44273  1.0000
  H   H1467     1.0  0.79458  0.23196  0.39898  1.0000
  C   C1834     1.0  0.75362  0.23653  0.42712  1.0000
  H   H1468     1.0  0.81292  0.31613  0.16611  1.0000
  H   H1469     1.0  0.81438  0.22244  0.22227  1.0000
  C   C1835     1.0  0.80127  0.23921  0.27516  1.0000
  H   H1470     1.0  0.79062  0.22849  0.26602  1.0000
  C   C1836     1.0  0.77371  0.27765  0.20423  1.0000
  C   C1837     1.0  0.75626  0.24835  0.21345  1.0000
  H   H1471     1.0  0.74419  0.23888  0.21909  1.0000
  C   C1838     1.0  0.77003  0.24377  0.21153  1.0000
  C   C1839     1.0  0.78571  0.25607  0.20489  1.0000
  C   C1840     1.0  0.78752  0.27313  0.20246  1.0000
  P   P61       1.0  0.80359  0.25028  0.20412  1.0000
  C   C1841     1.0  0.81916  0.26328  0.17352  1.0000
  H   H1472     1.0  0.75789  0.25313  0.38076  1.0000
  H   H1473     1.0  0.83762  0.27869  0.31051  1.0000
  C   C1842     1.0  0.83661  0.31618  0.18218  1.0000
  C   C1843     1.0  0.77675  0.24301  0.38614  1.0000
  C   C1844     1.0  0.77410  0.22389  0.43581  1.0000
  C   C1845     1.0  0.75938  0.22557  0.44596  1.0000
  H   H1474     1.0  0.75310  0.27558  0.43084  1.0000
  H   H1475     1.0  0.85755  0.27901  0.03745  1.0000
  H   H1476     1.0  0.73977  0.21902  0.31184  1.0000
  H   H1477     1.0  0.75263  0.21863  0.46891  1.0000
  S   S246      1.0  0.82057  0.31573  0.32424  1.0000
  H   H1478     1.0  0.74428  0.31441  0.32354  1.0000
  H   H1479     1.0  0.84172  0.29790  0.03494  1.0000
  S   S247      1.0  0.79080  0.31494  0.26829  1.0000
  H   H1480     1.0  0.77886  0.21595  0.45127  1.0000
  C   C1846     1.0  0.73929  0.28313  0.39115  1.0000
  C   C1847     1.0  0.74203  0.27153  0.41424  1.0000
  C   C1848     1.0  0.74484  0.17798  0.45432  1.0000
  H   H1481     1.0  0.76897  0.18244  0.47625  1.0000
  H   H1482     1.0  0.86168  0.31788  0.18889  1.0000
  H   H1483     1.0  0.76506  0.25347  0.49024  1.0000
  C   C1849     1.0  0.85665  0.28501  0.01226  1.0000
  C   C1850     1.0  0.84770  0.29561  0.01087  1.0000
  C   C1851     1.0  0.73378  0.22764  0.30478  1.0000
  C   C1852     1.0  0.85290  0.31978  0.17045  1.0000
  C   C1853     1.0  0.82547  0.31873  0.15776  1.0000
  Fe  Fe124     1.0  0.79761  0.29266  0.62110  1.0000
  S   S248      1.0  0.77809  0.30303  0.61049  1.0000
  S   S249      1.0  0.80564  0.27981  0.57390  1.0000
  Fe  Fe125     1.0  0.79941  0.30176  0.70410  1.0000
  C   C1854     1.0  0.84680  0.30364  0.97863  1.0000
  C   C1855     1.0  0.83465  0.31749  0.85804  1.0000
  Fe  Fe126     1.0  0.76627  0.28966  0.66119  1.0000
  S   S250      1.0  0.73824  0.27651  0.65869  1.0000
  H   H1484     1.0  0.76944  0.26709  0.55036  1.0000
  S   S251      1.0  0.78514  0.27806  0.67086  1.0000
  H   H1485     1.0  0.90514  0.28056  0.89688  1.0000
  H   H1486     1.0  0.88696  0.22686  0.91229  1.0000
  C   C1856     1.0  0.77755  0.23880  0.61174  1.0000
  H   H1487     1.0  0.73220  0.21818  0.68927  1.0000
  C   C1857     1.0  0.75316  0.18722  0.51602  1.0000
  S   S252      1.0  0.81374  0.31502  0.65513  1.0000
  H   H1488     1.0  0.79531  0.30025  0.51965  1.0000
  C   C1858     1.0  0.90534  0.30838  0.94141  1.0000
  C   C1859     1.0  0.82160  0.31043  0.83269  1.0000
  C   C1860     1.0  0.83821  0.27999  0.83508  1.0000
  C   C1861     1.0  0.75325  0.21375  0.62251  1.0000
  C   C1862     1.0  0.76666  0.22758  0.63576  1.0000
  H   H1489     1.0  0.75914  0.22155  0.53231  1.0000
  H   H1490     1.0  0.90991  0.25379  0.89832  1.0000
  H   H1491     1.0  0.76256  0.19065  0.53698  1.0000
  C   C1863     1.0  0.76129  0.22280  0.56118  1.0000
  C   C1864     1.0  0.85489  0.30115  0.94776  1.0000
  C   C1865     1.0  0.86379  0.29042  0.94876  1.0000
  H   H1492     1.0  0.85407  0.25356  0.92370  1.0000
  C   C1866     1.0  0.87239  0.28901  0.83455  1.0000
  S   S253      1.0  0.77945  0.31243  0.69681  1.0000
  C   C1867     1.0  0.76571  0.30220  0.81444  1.0000
  C   C1868     1.0  0.75462  0.25466  0.50398  1.0000
  P   P62       1.0  0.73291  0.19370  0.56770  1.0000
  H   H1493     1.0  0.74844  0.24859  0.67826  1.0000
  H   H1494     1.0  0.87021  0.28984  0.77647  1.0000
  H   H1495     1.0  0.74638  0.27108  0.58271  1.0000
  C   C1869     1.0  0.75063  0.21107  0.58505  1.0000
  H   H1496     1.0  0.75836  0.28880  0.81190  1.0000
  H   H1497     1.0  0.87204  0.27465  0.98331  1.0000
  H   H1498     1.0  0.82497  0.27661  0.83514  1.0000
  C   C1870     1.0  0.73744  0.18738  0.52329  1.0000
  C   C1871     1.0  0.82436  0.31184  0.79501  1.0000
  C   C1872     1.0  0.74431  0.26505  0.55615  1.0000
  H   H1499     1.0  0.74488  0.20535  0.64162  1.0000
  H   H1500     1.0  0.84000  0.27904  0.89268  1.0000
  H   H1501     1.0  0.85444  0.30784  0.92331  1.0000
  H   H1502     1.0  0.83992  0.28228  0.77714  1.0000
  C   C1873     1.0  0.80515  0.28060  0.52541  1.0000
  H   H1503     1.0  0.81495  0.26092  0.52111  1.0000
  C   C1874     1.0  0.88484  0.23863  0.91209  1.0000
  C   C1875     1.0  0.81072  0.26946  0.50632  1.0000
  C   C1876     1.0  0.86371  0.28750  0.80198  1.0000
  C   C1877     1.0  0.86636  0.25377  0.91868  1.0000
  C   C1878     1.0  0.86913  0.23861  0.91918  1.0000
  C   C1879     1.0  0.86476  0.28249  0.98140  1.0000
  C   C1880     1.0  0.89504  0.26900  0.90374  1.0000
  H   H1504     1.0  0.75759  0.30827  0.76328  1.0000
  P   P63       1.0  0.87541  0.28842  0.90973  1.0000
  H   H1505     1.0  0.80923  0.30377  0.84236  1.0000
  C   C1881     1.0  0.87936  0.26910  0.91146  1.0000
  H   H1506     1.0  0.84016  0.31217  0.97784  1.0000
  C   C1882     1.0  0.77570  0.30847  0.84494  1.0000
  C   C1883     1.0  0.84665  0.28312  0.80228  1.0000
  C   C1884     1.0  0.77487  0.23638  0.57448  1.0000
  C   C1885     1.0  0.75726  0.26261  0.53805  1.0000
  C   C1886     1.0  0.73521  0.24363  0.67456  1.0000
  C   C1887     1.0  0.84686  0.28166  0.86772  1.0000
  H   H1507     1.0  0.76852  0.22972  0.66469  1.0000
  C   C1888     1.0  0.89455  0.30660  0.91202  1.0000
  H   H1508     1.0  0.78324  0.24524  0.55597  1.0000
  C   C1889     1.0  0.86411  0.28669  0.86779  1.0000
  H   H1509     1.0  0.90252  0.29870  0.96183  1.0000
  C   C1890     1.0  0.89778  0.25381  0.90428  1.0000
  H   H1510     1.0  0.78797  0.24953  0.62190  1.0000
  H   H1511     1.0  0.77598  0.29991  0.86618  1.0000
  S   S254      1.0  0.80734  0.30200  0.76443  1.0000
  H   H1512     1.0  0.85905  0.22681  0.92475  1.0000
  H   H1513     1.0  0.74032  0.16236  0.56749  1.0000
  H   H1514     1.0  0.88558  0.29217  0.83378  1.0000
  C   C1891     1.0  0.89823  0.31971  0.88684  1.0000
  H   H1515     1.0  0.76368  0.31478  0.51264  1.0000
  C   C1892     1.0  0.76533  0.31318  0.78695  1.0000
  H   H1516     1.0  0.74112  0.30991  0.64325  1.0000
  C   C1893     1.0  0.84053  0.32037  0.78316  1.0000
  H   H1517     1.0  0.83217  0.31625  0.88673  1.0000
  H   H1518     1.0  0.73249  0.13819  0.60890  1.0000
  C   C1894     1.0  0.79968  0.29157  0.50543  1.0000
  H   H1519     1.0  0.84300  0.32148  0.75443  1.0000
  H   H1520     1.0  0.88998  0.31906  0.86462  1.0000
  C   C1895     1.0  0.73306  0.16245  0.59105  1.0000
  Fe  Fe127     1.0  0.77769  0.45956  0.31365  1.0000
  S   S255      1.0  0.80440  0.47620  0.32482  1.0000
  S   S256      1.0  0.75725  0.46989  0.32255  1.0000
  Fe  Fe128     1.0  0.78640  0.42886  0.30002  1.0000
  S   S257      1.0  0.81305  0.44281  0.31301  1.0000
  S   S258      1.0  0.77646  0.40228  0.27713  1.0000
  Fe  Fe129     1.0  0.80417  0.45446  0.35977  1.0000
  S   S259      1.0  0.81673  0.45882  0.41597  1.0000
  Fe  Fe130     1.0  0.81114  0.46319  0.27661  1.0000
  S   S260      1.0  0.83125  0.46944  0.23183  1.0000
  S   S261      1.0  0.77755  0.43844  0.34960  1.0000
  S   S262      1.0  0.78435  0.44865  0.26283  1.0000
  H   H1521     1.0  0.86270  0.38109  0.05941  1.0000
  H   H1522     1.0  0.97675  0.40605  0.09973  1.0000
  S   S263      1.0  0.89235  0.37117  0.02630  1.0000
  C   C1896     1.0  0.79424  0.38021  0.43409  1.0000
  H   H1523     1.0  0.85115  0.42701  0.01233  1.0000
  C   C1897     1.0  0.88524  0.38952  0.12198  1.0000
  Fe  Fe131     1.0  0.88655  0.50846  0.04801  1.0000
  S   S264      1.0  0.91330  0.51154  0.05247  1.0000
  S   S265      1.0  0.87010  0.51207  0.09403  1.0000
  C   C1898     1.0  0.90842  0.43534  0.02036  1.0000
  C   C1899     1.0  0.73463  0.48380  0.45696  1.0000
  H   H1524     1.0  0.75341  0.52205  0.34385  1.0000
  C   C1900     1.0  0.82525  0.37973  0.03126  1.0000
  C   C1901     1.0  0.85217  0.38479  0.05684  1.0000
  C   C1902     1.0  0.97737  0.36108  0.08538  1.0000
  C   C1903     1.0  0.74780  0.45606  0.45753  1.0000
  H   H1525     1.0  0.95265  0.48518  0.06251  1.0000
  H   H1526     1.0  0.87333  0.36295  0.10929  1.0000
  H   H1527     1.0  0.89467  0.39163  0.10156  1.0000
  H   H1528     1.0  0.80434  0.51416  0.37013  1.0000
  H   H1529     1.0  0.89961  0.46204  0.16016  1.0000
  C   C1904     1.0  0.87323  0.37337  0.12634  1.0000
  H   H1530     1.0  0.80465  0.48874  0.40189  1.0000
  H   H1531     1.0  0.84953  0.42704  0.16343  1.0000
  H   H1532     1.0  0.78737  0.33870  0.21136  1.0000
  H   H1533     1.0  0.76530  0.39741  0.41833  1.0000
  H   H1534     1.0  0.82045  0.39413  0.43206  1.0000
  C   C1905     1.0  0.74263  0.36795  0.44770  1.0000
  C   C1906     1.0  0.80991  0.45682  0.46205  1.0000
  C   C1907     1.0  0.85795  0.32554  0.13497  1.0000
  C   C1908     1.0  0.84159  0.48126  0.19297  1.0000
  C   C1909     1.0  0.85313  0.47625  0.17423  1.0000
  C   C1910     1.0  0.86161  0.48512  0.14351  1.0000
  C   C1911     1.0  0.85901  0.49950  0.13135  1.0000
  C   C1912     1.0  0.84749  0.50451  0.15012  1.0000
  C   C1913     1.0  0.83876  0.49542  0.18035  1.0000
  H   H1535     1.0  0.85552  0.46539  0.18363  1.0000
  H   H1536     1.0  0.87041  0.48102  0.12971  1.0000
  H   H1537     1.0  0.84533  0.51559  0.14130  1.0000
  H   H1538     1.0  0.83003  0.49957  0.19429  1.0000
  C   C1914     1.0  0.78635  0.38907  0.29295  1.0000
  C   C1915     1.0  0.78233  0.37283  0.27777  1.0000
  C   C1916     1.0  0.78953  0.36182  0.29139  1.0000
  C   C1917     1.0  0.80068  0.36702  0.32036  1.0000
  C   C1918     1.0  0.80513  0.38345  0.33456  1.0000
  C   C1919     1.0  0.79792  0.39442  0.32107  1.0000
  H   H1539     1.0  0.77342  0.36868  0.25591  1.0000
  H   H1540     1.0  0.78615  0.34921  0.28009  1.0000
  H   H1541     1.0  0.81390  0.38756  0.35664  1.0000
  H   H1542     1.0  0.80104  0.40687  0.33305  1.0000
  H   H1543     1.0  0.79027  0.42277  0.40995  1.0000
  C   C1920     1.0  0.79450  0.50754  0.38859  1.0000
  C   C1921     1.0  0.84666  0.32747  0.11010  1.0000
  H   H1544     1.0  0.74465  0.42878  0.38709  1.0000
  H   H1545     1.0  0.89404  0.41557  0.13963  1.0000
  P   P64       1.0  0.96360  0.54872  0.13145  1.0000
  C   C1922     1.0  0.93717  0.55005  0.09119  1.0000
  C   C1923     1.0  0.79714  0.34687  0.19448  1.0000
  C   C1924     1.0  0.79449  0.34772  0.15736  1.0000
  C   C1925     1.0  0.80703  0.35847  0.13571  1.0000
  C   C1926     1.0  0.82224  0.36836  0.15117  1.0000
  C   C1927     1.0  0.82515  0.36718  0.18829  1.0000
  C   C1928     1.0  0.81242  0.35654  0.20996  1.0000
  P   P65       1.0  0.84464  0.38018  0.20844  1.0000
  C   C1929     1.0  0.84356  0.39965  0.22626  1.0000
  C   C1930     1.0  0.84879  0.36864  0.24570  1.0000
  C   C1931     1.0  0.84509  0.37188  0.28138  1.0000
  C   C1932     1.0  0.84823  0.36298  0.31021  1.0000
  C   C1933     1.0  0.85473  0.35052  0.30372  1.0000
  C   C1934     1.0  0.85796  0.34683  0.26832  1.0000
  C   C1935     1.0  0.85503  0.35584  0.23943  1.0000
  C   C1936     1.0  0.85690  0.41098  0.24618  1.0000
  C   C1937     1.0  0.85614  0.42595  0.26053  1.0000
  C   C1938     1.0  0.84191  0.42952  0.25596  1.0000
  C   C1939     1.0  0.82832  0.41797  0.23765  1.0000
  C   C1940     1.0  0.82913  0.40314  0.22260  1.0000
  C   C1941     1.0  0.86062  0.38402  0.17461  1.0000
  C   C1942     1.0  0.86087  0.37067  0.15215  1.0000
  C   C1943     1.0  0.88489  0.40298  0.14348  1.0000
  C   C1944     1.0  0.87268  0.40026  0.16970  1.0000
  C   C1945     1.0  0.73495  0.32436  0.36885  1.0000
  C   C1946     1.0  0.83025  0.44932  0.05221  1.0000
  H   H1546     1.0  0.80501  0.35912  0.10691  1.0000
  H   H1547     1.0  0.83172  0.37678  0.13405  1.0000
  H   H1548     1.0  0.81423  0.35571  0.23883  1.0000
  H   H1549     1.0  0.83936  0.38093  0.28718  1.0000
  H   H1550     1.0  0.84503  0.36532  0.33755  1.0000
  H   H1551     1.0  0.81487  0.37201  0.01473  1.0000
  C   C1947     1.0  0.73898  0.33604  0.39764  1.0000
  H   H1552     1.0  0.85731  0.35237  0.21241  1.0000
  H   H1553     1.0  0.86784  0.40813  0.25088  1.0000
  H   H1554     1.0  0.86646  0.43469  0.27576  1.0000
  H   H1555     1.0  0.84125  0.44109  0.26717  1.0000
  H   H1556     1.0  0.81705  0.42046  0.23581  1.0000
  H   H1557     1.0  0.81834  0.39434  0.20894  1.0000
  H   H1558     1.0  0.85144  0.35813  0.15438  1.0000
  H   H1559     1.0  0.87271  0.41091  0.18570  1.0000
  P   P66       1.0  0.76040  0.36231  0.44039  1.0000
  C   C1948     1.0  0.77847  0.38086  0.43041  1.0000
  C   C1949     1.0  0.77713  0.39633  0.42146  1.0000
  C   C1950     1.0  0.79129  0.41083  0.41666  1.0000
  C   C1951     1.0  0.74714  0.45006  0.42177  1.0000
  H   H1560     1.0  0.91883  0.43653  0.03755  1.0000
  C   C1952     1.0  0.97769  0.57616  0.08467  1.0000
  C   C1953     1.0  0.75537  0.34724  0.40313  1.0000
  C   C1954     1.0  0.76765  0.34619  0.38004  1.0000
  H   H1561     1.0  0.87537  0.44378  0.19493  1.0000
  H   H1562     1.0  0.73807  0.43437  0.30337  1.0000
  Fe  Fe132     1.0  0.80031  0.32582  0.32313  1.0000
  Fe  Fe133     1.0  0.87236  0.34511  0.02079  1.0000
  C   C1955     1.0  0.79466  0.49319  0.40629  1.0000
  H   H1563     1.0  0.95287  0.35474  0.06331  1.0000
  H   H1564     1.0  0.74025  0.37318  0.39113  1.0000
  H   H1565     1.0  0.98022  0.50829  0.05952  1.0000
  C   C1956     1.0  0.76571  0.48897  0.19264  1.0000
  C   C1957     1.0  0.73579  0.45734  0.32262  1.0000
  H   H1566     1.0  0.84342  0.51184  0.04536  1.0000
  H   H1567     1.0  0.83849  0.36297  0.02422  1.0000
  C   C1958     1.0  0.84693  0.51826  0.01975  1.0000
  H   H1568     1.0  0.87048  0.32804  0.12660  1.0000
  P   P67       1.0  0.83932  0.42479  0.08692  1.0000
  C   C1959     1.0  0.82270  0.42138  0.11902  1.0000
  C   C1960     1.0  0.83895  0.40492  0.06829  1.0000
  C   C1961     1.0  0.82552  0.39490  0.04676  1.0000
  H   H1569     1.0  0.82452  0.46900  0.02618  1.0000
  H   H1570     1.0  0.83143  0.44758  0.13708  1.0000
  C   C1962     1.0  0.97165  0.54602  0.01393  1.0000
  C   C1963     1.0  0.85239  0.39984  0.07289  1.0000
  C   C1964     1.0  0.82215  0.43501  0.14010  1.0000
  C   C1965     1.0  0.80986  0.43252  0.16601  1.0000
  C   C1966     1.0  0.79812  0.41633  0.17164  1.0000
  C   C1967     1.0  0.79874  0.40261  0.15144  1.0000
  C   C1968     1.0  0.81097  0.40508  0.12533  1.0000
  C   C1969     1.0  0.85864  0.43609  0.10995  1.0000
  C   C1970     1.0  0.87250  0.44628  0.09047  1.0000
  C   C1971     1.0  0.88722  0.45550  0.10859  1.0000
  C   C1972     1.0  0.88827  0.45461  0.14619  1.0000
  C   C1973     1.0  0.87464  0.44430  0.16571  1.0000
  C   C1974     1.0  0.85993  0.43493  0.14769  1.0000
  H   H1571     1.0  0.76264  0.50233  0.14575  1.0000
  H   H1572     1.0  0.78040  0.35441  0.38384  1.0000
  C   C1975     1.0  0.79323  0.44995  0.47159  1.0000
  H   H1573     1.0  0.91636  0.54993  0.05972  1.0000
  C   C1976     1.0  0.78159  0.51319  0.39449  1.0000
  H   H1574     1.0  0.81529  0.39890  0.04189  1.0000
  H   H1575     1.0  0.82155  0.32568  0.10332  1.0000
  C   C1977     1.0  0.83855  0.37464  0.03646  1.0000
  H   H1576     1.0  0.93505  0.51683  0.12752  1.0000
  C   C1978     1.0  0.97988  0.56433  0.23444  1.0000
  H   H1577     1.0  0.78883  0.41438  0.19240  1.0000
  H   H1578     1.0  0.78986  0.39000  0.15656  1.0000
  H   H1579     1.0  0.81133  0.39415  0.11086  1.0000
  H   H1580     1.0  0.87202  0.44729  0.06134  1.0000
  H   H1581     1.0  0.89776  0.46353  0.09342  1.0000
  C   C1979     1.0  0.73715  0.49288  0.21895  1.0000
  C   C1980     1.0  0.74726  0.32354  0.34575  1.0000
  S   S266      1.0  0.80852  0.35312  0.34131  1.0000
  H   H1582     1.0  0.82483  0.45110  0.07736  1.0000
  H   H1583     1.0  0.78206  0.47310  0.44222  1.0000
  H   H1584     1.0  0.85984  0.54256  0.04467  1.0000
  C   C1981     1.0  0.76357  0.33433  0.35162  1.0000
  C   C1982     1.0  0.74528  0.48453  0.23945  1.0000
  C   C1983     1.0  0.76537  0.35281  0.48008  1.0000
  C   C1984     1.0  0.98050  0.56524  0.10984  1.0000
  C   C1985     1.0  0.83761  0.43725  0.04871  1.0000
  H   H1585     1.0  0.75534  0.32697  0.45937  1.0000
  H   H1586     1.0  0.96469  0.52193  0.24934  1.0000
  H   H1587     1.0  0.86225  0.33659  0.26310  1.0000
  H   H1588     1.0  0.78391  0.44538  0.45063  1.0000
  S   S267      1.0  0.87908  0.48423  0.01603  1.0000
  C   C1986     1.0  0.96059  0.52835  0.11108  1.0000
  C   C1987     1.0  0.75774  0.49734  0.17192  1.0000
  Fe  Fe134     1.0  0.90600  0.48852  0.01674  1.0000
  C   C1988     1.0  0.73833  0.51087  0.29718  1.0000
  C   C1989     1.0  0.80835  0.39476  0.42932  1.0000
  H   H1589     1.0  0.90155  0.55534  0.11269  1.0000
  C   C1990     1.0  0.97718  0.39361  0.09570  1.0000
  H   H1590     1.0  0.79568  0.36846  0.44080  1.0000
  C   C1991     1.0  0.94450  0.55210  0.12565  1.0000
  C   C1992     1.0  0.75946  0.48257  0.22641  1.0000
  C   C1993     1.0  0.80687  0.41008  0.42066  1.0000
  Fe  Fe135     1.0  0.91808  0.52553  0.99975  1.0000
  H   H1591     1.0  0.77312  0.33346  0.33411  1.0000
  C   C1994     1.0  0.92192  0.55159  0.08647  1.0000
  C   C1995     1.0  0.73518  0.37263  0.41811  1.0000
  C   C1996     1.0  0.74496  0.43319  0.41485  1.0000
  C   C1997     1.0  0.78183  0.48437  0.42946  1.0000
  C   C1998     1.0  0.96432  0.53348  0.19786  1.0000
  H   H1592     1.0  0.94142  0.55696  0.18244  1.0000
  H   H1593     1.0  0.74871  0.45854  0.39916  1.0000
  C   C1999     1.0  0.94244  0.49949  0.09640  1.0000
  H   H1594     1.0  0.83470  0.46758  0.48321  1.0000
  C   C2000     1.0  0.97344  0.52551  0.09295  1.0000
  H   H1595     1.0  0.95820  0.52142  0.18431  1.0000
  H   H1596     1.0  0.74886  0.51405  0.27942  1.0000
  C   C2001     1.0  0.94516  0.51507  0.11338  1.0000
  S   S268      1.0  0.91724  0.46947  0.02973  1.0000
  C   C2002     1.0  0.96336  0.38074  0.08100  1.0000
  C   C2003     1.0  0.74374  0.42225  0.44356  1.0000
  H   H1597     1.0  0.80967  0.44311  0.18238  1.0000
  C   C2004     1.0  0.91364  0.55475  0.11627  1.0000
  H   H1598     1.0  0.97746  0.34852  0.08101  1.0000
  S   S269      1.0  0.85194  0.33346  0.06383  1.0000
  H   H1599     1.0  0.74276  0.40941  0.43813  1.0000
  C   C2005     1.0  0.76887  0.49000  0.43593  1.0000
  H   H1600     1.0  0.85667  0.34329  0.32604  1.0000
  C   C2006     1.0  0.73565  0.36698  0.48218  1.0000
  C   C2007     1.0  0.84492  0.43583  0.01554  1.0000
  H   H1601     1.0  0.74062  0.47954  0.26566  1.0000
  H   H1602     1.0  0.81779  0.42140  0.41692  1.0000
  C   C2008     1.0  0.92083  0.55681  0.15072  1.0000
  H   H1603     1.0  0.91432  0.55913  0.17383  1.0000
  C   C2009     1.0  0.93624  0.55556  0.15545  1.0000
  H   H1604     1.0  0.75895  0.50908  0.42211  1.0000
  H   H1605     1.0  0.78270  0.34006  0.14545  1.0000
  H   H1606     1.0  0.97935  0.57606  0.18351  1.0000
  H   H1607     1.0  0.77675  0.48746  0.18265  1.0000
  C   C2010     1.0  0.89847  0.41946  0.00617  1.0000
  H   H1608     1.0  0.95264  0.38340  0.07284  1.0000
  C   C2011     1.0  0.76882  0.50450  0.41814  1.0000
  C   C2012     1.0  0.96347  0.36452  0.07567  1.0000
  C   C2013     1.0  0.74352  0.49932  0.18498  1.0000
  C   C2014     1.0  0.97056  0.51003  0.07529  1.0000
  C   C2015     1.0  0.97576  0.54912  0.25309  1.0000
  C   C2016     1.0  0.96849  0.54872  0.17894  1.0000
  C   C2017     1.0  0.85616  0.53564  0.01930  1.0000
  H   H1609     1.0  0.76562  0.47611  0.24270  1.0000
  C   C2018     1.0  0.73349  0.49845  0.47271  1.0000
  H   H1610     1.0  0.78147  0.52426  0.38055  1.0000
  C   C2019     1.0  0.95505  0.49706  0.07685  1.0000
  H   H1611     1.0  0.94316  0.54703  0.06796  1.0000
  H   H1612     1.0  0.96383  0.53445  0.02656  1.0000
  C   C2020     1.0  0.90488  0.44966  0.01219  1.0000
  H   H1613     1.0  0.73767  0.50592  0.16852  1.0000
  H   H1614     1.0  0.74328  0.50663  0.49009  1.0000
  C   C2021     1.0  0.76154  0.33526  0.48166  1.0000
  C   C2022     1.0  0.82177  0.46235  0.49007  1.0000
  C   C2023     1.0  0.74098  0.51556  0.33376  1.0000
  H   H1615     1.0  0.93037  0.48946  0.09728  1.0000
  H   H1616     1.0  0.86320  0.40761  0.08807  1.0000
  S   S270      1.0  0.89153  0.52448  0.99729  1.0000
  C   C2024     1.0  0.83002  0.45958  0.02303  1.0000
  H   H1617     1.0  0.96539  0.57505  0.07717  1.0000
  C   C2025     1.0  0.74608  0.44485  0.48626  1.0000
  C   C2026     1.0  0.83043  0.32415  0.12199  1.0000
  C   C2027     1.0  0.97622  0.56415  0.19753  1.0000
  H   H1618     1.0  0.97854  0.54928  0.28174  1.0000
  C   C2028     1.0  0.96797  0.53371  0.23481  1.0000
  H   H1619     1.0  0.90120  0.40840  0.01236  1.0000
  C   C2029     1.0  0.74418  0.42803  0.47924  1.0000
  P   P68       1.0  0.75240  0.47830  0.46613  1.0000
  H   H1620     1.0  0.95704  0.40525  0.99498  1.0000
  C   C2030     1.0  0.96430  0.55540  0.99426  1.0000
  C   C2031     1.0  0.96500  0.39811  0.99352  1.0000
  Fe  Fe136     1.0  0.77982  0.46088  0.70785  1.0000
  S   S271      1.0  0.80334  0.47771  0.68151  1.0000
  S   S272      1.0  0.75975  0.47108  0.72078  1.0000
  Fe  Fe137     1.0  0.79113  0.43105  0.70784  1.0000
  S   S273      1.0  0.81496  0.44542  0.68031  1.0000
  S   S274      1.0  0.78338  0.40417  0.72708  1.0000
  Fe  Fe138     1.0  0.81633  0.46623  0.72095  1.0000
  S   S275      1.0  0.84038  0.48033  0.75382  1.0000
  Fe  Fe139     1.0  0.79985  0.45549  0.64361  1.0000
  S   S276      1.0  0.79360  0.45338  0.58231  1.0000
  S   S277      1.0  0.79293  0.45112  0.74940  1.0000
  S   S278      1.0  0.77589  0.43936  0.66945  1.0000
  S   S279      1.0  0.79971  0.35133  0.62824  1.0000
  Fe  Fe140     1.0  0.87637  0.34456  0.93556  1.0000
  H   H1621     1.0  0.77572  0.44385  0.51548  1.0000
  H   H1622     1.0  0.78831  0.38381  0.78230  1.0000
  S   S280      1.0  0.89682  0.37035  0.93716  1.0000
  H   H1623     1.0  0.77096  0.39946  0.79995  1.0000
  H   H1624     1.0  0.76480  0.33455  0.62236  1.0000
  S   S281      1.0  0.86389  0.48890  0.92171  1.0000
  C   C2032     1.0  0.81684  0.37817  0.87980  1.0000
  S   S282      1.0  0.94215  0.54917  0.98947  1.0000
  C   C2033     1.0  0.82329  0.35386  0.86198  1.0000
  C   C2034     1.0  0.74199  0.40118  0.69093  1.0000
  C   C2035     1.0  0.81214  0.35244  0.75719  1.0000
  H   H1625     1.0  0.84333  0.56019  0.94522  1.0000
  H   H1626     1.0  0.86606  0.33331  0.79870  1.0000
  C   C2036     1.0  0.80045  0.45476  0.53638  1.0000
  C   C2037     1.0  0.96861  0.37147  0.98883  1.0000
  S   S283      1.0  0.86809  0.33508  0.87667  1.0000
  C   C2038     1.0  0.91834  0.54664  0.91326  1.0000
  C   C2039     1.0  0.81711  0.46130  0.52690  1.0000
  Fe  Fe141     1.0  0.79315  0.32446  0.64698  1.0000
  H   H1627     1.0  0.82643  0.46570  0.54791  1.0000
  C   C2040     1.0  0.84658  0.48172  0.80072  1.0000
  C   C2041     1.0  0.86342  0.48983  0.80979  1.0000
  C   C2042     1.0  0.86896  0.49181  0.84625  1.0000
  C   C2043     1.0  0.85773  0.48603  0.87467  1.0000
  C   C2044     1.0  0.84092  0.47761  0.86560  1.0000
  C   C2045     1.0  0.83539  0.47538  0.82905  1.0000
  H   H1628     1.0  0.87228  0.49468  0.78835  1.0000
  H   H1629     1.0  0.88196  0.49792  0.85225  1.0000
  H   H1630     1.0  0.83204  0.47286  0.88702  1.0000
  H   H1631     1.0  0.82243  0.46904  0.82284  1.0000
  C   C2046     1.0  0.78816  0.38958  0.69978  1.0000
  C   C2047     1.0  0.78140  0.37231  0.70800  1.0000
  C   C2048     1.0  0.78510  0.36046  0.68663  1.0000
  C   C2049     1.0  0.79525  0.36581  0.65644  1.0000
  C   C2050     1.0  0.80180  0.38305  0.64794  1.0000
  C   C2051     1.0  0.79843  0.39494  0.66982  1.0000
  H   H1632     1.0  0.77322  0.36803  0.73078  1.0000
  H   H1633     1.0  0.77990  0.34719  0.69320  1.0000
  H   H1634     1.0  0.80964  0.38724  0.62456  1.0000
  H   H1635     1.0  0.80371  0.40822  0.66334  1.0000
  H   H1636     1.0  0.93080  0.54682  0.91443  1.0000
  H   H1637     1.0  0.83270  0.37726  0.68787  1.0000
  C   C2052     1.0  0.78570  0.33670  0.81951  1.0000
  H   H1638     1.0  0.97824  0.47894  0.91764  1.0000
  C   C2053     1.0  0.73962  0.38405  0.68562  1.0000
  C   C2054     1.0  0.85696  0.53472  0.95352  1.0000
  C   C2055     1.0  0.76727  0.40013  0.62383  1.0000
  H   H1639     1.0  0.79086  0.41930  0.61130  1.0000
  C   C2056     1.0  0.73849  0.46030  0.71076  1.0000
  H   H1640     1.0  0.92473  0.57080  0.94004  1.0000
  H   H1641     1.0  0.77502  0.33869  0.76759  1.0000
  C   C2057     1.0  0.74994  0.38694  0.57239  1.0000
  H   H1642     1.0  0.88392  0.45878  0.69360  1.0000
  S   S284      1.0  0.86022  0.35213  0.97291  1.0000
  C   C2058     1.0  0.76962  0.48814  0.58560  1.0000
  C   C2059     1.0  0.73266  0.44479  0.69202  1.0000
  C   C2060     1.0  0.88953  0.53224  0.89797  1.0000
  H   H1643     1.0  0.88410  0.57516  0.87086  1.0000
  C   C2061     1.0  0.77673  0.40891  0.56309  1.0000
  C   C2062     1.0  0.76199  0.39728  0.54902  1.0000
  C   C2063     1.0  0.85085  0.32587  0.84615  1.0000
  H   H1644     1.0  0.89628  0.57040  0.93853  1.0000
  C   C2064     1.0  0.75360  0.48643  0.57619  1.0000
  C   C2065     1.0  0.83423  0.35695  0.89124  1.0000
  H   H1645     1.0  0.74933  0.42270  0.59802  1.0000
  H   H1646     1.0  0.83002  0.39949  0.72857  1.0000
  C   C2066     1.0  0.89097  0.46529  0.90223  1.0000
  C   C2067     1.0  0.90526  0.46201  0.90849  1.0000
  C   C2068     1.0  0.90745  0.44841  0.89083  1.0000
  C   C2069     1.0  0.89530  0.43805  0.86711  1.0000
  C   C2070     1.0  0.88057  0.44084  0.86200  1.0000
  C   C2071     1.0  0.87871  0.45484  0.87892  1.0000
  P   P69       1.0  0.86507  0.42777  0.83072  1.0000
  C   C2072     1.0  0.87094  0.43744  0.78710  1.0000
  C   C2073     1.0  0.86423  0.40627  0.83060  1.0000
  C   C2074     1.0  0.85880  0.39602  0.79956  1.0000
  C   C2075     1.0  0.85868  0.37955  0.79887  1.0000
  C   C2076     1.0  0.86409  0.37330  0.82910  1.0000
  C   C2077     1.0  0.86900  0.38323  0.86048  1.0000
  C   C2078     1.0  0.86870  0.39952  0.86159  1.0000
  C   C2079     1.0  0.86572  0.45040  0.77618  1.0000
  C   C2080     1.0  0.87031  0.45797  0.74248  1.0000
  C   C2081     1.0  0.88043  0.45291  0.71975  1.0000
  C   C2082     1.0  0.88613  0.44039  0.73092  1.0000
  C   C2083     1.0  0.88153  0.43278  0.76462  1.0000
  C   C2084     1.0  0.84467  0.42638  0.84338  1.0000
  C   C2085     1.0  0.84042  0.42613  0.88006  1.0000
  C   C2086     1.0  0.82460  0.42502  0.88988  1.0000
  C   C2087     1.0  0.81283  0.42378  0.86316  1.0000
  C   C2088     1.0  0.81682  0.42354  0.82661  1.0000
  C   C2089     1.0  0.83265  0.42474  0.81674  1.0000
  H   H1647     1.0  0.88929  0.47589  0.91562  1.0000
  H   H1648     1.0  0.91457  0.46990  0.92726  1.0000
  H   H1649     1.0  0.91852  0.44584  0.89571  1.0000
  H   H1650     1.0  0.89739  0.42781  0.85307  1.0000
  H   H1651     1.0  0.86781  0.45773  0.87415  1.0000
  H   H1652     1.0  0.85482  0.40080  0.77579  1.0000
  H   H1653     1.0  0.85447  0.37162  0.77489  1.0000
  H   H1654     1.0  0.74351  0.41965  0.50155  1.0000
  H   H1655     1.0  0.87277  0.37816  0.88422  1.0000
  H   H1656     1.0  0.87210  0.40680  0.88658  1.0000
  H   H1657     1.0  0.85806  0.45466  0.79360  1.0000
  H   H1658     1.0  0.86600  0.46779  0.73402  1.0000
  H   H1659     1.0  0.89414  0.43663  0.71347  1.0000
  H   H1660     1.0  0.88629  0.42332  0.77311  1.0000
  H   H1661     1.0  0.84936  0.42684  0.90103  1.0000
  H   H1662     1.0  0.82150  0.42518  0.91822  1.0000
  H   H1663     1.0  0.80060  0.42301  0.87068  1.0000
  H   H1664     1.0  0.80770  0.42255  0.80579  1.0000
  H   H1665     1.0  0.83544  0.42440  0.78826  1.0000
  H   H1666     1.0  0.96354  0.35781  0.98658  1.0000
  C   C2090     1.0  0.95582  0.50197  0.96698  1.0000
  H   H1667     1.0  0.94537  0.51969  0.94764  1.0000
  H   H1668     1.0  0.76006  0.39628  0.51999  1.0000
  H   H1669     1.0  0.82195  0.34348  0.84342  1.0000
  C   C2091     1.0  0.75359  0.33618  0.63047  1.0000
  C   C2092     1.0  0.89878  0.55995  0.92655  1.0000
  H   H1670     1.0  0.86183  0.61043  0.90235  1.0000
  C   C2093     1.0  0.82524  0.38638  0.73686  1.0000
  H   H1671     1.0  0.88272  0.60357  0.86711  1.0000
  H   H1672     1.0  0.87148  0.43125  0.95761  1.0000
  C   C2094     1.0  0.77465  0.33868  0.54068  1.0000
  C   C2095     1.0  0.77623  0.36632  0.86487  1.0000
  H   H1673     1.0  0.80742  0.33920  0.76458  1.0000
  H   H1674     1.0  0.75622  0.39374  0.85861  1.0000
  H   H1675     1.0  0.96960  0.57777  0.96208  1.0000
  H   H1676     1.0  0.74349  0.40324  0.78288  1.0000
  C   C2096     1.0  0.74329  0.40801  0.72591  1.0000
  C   C2097     1.0  0.82047  0.35697  0.72439  1.0000
  H   H1677     1.0  0.91492  0.34455  0.87189  1.0000
  H   H1678     1.0  0.97172  0.53992  0.92485  1.0000
  C   C2098     1.0  0.97491  0.57028  0.97744  1.0000
  H   H1679     1.0  0.92769  0.32455  0.96847  1.0000
  H   H1680     1.0  0.73153  0.47945  0.73661  1.0000
  H   H1681     1.0  0.93394  0.34742  0.92365  1.0000
  C   C2099     1.0  0.76410  0.38697  0.85120  1.0000
  S   S285      1.0  0.91144  0.50216  0.96401  1.0000
  C   C2100     1.0  0.84785  0.51724  0.95430  1.0000
  H   H1682     1.0  0.81052  0.38677  0.87538  1.0000
  C   C2101     1.0  0.92313  0.33592  0.92006  1.0000
  C   C2102     1.0  0.87427  0.59413  0.88448  1.0000
  H   H1683     1.0  0.73767  0.36091  0.71292  1.0000
  C   C2103     1.0  0.82799  0.38138  0.90867  1.0000
  C   C2104     1.0  0.86124  0.54385  0.98633  1.0000
  C   C2105     1.0  0.85219  0.56964  0.92863  1.0000
  C   C2106     1.0  0.83641  0.37057  0.91476  1.0000
  H   H1684     1.0  0.85082  0.44541  0.96138  1.0000
  C   C2107     1.0  0.97123  0.52813  0.93662  1.0000
  C   C2108     1.0  0.78859  0.44906  0.50842  1.0000
  C   C2109     1.0  0.88603  0.54605  0.91103  1.0000
  H   H1685     1.0  0.84213  0.58865  0.94122  1.0000
  P   P70       1.0  0.86502  0.54500  0.91141  1.0000
  C   C2110     1.0  0.77545  0.48478  0.52254  1.0000
  H   H1686     1.0  0.78615  0.41696  0.54520  1.0000
  C   C2111     1.0  0.76623  0.32826  0.51185  1.0000
  P   P71       1.0  0.79863  0.35891  0.82160  1.0000
  C   C2112     1.0  0.85342  0.53340  0.87264  1.0000
  C   C2113     1.0  0.73899  0.37399  0.71595  1.0000
  C   C2114     1.0  0.91490  0.56024  0.92750  1.0000
  H   H1687     1.0  0.79280  0.48804  0.56624  1.0000
  C   C2115     1.0  0.77524  0.33038  0.78947  1.0000
  C   C2116     1.0  0.78050  0.48723  0.55880  1.0000
  C   C2117     1.0  0.86423  0.56582  0.90939  1.0000
  Fe  Fe142     1.0  0.88087  0.37721  0.97650  1.0000
  S   S286      1.0  0.88774  0.33558  0.98287  1.0000
  C   C2118     1.0  0.73824  0.35443  0.64099  1.0000
  H   H1688     1.0  0.81387  0.51046  0.84585  1.0000
  C   C2119     1.0  0.82683  0.37390  0.71399  1.0000
  H   H1689     1.0  0.87454  0.53941  0.83722  1.0000
  H   H1690     1.0  0.86891  0.55719  0.98651  1.0000
  H   H1691     1.0  0.85846  0.52323  0.78496  1.0000
  H   H1692     1.0  0.74676  0.44914  0.51413  1.0000
  H   H1693     1.0  0.86429  0.36069  0.82848  1.0000
  C   C2120     1.0  0.77822  0.35608  0.53966  1.0000
  C   C2121     1.0  0.75938  0.48316  0.51266  1.0000
  C   C2122     1.0  0.77236  0.39017  0.81818  1.0000
  H   H1694     1.0  0.84134  0.34904  0.89530  1.0000
  H   H1695     1.0  0.81638  0.39175  0.78776  1.0000
  C   C2123     1.0  0.83521  0.51584  0.81221  1.0000
  H   H1696     1.0  0.76964  0.40140  0.65265  1.0000
  H   H1697     1.0  0.77355  0.48982  0.61377  1.0000
  C   C2124     1.0  0.97018  0.49848  0.97033  1.0000
  H   H1698     1.0  0.74525  0.42127  0.72989  1.0000
  C   C2125     1.0  0.74029  0.38088  0.75090  1.0000
  H   H1699     1.0  0.74879  0.45121  0.60781  1.0000
  C   C2126     1.0  0.75235  0.38852  0.61006  1.0000
  C   C2127     1.0  0.86248  0.59799  0.90428  1.0000
  C   C2128     1.0  0.73836  0.44144  0.59478  1.0000
  C   C2129     1.0  0.73861  0.42527  0.58950  1.0000
  H   H1700     1.0  0.74127  0.43936  0.68233  1.0000
  H   H1701     1.0  0.73998  0.37311  0.77412  1.0000
  C   C2130     1.0  0.85227  0.52410  0.80987  1.0000
  C   C2131     1.0  0.88506  0.41802  0.98384  1.0000
  C   C2132     1.0  0.74836  0.48356  0.54002  1.0000
  C   C2133     1.0  0.77939  0.41024  0.60044  1.0000
  C   C2134     1.0  0.90564  0.53259  0.89869  1.0000
  C   C2135     1.0  0.95784  0.38026  0.99072  1.0000
  C   C2136     1.0  0.83616  0.52575  0.87421  1.0000
  H   H1702     1.0  0.74514  0.48692  0.59720  1.0000
  H   H1703     1.0  0.87973  0.52111  0.88772  1.0000
  H   H1704     1.0  0.84510  0.50972  0.92962  1.0000
  C   C2137     1.0  0.91245  0.33429  0.89088  1.0000
  S   S287      1.0  0.87229  0.39849  0.96605  1.0000
  C   C2138     1.0  0.76595  0.37495  0.87447  1.0000
  C   C2139     1.0  0.81719  0.38191  0.77004  1.0000
  C   C2140     1.0  0.87507  0.57806  0.88681  1.0000
  H   H1705     1.0  0.83024  0.39227  0.92631  1.0000
  H   H1706     1.0  0.90819  0.52181  0.88862  1.0000
  C   C2141     1.0  0.85141  0.58573  0.92624  1.0000
  C   C2142     1.0  0.82713  0.51680  0.84425  1.0000
  H   H1707     1.0  0.75945  0.37233  0.89997  1.0000
  H   H1708     1.0  0.77767  0.35712  0.88327  1.0000
  H   H1709     1.0  0.82829  0.50856  0.78921  1.0000
  H   H1710     1.0  0.78497  0.36410  0.56197  1.0000
  C   C2143     1.0  0.86135  0.53302  0.83978  1.0000
  H   H1711     1.0  0.82968  0.52649  0.89871  1.0000
  C   C2144     1.0  0.81398  0.36399  0.85704  1.0000
  C   C2145     1.0  0.85363  0.32705  0.80848  1.0000
  C   C2146     1.0  0.78477  0.36967  0.83191  1.0000
  C   C2147     1.0  0.75267  0.35224  0.62983  1.0000
  H   H1712     1.0  0.82165  0.34728  0.70657  1.0000
  C   C2148     1.0  0.80991  0.36484  0.77972  1.0000
  H   H1713     1.0  0.76337  0.36288  0.62126  1.0000
  C   C2149     1.0  0.78244  0.38138  0.80832  1.0000
  Fe  Fe143     1.0  0.88480  0.49989  0.96511  1.0000
  C   C2150     1.0  0.74233  0.39784  0.75587  1.0000
  H   H1714     1.0  0.73566  0.48140  0.53370  1.0000
  H   H1715     1.0  0.84496  0.37301  0.93719  1.0000
  H   H1716     1.0  0.79305  0.33024  0.87170  1.0000
  C   C2151     1.0  0.78555  0.32569  0.84771  1.0000
  C   C2152     1.0  0.95633  0.51670  0.94972  1.0000
  H   H1717     1.0  0.78409  0.48375  0.50266  1.0000
  Fe  Fe144     1.0  0.90738  0.36238  0.98631  1.0000
  P   P72       1.0  0.73686  0.37508  0.64026  1.0000
  C   C2153     1.0  0.88164  0.43235  0.97551  1.0000
  H   H1718     1.0  0.94432  0.49338  0.97820  1.0000
  H   H1719     1.0  0.88888  0.45919  0.98293  1.0000
  C   C2154     1.0  0.77362  0.36315  0.50949  1.0000
  C   C2155     1.0  0.91960  0.32296  0.94530  1.0000
  H   H1720     1.0  0.96964  0.48710  0.98404  1.0000
  H   H1721     1.0  0.74275  0.40926  0.66803  1.0000
  H   H1722     1.0  0.73879  0.37775  0.56112  1.0000
  S   S288      1.0  0.93579  0.36803  0.99002  1.0000
  C   C2156     1.0  0.89148  0.44815  0.98986  1.0000
  H   H1723     1.0  0.77872  0.33333  0.56359  1.0000
  H   H1724     1.0  0.97247  0.44856  0.90748  1.0000
  H   H1725     1.0  0.74087  0.36290  0.50512  1.0000
  H   H1726     1.0  0.83745  0.46624  0.96784  1.0000
  H   H1727     1.0  0.77697  0.37673  0.50867  1.0000
  C   C2157     1.0  0.84474  0.44618  0.98650  1.0000
  C   C2158     1.0  0.74023  0.32227  0.64241  1.0000
  C   C2159     1.0  0.84281  0.50908  0.98726  1.0000
  C   C2160     1.0  0.83726  0.45802  0.99020  1.0000
  H   H1728     1.0  0.83619  0.49553  0.98757  1.0000
