data_image0
_chemical_formula_structural       FeS2FeSHFeCFeS3FeS2FeS2FeSFeS3FeS2FeS2FeSFeS3C3H2C4HC6H5C3HC2H3CHC4H3C7H4C3HC3HC2H2C2H2CPCHCH3C4H2C6PC14H14C6PC8HSC3HCH3CH3CH6CH3PH2C6H2C3H2C2H4CH2CHCH5CHC3H2CH2C7H2CHCHC3HC3H2CH3C2PC3HCH2C6HCHC2H5CH3CH2C2H2C3H2CH2C2HCHC4PC2H3CHC5H3C3HCHC2HPC2H2C8H2SH4C2HC5H6C5HC2H3CHCH3CH2C2HCH2CHCH2C2PCHCHFeS2FeS2FeHFeS3FeS2FeS2FeSFeS3FeS2FeS2FeSFeS3HCHCHC3HC5HC3H2C6H4CH2C2H2CH2C6H4C2H4C2H2CH4C2HCH4CHC6PC10HC8H8CH6CH2CHC2PHC2HC10H2C2H2C3H2CHC2HC5HC3H2CPHCHC4HC6H9C3HC3H2C3HC2H2C5H2CHC2H3CHCH2C7H2PHCHCH2C3HCHC2HC3HC3HCSCH3CHC3H4C2H2CHC3HCH3C4HCHCHCH2CH2CH2PHPH2C2H3C3H2C4H2CHC2HCHC5HCHPCH3CH2FeS2FeS2FeSFeS3FeS2FeS2FeSFeS3FeS2FeS2FeHFeS3C6H4C6HCH2C6H4C3H2C3H2C6H4C4HC7H3C2H3CH2C6PC10HC7H11C2H5CHC2SH2CHCH4CHC6PC2H3C3HPCHC6H3CHCH5C2HCH4C3HC4HC2HCHCHCH4CHCH2C6HCH3C4HC7PC18HCH22CH4C3H2C2H2CHC2HCH2C3H10C3HC4H2C2HCH2CHC5H2CHC2H2PCH2CH2C3H2C2H3CHCH3C7H3C4H2CH2CH2FeS2FeS2FeSFeS3FeS2FeS2FeSFeS3FeS2FeS2FeSFeS3C3HC2HCH2C2H2C7HCH2C2HCHC6H4C6H4C4H2CHC6HCPCHCHCHC6HCH4C3PC14HCH13CH2CH3C6PC13H2CH12CH4C3H2CHC3HCHC2HC3HC2H5CH3C4HCH2CHC3HC6PC18H12CH7C2H2C3HPC3HC2H3C5H3C2HCH2CHC3HC4H2CHC2H3C2HCHCHCH2C2PC2HCH3C2HCH2C2H2CH2PHCHC2HCHCHCHC2H3CFeS2FeSCFeSFeS3FeS2FeSCFeSFeS3C2HC4HC6H5CHCHC4HCSHC2H11PHC3H4CHCH4C2H5CHCHC2H2CH2C2HC4HC5SHCHC2H2C3HC4H2C3H3C4PCFeSHFeS2FeSFeS3FeS2FeS2FeSFeHS2C2H3C7H5C6H4CHC3HCHC2H2SH2CHC6PC3HC2H2C2H5CHCH2CH3CH2C2HC2HCHCH3C4HCH2C2HC4PH5C4HC2H2CHCHC9H2C4H2CHC4PH2CH2CH2C4H2C2H4CH2FeS2FeS2FeSFeS2FeS2FeS2FeSFeS3C4HCHCHC2HC2HC5H4C6H8C6HC3HC3HC5HCHCH2CHC3PC19H6CH13C7PC2H3CH3C2HC4HCH6C2HCH2C3H2CHCHCHCHCH3CH2C2HC3HCHCHC2HCHC2H3CHPC4HCHC4HCH3CHC5H2PCHCH2CH3CHCH2CH3CH2C2HC4HCHPC4HCHCFeS2FeS2FeSFeS2FeS2FeS2FeSFeS3C3H2C5H3C2HC5H2C6H4C3HC3H4C4HCHC4HCH2C2HCH4C2H3C2H2CHCHCHC2HC7PCHC2HCHC7HC2H5C3H11SHCHCHC2H2PC2HC2H3C2H3C3HPC3H4C4H3C3HCHC2H2CHC3H5C3HFeS2FeS2FeSFeS3FeS2FeS2FeSFeS3FeS2FeS2FeSFeS3C6H5C3H2CH3C2HC3H3C4H2C6H4C3H2C4H3C2H3C2HCH3CHCH2CH3CH3C7PH3C2H2C2HCHC7H3CHC2HC3H2C2H6C7PC7HCH3C8H2PH5CH9C6PH3C5H3CHCH7C8H6CHCH4CHC2HC8HCHCHCHCHCH2C2H2CPCHCHCHCHC6HC3HC4HCH2C2H3CHCHC2HCHC2HC5HC2HCH2C3H2CHCH3C4H2C2H2C3HC5PHC2H2CH3C4HCH2PHCHC4HC4HCFeS2FeS2FeSFeS3FeS2FeS2FeSFeHS2FeS2FeS2FeSFeS3CHC6H2C6H4C5H2CH2C3H2C6H4C2H2C2HCH2C4HC2H2C6PC18H18C6H2CHSC2PC2H4C2HC2H2C2H2C4PCHCH6C2H3CHCHC2HC2H3C2H2CH4C2HC2HCHC6HCHC3H3C3H2CH2C2H3CH3CH3C3PC3H2CHC4HC4HC6HCHC2H2CHCH2C4SH3C2HC2HPCHCHFeS2FeS2FeSFeS3HFeSHFeS2FeSFeS3FeS2FeS2FeCFeS3CHC2HC6H4C3H2C3H2C6H4C6H4C4H2C3H2PC3H4C5HC2H2C4H2CH2CPC2H2PC8H3C5HC2H8CH3C2H2PHCHC5H2C2HCH2SCH2C3HC5H3C3H2C2H2C4HCHCH5CHC2SC2SC5H3C9H4CHC4HCHCH5CH2CH3CH3CH3C2H2C2HC6HC3HCPCH2CHC2H2CHC2H3CHCH7CHC2HC2H2CH2CH2C3H2CFeS2FeS2FeSFeS3HFeS2FeSCFeSFeS3FeSHFeS2FeSFeS3CH4CHC2HC4HC6H4C7H4CPCPHC6HCH2C3H3C2HC6PC18H21CHCH2PH3CHCPCSCH3C4HCHC2HCHC4H5CHC8HCH2C5H2CH2CHC4HCHCPHC4H2C4H2CH2C8PH2C4H5C4SH3CH2CH2C3H2CHC2HC6H3C2HCHC4HCHC2HCHCH2CH2CH3CHC2HC7HC4H4CH5CH2CH2C6H2CH3C4H5CHC2H4C2H3C2HC3HC
_chemical_formula_sum              "Fe128 S256 H1536 C1920 P64"
_cell_length_a       67.2144
_cell_length_b       67.4516
_cell_length_c       42.5453
_cell_angle_alpha    90.0833
_cell_angle_beta     90.0685
_cell_angle_gamma    84.0253

_space_group_name_H-M_alt    "P 1"
_space_group_IT_number       1

loop_
  _space_group_symop_operation_xyz
  'x, y, z'

loop_
  _atom_site_type_symbol
  _atom_site_label
  _atom_site_symmetry_multiplicity
  _atom_site_fract_x
  _atom_site_fract_y
  _atom_site_fract_z
  _atom_site_occupancy
  Fe  Fe1       1.0  0.27228  0.07463  0.11665  1.0000
  S   S1        1.0  0.24348  0.06122  0.12328  1.0000
  S   S2        1.0  0.28602  0.08455  0.07143  1.0000
  Fe  Fe2       1.0  0.28545  0.06754  0.18624  1.0000
  S   S3        1.0  0.25692  0.05406  0.19775  1.0000
  H   H1        1.0  0.04950  0.31351  0.14670  1.0000
  Fe  Fe3       1.0  0.26108  0.03739  0.15202  1.0000
  C   C1        1.0  0.25143  0.11120  0.23867  1.0000
  Fe  Fe4       1.0  0.24119  0.07935  0.16826  1.0000
  S   S4        1.0  0.21033  0.09583  0.18081  1.0000
  S   S5        1.0  0.28987  0.04989  0.14179  1.0000
  S   S6        1.0  0.26953  0.09378  0.16009  1.0000
  Fe  Fe5       1.0  0.11521  0.40498  0.34381  1.0000
  S   S7        1.0  0.08805  0.40737  0.37431  1.0000
  S   S8        1.0  0.13183  0.43267  0.33803  1.0000
  Fe  Fe6       1.0  0.11236  0.36031  0.32830  1.0000
  S   S9        1.0  0.08527  0.36021  0.35899  1.0000
  S   S10       1.0  0.12358  0.32939  0.30749  1.0000
  Fe  Fe7       1.0  0.07487  0.38950  0.33688  1.0000
  S   S11       1.0  0.04324  0.39942  0.32170  1.0000
  Fe  Fe8       1.0  0.10055  0.37808  0.39454  1.0000
  S   S12       1.0  0.09245  0.37319  0.44567  1.0000
  S   S13       1.0  0.10108  0.38911  0.30401  1.0000
  S   S14       1.0  0.12891  0.37614  0.36603  1.0000
  Fe  Fe9       1.0  0.11269  0.22096  0.10418  1.0000
  S   S15       1.0  0.11006  0.19338  0.13324  1.0000
  S   S16       1.0  0.11587  0.21376  0.05202  1.0000
  Fe  Fe10      1.0  0.11564  0.24746  0.16375  1.0000
  S   S17       1.0  0.11458  0.22112  0.19570  1.0000
  S   S18       1.0  0.11432  0.28041  0.17943  1.0000
  Fe  Fe11      1.0  0.13551  0.20325  0.16166  1.0000
  S   S19       1.0  0.16638  0.18510  0.16931  1.0000
  Fe  Fe12      1.0  0.08931  0.21354  0.16399  1.0000
  S   S20       1.0  0.06022  0.20800  0.18886  1.0000
  S   S21       1.0  0.13846  0.23055  0.13190  1.0000
  S   S22       1.0  0.09008  0.24012  0.13258  1.0000
  C   C2        1.0  0.03593  0.20831  0.17191  1.0000
  C   C3        1.0  0.03280  0.20930  0.13942  1.0000
  C   C4        1.0  0.01944  0.20650  0.19168  1.0000
  H   H2        1.0  0.04529  0.21076  0.12395  1.0000
  H   H3        1.0  0.02164  0.20576  0.21684  1.0000
  C   C5        1.0  0.02510  0.38657  0.34030  1.0000
  C   C6        1.0  0.00491  0.39393  0.33800  1.0000
  C   C7        1.0  0.03052  0.36952  0.35830  1.0000
  C   C8        1.0  0.31964  0.15257  0.28918  1.0000
  H   H4        1.0  0.04588  0.36384  0.36079  1.0000
  C   C9        1.0  0.11847  0.31582  0.27260  1.0000
  C   C10       1.0  0.12355  0.29499  0.27188  1.0000
  C   C11       1.0  0.12157  0.28380  0.24407  1.0000
  C   C12       1.0  0.11483  0.29332  0.21626  1.0000
  C   C13       1.0  0.10917  0.31405  0.21720  1.0000
  C   C14       1.0  0.11076  0.32519  0.24517  1.0000
  H   H5        1.0  0.12950  0.28750  0.29285  1.0000
  H   H6        1.0  0.12585  0.26793  0.24382  1.0000
  H   H7        1.0  0.10386  0.32165  0.19595  1.0000
  H   H8        1.0  0.10674  0.34113  0.24518  1.0000
  H   H9        1.0  0.23674  0.99904  0.19060  1.0000
  C   C15       1.0  0.11102  0.22797  0.01744  1.0000
  C   C16       1.0  0.09998  0.24674  0.01741  1.0000
  C   C17       1.0  0.04623  0.46928  0.28108  1.0000
  H   H10       1.0  0.09472  0.25347  0.03935  1.0000
  C   C18       1.0  0.10545  0.38030  0.47944  1.0000
  C   C19       1.0  0.05115  0.26581  0.17277  1.0000
  H   H11       1.0  0.32014  0.00350  0.05602  1.0000
  H   H12       1.0  0.07335  0.42963  0.31551  1.0000
  H   H13       1.0  0.13390  0.38154  0.45677  1.0000
  C   C20       1.0  0.01367  0.20725  0.12684  1.0000
  H   H14       1.0  0.06760  0.44811  0.40405  1.0000
  C   C21       1.0  0.09995  0.46126  0.35023  1.0000
  C   C22       1.0  0.12026  0.45747  0.34302  1.0000
  C   C23       1.0  0.13148  0.47376  0.33881  1.0000
  C   C24       1.0  0.08045  0.46534  0.26166  1.0000
  H   H15       1.0  0.30572  0.08677  0.26564  1.0000
  H   H16       1.0  0.09124  0.44896  0.35422  1.0000
  H   H17       1.0  0.14725  0.47105  0.33343  1.0000
  C   C25       1.0  0.26067  0.14914  0.12232  1.0000
  C   C26       1.0  0.17809  0.15997  0.17068  1.0000
  C   C27       1.0  0.19907  0.15651  0.16771  1.0000
  C   C28       1.0  0.20916  0.13703  0.16973  1.0000
  C   C29       1.0  0.19842  0.12068  0.17552  1.0000
  C   C30       1.0  0.17744  0.12415  0.17828  1.0000
  C   C31       1.0  0.16733  0.14357  0.17560  1.0000
  H   H18       1.0  0.20760  0.16903  0.16393  1.0000
  H   H19       1.0  0.22526  0.13472  0.16750  1.0000
  H   H20       1.0  0.16892  0.11171  0.18283  1.0000
  H   H21       1.0  0.15124  0.14587  0.17812  1.0000
  C   C32       1.0  0.23083  0.13886  0.08088  1.0000
  C   C33       1.0  0.03249  0.15784  0.16061  1.0000
  C   C34       1.0  0.05416  0.31341  0.38796  1.0000
  H   H22       1.0  0.01034  0.23507  0.27220  1.0000
  C   C35       1.0  0.09289  0.16917  0.03614  1.0000
  C   C36       1.0  0.18980  0.14946  0.05991  1.0000
  C   C37       1.0  0.07501  0.31270  0.38922  1.0000
  H   H23       1.0  0.23679  0.20950  0.31276  1.0000
  C   C38       1.0  0.27425  0.08113  0.03495  1.0000
  C   C39       1.0  0.25527  0.07445  0.03335  1.0000
  H   H24       1.0  0.24115  0.09451  0.27738  1.0000
  H   H25       1.0  0.24765  0.07094  0.05466  1.0000
  C   C40       1.0  0.16319  0.30993  0.22838  1.0000
  C   C41       1.0  0.26303  0.13097  0.10629  1.0000
  H   H26       1.0  0.25948  0.02995  0.06048  1.0000
  H   H27       1.0  0.19719  0.07774  0.12458  1.0000
  C   C42       1.0  0.25217  0.10402  0.26945  1.0000
  P   P1        1.0  0.29899  0.14441  0.23448  1.0000
  C   C43       1.0  0.22862  0.15723  0.09689  1.0000
  H   H28       1.0  0.18997  0.06649  0.02604  1.0000
  C   C44       1.0  0.15815  0.17848  0.07457  1.0000
  H   H29       1.0  0.25391  0.01993  0.00562  1.0000
  H   H30       1.0  0.29853  0.09106  0.00813  1.0000
  H   H31       1.0  0.01506  0.16073  0.08567  1.0000
  C   C45       1.0  0.01995  0.38559  0.47380  1.0000
  C   C46       1.0  0.16351  0.29769  0.20184  1.0000
  C   C47       1.0  0.30268  0.00094  0.01388  1.0000
  C   C48       1.0  0.09245  0.43730  0.48537  1.0000
  H   H32       1.0  0.13780  0.14189  0.04742  1.0000
  H   H33       1.0  0.23102  0.01605  0.09932  1.0000
  C   C49       1.0  0.26716  0.10907  0.28986  1.0000
  C   C50       1.0  0.24236  0.25551  0.28350  1.0000
  C   C51       1.0  0.24626  0.23818  0.30141  1.0000
  C   C52       1.0  0.21724  0.22508  0.27869  1.0000
  C   C53       1.0  0.21302  0.24258  0.26100  1.0000
  C   C54       1.0  0.22589  0.25766  0.26320  1.0000
  P   P2        1.0  0.19236  0.24495  0.23356  1.0000
  C   C55       1.0  0.17317  0.23014  0.24729  1.0000
  C   C56       1.0  0.18157  0.27061  0.23120  1.0000
  C   C57       1.0  0.18099  0.28298  0.25790  1.0000
  C   C58       1.0  0.15736  0.23870  0.26609  1.0000
  C   C59       1.0  0.14227  0.22732  0.27590  1.0000
  C   C60       1.0  0.14293  0.20726  0.26731  1.0000
  C   C61       1.0  0.15880  0.19852  0.24916  1.0000
  C   C62       1.0  0.17392  0.20985  0.23935  1.0000
  C   C63       1.0  0.20132  0.23635  0.19530  1.0000
  C   C64       1.0  0.22156  0.23650  0.18709  1.0000
  C   C65       1.0  0.22843  0.22939  0.15770  1.0000
  C   C66       1.0  0.21515  0.22216  0.13627  1.0000
  C   C67       1.0  0.19499  0.22219  0.14411  1.0000
  C   C68       1.0  0.18807  0.22936  0.17340  1.0000
  H   H34       1.0  0.25205  0.26733  0.28545  1.0000
  H   H35       1.0  0.25895  0.23658  0.31730  1.0000
  H   H36       1.0  0.22321  0.27109  0.24921  1.0000
  H   H37       1.0  0.18705  0.27737  0.28014  1.0000
  H   H38       1.0  0.15644  0.25421  0.27296  1.0000
  H   H39       1.0  0.12990  0.23416  0.28982  1.0000
  H   H40       1.0  0.13105  0.19853  0.27441  1.0000
  H   H41       1.0  0.15919  0.18305  0.24196  1.0000
  H   H42       1.0  0.18595  0.20278  0.22502  1.0000
  H   H43       1.0  0.23206  0.24214  0.20318  1.0000
  H   H44       1.0  0.24403  0.22955  0.15147  1.0000
  H   H45       1.0  0.22041  0.21660  0.11352  1.0000
  H   H46       1.0  0.18465  0.21641  0.12769  1.0000
  H   H47       1.0  0.17238  0.22917  0.17907  1.0000
  C   C69       1.0  0.05455  0.24581  0.27981  1.0000
  C   C70       1.0  0.06837  0.24427  0.25521  1.0000
  C   C71       1.0  0.07553  0.26142  0.24324  1.0000
  C   C72       1.0  0.06835  0.28017  0.25500  1.0000
  C   C73       1.0  0.05344  0.28199  0.27830  1.0000
  C   C74       1.0  0.04739  0.26457  0.29173  1.0000
  P   P3        1.0  0.04389  0.30620  0.29370  1.0000
  C   C75       1.0  0.05576  0.30828  0.33143  1.0000
  C   C76       1.0  0.05050  0.32621  0.26883  1.0000
  C   C77       1.0  0.05638  0.34377  0.28214  1.0000
  C   C78       1.0  0.06089  0.35945  0.26290  1.0000
  C   C79       1.0  0.05961  0.35778  0.23026  1.0000
  C   C80       1.0  0.05344  0.34052  0.21682  1.0000
  C   C81       1.0  0.04866  0.32489  0.23603  1.0000
  C   C82       1.0  0.04453  0.31111  0.35919  1.0000
  H   H48       1.0  0.02710  0.15694  0.18449  1.0000
  S   S23       1.0  0.26578  0.00429  0.13998  1.0000
  C   C83       1.0  0.08627  0.30948  0.36176  1.0000
  C   C84       1.0  0.07670  0.30730  0.33297  1.0000
  C   C85       1.0  0.01686  0.31015  0.29683  1.0000
  H   H49       1.0  0.15203  0.15947  0.11304  1.0000
  C   C86       1.0  0.17050  0.18125  0.04892  1.0000
  H   H50       1.0  0.21617  0.03429  0.05292  1.0000
  H   H51       1.0  0.20780  0.21306  0.27704  1.0000
  H   H52       1.0  0.31521  0.99378  0.00068  1.0000
  C   C87       1.0  0.19265  0.07010  0.07615  1.0000
  H   H53       1.0  0.07379  0.22977  0.24572  1.0000
  H   H54       1.0  0.08675  0.26020  0.22482  1.0000
  H   H55       1.0  0.07477  0.29308  0.24604  1.0000
  C   C88       1.0  0.05108  0.45325  0.30167  1.0000
  H   H56       1.0  0.05735  0.34553  0.30738  1.0000
  H   H57       1.0  0.06535  0.37296  0.27339  1.0000
  H   H58       1.0  0.06338  0.36989  0.21546  1.0000
  H   H59       1.0  0.05251  0.33922  0.19152  1.0000
  H   H60       1.0  0.04389  0.31162  0.22527  1.0000
  H   H61       1.0  0.02838  0.31182  0.35879  1.0000
  C   C89       1.0  0.24796  0.12562  0.08629  1.0000
  H   H62       1.0  0.01099  0.28104  0.28026  1.0000
  H   H63       1.0  0.10242  0.30933  0.36252  1.0000
  H   H64       1.0  0.08564  0.30530  0.31181  1.0000
  P   P4        1.0  0.21191  0.13224  0.05367  1.0000
  H   H65       1.0  0.08245  0.31498  0.41137  1.0000
  H   H66       1.0  0.04590  0.47692  0.43856  1.0000
  C   C90       1.0  0.05930  0.16273  0.12433  1.0000
  C   C91       1.0  0.30559  0.00658  0.04507  1.0000
  C   C92       1.0  0.03082  0.26476  0.17781  1.0000
  C   C93       1.0  0.32123  0.08090  0.26748  1.0000
  C   C94       1.0  0.04039  0.39579  0.43087  1.0000
  C   C95       1.0  0.03882  0.38718  0.46049  1.0000
  H   H67       1.0  0.20929  0.11009  0.11245  1.0000
  H   H68       1.0  0.04544  0.31606  0.40924  1.0000
  C   C96       1.0  0.32040  0.14210  0.26054  1.0000
  C   C97       1.0  0.01590  0.35958  0.37324  1.0000
  C   C98       1.0  0.31017  0.00377  0.20572  1.0000
  H   H69       1.0  0.25245  0.12946  0.02470  1.0000
  H   H70       1.0  0.15596  0.30313  0.18052  1.0000
  C   C99       1.0  0.99791  0.45399  0.37250  1.0000
  C   C100      1.0  0.05255  0.49042  0.44416  1.0000
  H   H71       1.0  0.25722  0.16317  0.22899  1.0000
  H   H72       1.0  0.05502  0.39628  0.42032  1.0000
  H   H73       1.0  0.05835  0.48863  0.24689  1.0000
  H   H74       1.0  0.31825  0.09352  0.15359  1.0000
  C   C101      1.0  0.04427  0.30007  0.15607  1.0000
  H   H75       1.0  0.04772  0.34693  0.48289  1.0000
  H   H76       1.0  0.02459  0.41087  0.39237  1.0000
  C   C102      1.0  0.11339  0.16335  0.03371  1.0000
  H   H77       1.0  0.12274  0.17249  0.02044  1.0000
  C   C103      1.0  0.24127  0.13100  0.00639  1.0000
  H   H78       1.0  0.03851  0.12714  0.06523  1.0000
  H   H79       1.0  0.02192  0.10650  0.02736  1.0000
  H   H80       1.0  0.16263  0.46643  0.43579  1.0000
  H   H81       1.0  0.17197  0.26873  0.18264  1.0000
  H   H82       1.0  0.99982  0.35185  0.46270  1.0000
  C   C104      1.0  0.16142  0.16128  0.09276  1.0000
  H   H83       1.0  0.16481  0.43204  0.49544  1.0000
  C   C105      1.0  0.06126  0.47563  0.26169  1.0000
  C   C106      1.0  0.19814  0.08244  0.10031  1.0000
  C   C107      1.0  0.26568  0.12335  0.22818  1.0000
  H   H84       1.0  0.31638  0.18238  0.23715  1.0000
  H   H85       1.0  0.01345  0.31225  0.15749  1.0000
  C   C108      1.0  0.30998  0.15022  0.17183  1.0000
  H   H86       1.0  0.21545  0.16770  0.09372  1.0000
  H   H87       1.0  0.04009  0.44855  0.31791  1.0000
  C   C109      1.0  0.28940  0.01241  0.27703  1.0000
  C   C110      1.0  0.19399  0.07613  0.04490  1.0000
  C   C111      1.0  0.18647  0.16693  0.04185  1.0000
  C   C112      1.0  0.25611  0.03963  0.29105  1.0000
  C   C113      1.0  0.27219  0.04587  0.27427  1.0000
  C   C114      1.0  0.28873  0.03230  0.26721  1.0000
  C   C115      1.0  0.02391  0.29928  0.16221  1.0000
  H   H88       1.0  0.17979  0.13407  0.10090  1.0000
  H   H89       1.0  0.15495  0.40560  0.38843  1.0000
  C   C116      1.0  0.01050  0.46824  0.38147  1.0000
  H   H90       1.0  0.01564  0.26227  0.23563  1.0000
  C   C117      1.0  0.28136  0.12137  0.27954  1.0000
  H   H91       1.0  0.02019  0.34633  0.38691  1.0000
  C   C118      1.0  0.01718  0.28182  0.17440  1.0000
  C   C119      1.0  0.00374  0.48336  0.40267  1.0000
  C   C120      1.0  0.05255  0.16040  0.15505  1.0000
  H   H92       1.0  0.23980  0.10729  0.22287  1.0000
  C   C121      1.0  0.00462  0.29533  0.28845  1.0000
  C   C122      1.0  0.20046  0.09466  0.03786  1.0000
  C   C123      1.0  0.05794  0.28345  0.16197  1.0000
  H   H93       1.0  0.10151  0.45730  0.41399  1.0000
  H   H94       1.0  0.15553  0.32488  0.22760  1.0000
  C   C124      1.0  0.02584  0.15996  0.10470  1.0000
  H   H95       1.0  0.24318  0.05009  0.29616  1.0000
  H   H96       1.0  0.27190  0.06118  0.26646  1.0000
  H   H97       1.0  0.30109  0.03741  0.25434  1.0000
  C   C125      1.0  0.25679  0.01989  0.30137  1.0000
  C   C126      1.0  0.17256  0.27808  0.20323  1.0000
  P   P5        1.0  0.05444  0.16593  0.05929  1.0000
  C   C127      1.0  0.04832  0.19225  0.05221  1.0000
  C   C128      1.0  0.04606  0.16212  0.09887  1.0000
  C   C129      1.0  0.25884  0.19464  0.22983  1.0000
  H   H98       1.0  0.00336  0.15680  0.13988  1.0000
  C   C130      1.0  0.09074  0.48096  0.35168  1.0000
  H   H99       1.0  0.07467  0.16564  0.12068  1.0000
  H   H100      1.0  0.99661  0.41561  0.26870  1.0000
  C   C131      1.0  0.02980  0.19942  0.03897  1.0000
  C   C132      1.0  0.02501  0.21987  0.03408  1.0000
  C   C133      1.0  0.03851  0.23331  0.04283  1.0000
  C   C134      1.0  0.05669  0.22633  0.05688  1.0000
  C   C135      1.0  0.06149  0.20592  0.06189  1.0000
  C   C136      1.0  0.08081  0.15825  0.05497  1.0000
  H   H101      1.0  0.27655  0.12092  0.10936  1.0000
  C   C137      1.0  0.30666  0.13637  0.19540  1.0000
  H   H102      1.0  0.11642  0.12159  0.07887  1.0000
  C   C138      1.0  0.00442  0.40282  0.42841  1.0000
  C   C139      1.0  0.08933  0.14076  0.06970  1.0000
  H   H103      1.0  0.03715  0.26548  0.31144  1.0000
  H   H104      1.0  0.06264  0.16159  0.17470  1.0000
  H   H105      1.0  0.10129  0.48975  0.45274  1.0000
  H   H106      1.0  0.26790  0.10332  0.31366  1.0000
  H   H107      1.0  0.18745  0.05584  0.08175  1.0000
  C   C140      1.0  0.21895  0.01820  0.05233  1.0000
  H   H108      1.0  0.03480  0.24915  0.03911  1.0000
  H   H109      1.0  0.06708  0.23672  0.06414  1.0000
  H   H110      1.0  0.07546  0.20091  0.07353  1.0000
  C   C141      1.0  0.13151  0.47574  0.44644  1.0000
  H   H111      1.0  0.26486  0.12872  0.20419  1.0000
  H   H112      1.0  0.02595  0.25057  0.18449  1.0000
  C   C142      1.0  0.12187  0.14622  0.04906  1.0000
  C   C143      1.0  0.17186  0.30256  0.25643  1.0000
  H   H113      1.0  0.06154  0.25276  0.17722  1.0000
  H   H114      1.0  0.17080  0.31187  0.27731  1.0000
  C   C144      1.0  0.28388  0.08581  0.00702  1.0000
  C   C145      1.0  0.08472  0.44859  0.28070  1.0000
  C   C146      1.0  0.27349  0.00636  0.29475  1.0000
  H   H115      1.0  0.13046  0.43170  0.40950  1.0000
  H   H116      1.0  0.04952  0.23242  0.28973  1.0000
  C   C147      1.0  0.26824  0.01555  0.01653  1.0000
  H   H117      1.0  0.30153  0.21741  0.23604  1.0000
  H   H118      1.0  0.09961  0.44061  0.28085  1.0000
  C   C148      1.0  0.23375  0.22295  0.29890  1.0000
  C   C149      1.0  0.02325  0.40394  0.41510  1.0000
  H   H119      1.0  0.24145  0.17626  0.13033  1.0000
  C   C150      1.0  0.07312  0.43224  0.47969  1.0000
  H   H120      1.0  0.30642  0.16227  0.29563  1.0000
  C   C151      1.0  0.07437  0.44539  0.42698  1.0000
  C   C152      1.0  0.09363  0.45059  0.43268  1.0000
  C   C153      1.0  0.10270  0.44702  0.46215  1.0000
  C   C154      1.0  0.22072  0.13298  0.01343  1.0000
  P   P6        1.0  0.12778  0.45364  0.46886  1.0000
  C   C155      1.0  0.14524  0.43345  0.45462  1.0000
  C   C156      1.0  0.20501  0.10080  0.09334  1.0000
  H   H121      1.0  0.30883  0.00982  0.15612  1.0000
  H   H122      1.0  0.08019  0.13188  0.08377  1.0000
  H   H123      1.0  0.01069  0.22532  0.02387  1.0000
  C   C157      1.0  0.12583  0.38288  0.47878  1.0000
  H   H124      1.0  0.18356  0.39149  0.42112  1.0000
  C   C158      1.0  0.16202  0.42607  0.47246  1.0000
  C   C159      1.0  0.17563  0.41080  0.46056  1.0000
  C   C160      1.0  0.17297  0.40324  0.43044  1.0000
  C   C161      1.0  0.15674  0.41098  0.41217  1.0000
  C   C162      1.0  0.14284  0.42589  0.42425  1.0000
  H   H125      1.0  0.07375  0.28409  0.15761  1.0000
  H   H126      1.0  0.14624  0.18983  0.08085  1.0000
  H   H127      1.0  0.27216  0.15300  0.13833  1.0000
  C   C163      1.0  0.06998  0.44251  0.30053  1.0000
  C   C164      1.0  0.17716  0.14682  0.08554  1.0000
  C   C165      1.0  0.20591  0.10725  0.06208  1.0000
  H   H128      1.0  0.20848  0.01570  0.00480  1.0000
  C   C166      1.0  0.24342  0.16224  0.11772  1.0000
  H   H129      1.0  0.24442  0.01509  0.31466  1.0000
  C   C167      1.0  0.31590  0.10939  0.15857  1.0000
  C   C168      1.0  0.28794  0.17006  0.23389  1.0000
  H   H130      1.0  0.30755  0.10500  0.20648  1.0000
  P   P7        1.0  0.02127  0.48224  0.28106  1.0000
  C   C169      1.0  0.28075  0.12858  0.24852  1.0000
  C   C170      1.0  0.04196  0.15086  0.03201  1.0000
  H   H131      1.0  0.02273  0.43789  0.27324  1.0000
  H   H132      1.0  0.02286  0.47274  0.21435  1.0000
  C   C171      1.0  0.22742  0.00795  0.07837  1.0000
  C   C172      1.0  0.15025  0.47792  0.43305  1.0000
  C   C173      1.0  0.03608  0.13238  0.04135  1.0000
  C   C174      1.0  0.30027  0.18562  0.23537  1.0000
  C   C175      1.0  0.28986  0.01665  0.06199  1.0000
  C   C176      1.0  0.10982  0.13483  0.06685  1.0000
  C   C177      1.0  0.00022  0.20486  0.17913  1.0000
  C   C178      1.0  0.30976  0.11594  0.18855  1.0000
  H   H133      1.0  0.24278  0.19811  0.22754  1.0000
  H   H134      1.0  0.01889  0.18932  0.03287  1.0000
  S   S24       1.0  0.31638  0.06262  0.20946  1.0000
  H   H135      1.0  0.29209  0.02119  0.08609  1.0000
  H   H136      1.0  0.04899  0.43274  0.44637  1.0000
  H   H137      1.0  0.29294  0.12480  0.29571  1.0000
  H   H138      1.0  0.19656  0.16985  0.02299  1.0000
  C   C179      1.0  0.21471  0.00771  0.02523  1.0000
  C   C180      1.0  0.29191  0.20550  0.23461  1.0000
  H   H139      1.0  0.09212  0.47040  0.24708  1.0000
  C   C181      1.0  0.00189  0.25533  0.23421  1.0000
  C   C182      1.0  0.26715  0.17474  0.23069  1.0000
  C   C183      1.0  0.06398  0.43654  0.45066  1.0000
  C   C184      1.0  0.01914  0.15766  0.13544  1.0000
  C   C185      1.0  0.27120  0.21001  0.23197  1.0000
  H   H140      1.0  0.08671  0.18243  0.02379  1.0000
  H   H141      1.0  0.29438  0.00182  0.20699  1.0000
  H   H142      1.0  0.26474  0.22541  0.23153  1.0000
  H   H143      1.0  0.02540  0.46775  0.37160  1.0000
  H   H144      1.0  0.24980  0.11128  0.07460  1.0000
  H   H145      1.0  0.07486  0.48353  0.35605  1.0000
  C   C186      1.0  0.27131  0.02136  0.04761  1.0000
  C   C187      1.0  0.31597  0.14361  0.14172  1.0000
  C   C188      1.0  0.02683  0.12054  0.01988  1.0000
  C   C189      1.0  0.32755  0.99982  0.30259  1.0000
  C   C190      1.0  0.99731  0.20469  0.14656  1.0000
  H   H146      1.0  0.16788  0.19478  0.03510  1.0000
  C   C191      1.0  0.00780  0.32881  0.30670  1.0000
  C   C192      1.0  0.00280  0.39370  0.45767  1.0000
  H   H147      1.0  0.05242  0.38190  0.47271  1.0000
  H   H148      1.0  0.01164  0.20709  0.10164  1.0000
  H   H149      1.0  0.00057  0.40745  0.32506  1.0000
  C   C193      1.0  0.00739  0.44440  0.27403  1.0000
  H   H150      1.0  0.18829  0.40489  0.47470  1.0000
  C   C194      1.0  0.00226  0.46507  0.27766  1.0000
  H   H151      1.0  0.05330  0.48447  0.49342  1.0000
  H   H152      1.0  0.01682  0.34063  0.31291  1.0000
  H   H153      1.0  0.20129  0.09891  0.01346  1.0000
  C   C195      1.0  0.11583  0.49103  0.44252  1.0000
  H   H154      1.0  0.07118  0.11174  0.00120  1.0000
  H   H155      1.0  0.30798  0.16605  0.17653  1.0000
  C   C196      1.0  0.31883  0.12321  0.13507  1.0000
  C   C197      1.0  0.01939  0.48874  0.21656  1.0000
  H   H156      1.0  0.00852  0.31328  0.21800  1.0000
  C   C198      1.0  0.24594  0.07268  0.00406  1.0000
  H   H157      1.0  0.32333  0.11802  0.11173  1.0000
  H   H158      1.0  0.23120  0.06766  0.00295  1.0000
  C   C199      1.0  0.32228  0.00183  0.23267  1.0000
  H   H159      1.0  0.31844  0.15429  0.12350  1.0000
  C   C200      1.0  0.99891  0.23995  0.25516  1.0000
  H   H160      1.0  0.00300  0.44241  0.35572  1.0000
  H   H161      1.0  0.32623  0.09581  0.31140  1.0000
  C   C201      1.0  0.31832  0.00837  0.17676  1.0000
  C   C202      1.0  0.03955  0.15675  0.00053  1.0000
  P   P8        1.0  0.31147  0.99549  0.26966  1.0000
  C   C203      1.0  0.28385  0.00501  0.99957  1.0000
  H   H162      1.0  0.01795  0.49343  0.16650  1.0000
  C   C204      1.0  0.12235  0.49358  0.34096  1.0000
  H   H163      1.0  0.06545  0.42452  0.49760  1.0000
  Fe  Fe13      1.0  0.28564  0.08503  0.83914  1.0000
  S   S25       1.0  0.26487  0.07687  0.80127  1.0000
  S   S26       1.0  0.31811  0.09094  0.82932  1.0000
  Fe  Fe14      1.0  0.25520  0.07739  0.89104  1.0000
  S   S27       1.0  0.23321  0.06757  0.85568  1.0000
  S   S28       1.0  0.24242  0.07625  0.94038  1.0000
  Fe  Fe15      1.0  0.25989  0.05081  0.83234  1.0000
  H   H164      1.0  0.10480  0.49075  0.72210  1.0000
  Fe  Fe16      1.0  0.24012  0.09468  0.82871  1.0000
  S   S29       1.0  0.21529  0.11538  0.80461  1.0000
  S   S30       1.0  0.28126  0.05857  0.86970  1.0000
  S   S31       1.0  0.26144  0.10500  0.86462  1.0000
  Fe  Fe17      1.0  0.11439  0.42372  0.67200  1.0000
  S   S32       1.0  0.10303  0.42465  0.62241  1.0000
  S   S33       1.0  0.11832  0.45078  0.70268  1.0000
  Fe  Fe18      1.0  0.10883  0.37848  0.67978  1.0000
  S   S34       1.0  0.09714  0.37628  0.63024  1.0000
  S   S35       1.0  0.10607  0.35734  0.72168  1.0000
  Fe  Fe19      1.0  0.12148  0.39515  0.61660  1.0000
  S   S36       1.0  0.13913  0.39084  0.57117  1.0000
  Fe  Fe20      1.0  0.07971  0.40596  0.63945  1.0000
  S   S37       1.0  0.04758  0.41573  0.62812  1.0000
  S   S38       1.0  0.13488  0.39530  0.66567  1.0000
  S   S39       1.0  0.08939  0.40710  0.68925  1.0000
  Fe  Fe21      1.0  0.12822  0.20954  0.84560  1.0000
  S   S40       1.0  0.13172  0.24230  0.85202  1.0000
  S   S41       1.0  0.15435  0.18652  0.86093  1.0000
  Fe  Fe22      1.0  0.08304  0.21892  0.83007  1.0000
  S   S42       1.0  0.08372  0.25197  0.83539  1.0000
  S   S43       1.0  0.05502  0.20572  0.81310  1.0000
  Fe  Fe23      1.0  0.11264  0.24785  0.80847  1.0000
  S   S44       1.0  0.12061  0.26588  0.76518  1.0000
  Fe  Fe24      1.0  0.10255  0.24377  0.87836  1.0000
  S   S45       1.0  0.09590  0.26055  0.92419  1.0000
  S   S46       1.0  0.11102  0.21486  0.80034  1.0000
  S   S47       1.0  0.09987  0.21105  0.87467  1.0000
  H   H165      1.0  0.03542  0.34676  0.64683  1.0000
  C   C205      1.0  0.03180  0.20787  0.83320  1.0000
  H   H166      1.0  0.24776  0.13954  0.68343  1.0000
  C   C206      1.0  0.11547  0.49178  0.70332  1.0000
  H   H167      1.0  0.01546  0.19891  0.79280  1.0000
  C   C207      1.0  0.10216  0.24804  0.95998  1.0000
  C   C208      1.0  0.11358  0.22950  0.96021  1.0000
  C   C209      1.0  0.02989  0.31347  0.68391  1.0000
  H   H168      1.0  0.11897  0.22279  0.93831  1.0000
  C   C210      1.0  0.27998  0.10177  0.71807  1.0000
  C   C211      1.0  0.02129  0.45819  0.71324  1.0000
  C   C212      1.0  0.03229  0.39668  0.63476  1.0000
  C   C213      1.0  0.04082  0.37731  0.64074  1.0000
  C   C214      1.0  0.02416  0.32543  0.70991  1.0000
  H   H169      1.0  0.05679  0.37413  0.64275  1.0000
  C   C215      1.0  0.10529  0.38576  0.53631  1.0000
  C   C216      1.0  0.12584  0.38740  0.53593  1.0000
  C   C217      1.0  0.02095  0.26220  0.75776  1.0000
  H   H170      1.0  0.09723  0.38677  0.55834  1.0000
  H   H171      1.0  0.07880  0.26069  0.74940  1.0000
  C   C218      1.0  0.11552  0.29123  0.75302  1.0000
  C   C219      1.0  0.12198  0.29682  0.72310  1.0000
  C   C220      1.0  0.11933  0.31688  0.71300  1.0000
  C   C221      1.0  0.11011  0.33167  0.73274  1.0000
  C   C222      1.0  0.10341  0.32603  0.76249  1.0000
  C   C223      1.0  0.10601  0.30598  0.77256  1.0000
  H   H172      1.0  0.12938  0.28557  0.70776  1.0000
  H   H173      1.0  0.12454  0.32089  0.69005  1.0000
  H   H174      1.0  0.09596  0.33731  0.77770  1.0000
  H   H175      1.0  0.10093  0.30192  0.79554  1.0000
  C   C224      1.0  0.01962  0.45720  0.74614  1.0000
  H   H176      1.0  0.06087  0.29314  0.82975  1.0000
  H   H177      1.0  0.00576  0.45045  0.51697  1.0000
  C   C225      1.0  0.12412  0.47428  0.68865  1.0000
  C   C226      1.0  0.13801  0.47583  0.66456  1.0000
  H   H178      1.0  0.08982  0.33364  0.55771  1.0000
  H   H179      1.0  0.19107  0.13507  0.99338  1.0000
  C   C227      1.0  0.01199  0.21326  0.88079  1.0000
  H   H180      1.0  0.14523  0.46241  0.65387  1.0000
  H   H181      1.0  0.29411  0.17550  0.71232  1.0000
  C   C228      1.0  0.19845  0.13510  0.82082  1.0000
  C   C229      1.0  0.19797  0.13965  0.85297  1.0000
  C   C230      1.0  0.18442  0.15541  0.86464  1.0000
  C   C231      1.0  0.17112  0.16687  0.84447  1.0000
  C   C232      1.0  0.17161  0.16233  0.81234  1.0000
  C   C233      1.0  0.18515  0.14657  0.80067  1.0000
  H   H182      1.0  0.20800  0.13100  0.86885  1.0000
  H   H183      1.0  0.18420  0.15872  0.88952  1.0000
  H   H184      1.0  0.16154  0.17096  0.79648  1.0000
  H   H185      1.0  0.18536  0.14327  0.77578  1.0000
  C   C234      1.0  0.25545  0.07756  0.97618  1.0000
  C   C235      1.0  0.27454  0.08397  0.97767  1.0000
  H   H186      1.0  0.00861  0.23895  0.70601  1.0000
  H   H187      1.0  0.28186  0.08795  0.95631  1.0000
  H   H188      1.0  0.22594  0.17997  0.83316  1.0000
  H   H189      1.0  0.13776  0.46884  0.59944  1.0000
  C   C236      1.0  0.14683  0.37749  0.84065  1.0000
  C   C237      1.0  0.17462  0.30363  0.73867  1.0000
  H   H190      1.0  0.01756  0.47060  0.76023  1.0000
  H   H191      1.0  0.13121  0.49057  0.50516  1.0000
  C   C238      1.0  0.26029  0.15428  0.76809  1.0000
  H   H192      1.0  0.05433  0.30185  0.65422  1.0000
  H   H193      1.0  0.15191  0.38754  0.50652  1.0000
  H   H194      1.0  0.30663  0.08172  0.76460  1.0000
  H   H195      1.0  0.03585  0.21447  0.95598  1.0000
  C   C239      1.0  0.02225  0.40931  0.54786  1.0000
  C   C240      1.0  0.04405  0.48694  0.67804  1.0000
  H   H196      1.0  0.07263  0.08208  0.96626  1.0000
  C   C241      1.0  0.04029  0.36206  0.52698  1.0000
  H   H197      1.0  0.10699  0.34843  0.82992  1.0000
  H   H198      1.0  0.14436  0.40923  0.84893  1.0000
  H   H199      1.0  0.08234  0.14322  0.98184  1.0000
  H   H200      1.0  0.22386  0.04251  0.91295  1.0000
  C   C242      1.0  0.25705  0.15145  0.67927  1.0000
  H   H201      1.0  0.07061  0.21748  0.97377  1.0000
  C   C243      1.0  0.06732  0.20475  0.95980  1.0000
  C   C244      1.0  0.04776  0.20306  0.94981  1.0000
  C   C245      1.0  0.04361  0.18665  0.93174  1.0000
  C   C246      1.0  0.05903  0.17213  0.92321  1.0000
  C   C247      1.0  0.07879  0.17393  0.93258  1.0000
  C   C248      1.0  0.08274  0.19019  0.95137  1.0000
  P   P9        1.0  0.09846  0.15476  0.92198  1.0000
  C   C249      1.0  0.12179  0.15910  0.94062  1.0000
  C   C250      1.0  0.09043  0.13159  0.93563  1.0000
  C   C251      1.0  0.08308  0.13038  0.96638  1.0000
  C   C252      1.0  0.22878  0.02821  0.92350  1.0000
  C   C253      1.0  0.14343  0.36226  0.81936  1.0000
  C   C254      1.0  0.08481  0.09701  0.92706  1.0000
  C   C255      1.0  0.09123  0.11480  0.91598  1.0000
  C   C256      1.0  0.13184  0.17513  0.93054  1.0000
  C   C257      1.0  0.15032  0.17841  0.94340  1.0000
  C   C258      1.0  0.13133  0.45854  0.51023  1.0000
  H   H202      1.0  0.24125  0.14529  0.84033  1.0000
  C   C259      1.0  0.13068  0.14617  0.96369  1.0000
  C   C260      1.0  0.10331  0.15408  0.88012  1.0000
  C   C261      1.0  0.08960  0.16343  0.85845  1.0000
  C   C262      1.0  0.09412  0.16319  0.82635  1.0000
  C   C263      1.0  0.11230  0.15369  0.81561  1.0000
  C   C264      1.0  0.12594  0.14422  0.83692  1.0000
  C   C265      1.0  0.12151  0.14444  0.86902  1.0000
  C   C266      1.0  0.26686  0.11734  0.73061  1.0000
  H   H203      1.0  0.05555  0.15958  0.90905  1.0000
  H   H204      1.0  0.09768  0.19175  0.95949  1.0000
  H   H205      1.0  0.02398  0.40680  0.75564  1.0000
  H   H206      1.0  0.24307  0.15914  0.63472  1.0000
  H   H207      1.0  0.09670  0.11538  0.89210  1.0000
  H   H208      1.0  0.12556  0.18496  0.91222  1.0000
  H   H209      1.0  0.02843  0.18524  0.92408  1.0000
  H   H210      1.0  0.07969  0.31876  0.68372  1.0000
  C   C267      1.0  0.02407  0.44035  0.69600  1.0000
  H   H211      1.0  0.12356  0.13344  0.97161  1.0000
  H   H212      1.0  0.07567  0.17148  0.86595  1.0000
  H   H213      1.0  0.08366  0.17077  0.80983  1.0000
  H   H214      1.0  0.11596  0.15397  0.79083  1.0000
  H   H215      1.0  0.14023  0.13720  0.82868  1.0000
  H   H216      1.0  0.13256  0.13747  0.88518  1.0000
  C   C268      1.0  0.27350  0.08298  0.71294  1.0000
  H   H217      1.0  0.06338  0.22970  0.76051  1.0000
  H   H218      1.0  0.02606  0.43557  0.57507  1.0000
  C   C269      1.0  0.23381  0.13149  0.95062  1.0000
  H   H219      1.0  0.15383  0.37404  0.86316  1.0000
  C   C270      1.0  0.01099  0.30770  0.82417  1.0000
  C   C271      1.0  0.09555  0.25671  0.98872  1.0000
  P   P10       1.0  0.27516  0.14165  0.73720  1.0000
  H   H220      1.0  0.22541  0.09258  0.73820  1.0000
  C   C272      1.0  0.20572  0.33102  0.87106  1.0000
  C   C273      1.0  0.13221  0.47810  0.52120  1.0000
  H   H221      1.0  0.23888  0.13030  0.92643  1.0000
  C   C274      1.0  0.03321  0.24416  0.76115  1.0000
  C   C275      1.0  0.00836  0.36408  0.75755  1.0000
  C   C276      1.0  0.03843  0.33490  0.72682  1.0000
  C   C277      1.0  0.00872  0.39634  0.53702  1.0000
  C   C278      1.0  0.04710  0.30173  0.82252  1.0000
  C   C279      1.0  0.28028  0.18275  0.66770  1.0000
  C   C280      1.0  0.04765  0.31725  0.80094  1.0000
  C   C281      1.0  0.09522  0.38208  0.50826  1.0000
  C   C282      1.0  0.07540  0.46411  0.56388  1.0000
  C   C283      1.0  0.07582  0.34123  0.54928  1.0000
  H   H222      1.0  0.04537  0.35674  0.82613  1.0000
  H   H223      1.0  0.17336  0.16828  0.97619  1.0000
  C   C284      1.0  0.32499  0.03904  0.91227  1.0000
  C   C285      1.0  0.25660  0.14408  0.79589  1.0000
  H   H224      1.0  0.23646  0.12572  0.74645  1.0000
  H   H225      1.0  0.00476  0.41588  0.63069  1.0000
  C   C286      1.0  0.06361  0.35334  0.56963  1.0000
  C   C287      1.0  0.99991  0.25796  0.82538  1.0000
  C   C288      1.0  0.04992  0.31095  0.67454  1.0000
  H   H226      1.0  0.00425  0.25427  0.87529  1.0000
  H   H227      1.0  0.30833  0.03021  0.83412  1.0000
  C   C289      1.0  0.24773  0.13032  0.97512  1.0000
  H   H228      1.0  0.26377  0.18680  0.62433  1.0000
  C   C290      1.0  0.21531  0.01397  0.92724  1.0000
  C   C291      1.0  0.06999  0.33894  0.51807  1.0000
  H   H229      1.0  0.26261  0.12867  0.79904  1.0000
  C   C292      1.0  0.24354  0.99853  0.85088  1.0000
  C   C293      1.0  0.06665  0.37796  0.82066  1.0000
  C   C294      1.0  0.32788  0.02269  0.73143  1.0000
  C   C295      1.0  0.31158  0.00712  0.91633  1.0000
  C   C296      1.0  0.31133  0.04697  0.93484  1.0000
  H   H230      1.0  0.08536  0.45048  0.56135  1.0000
  C   C297      1.0  0.32249  0.08319  0.76492  1.0000
  C   C298      1.0  0.05880  0.47129  0.67070  1.0000
  C   C299      1.0  0.07760  0.09588  0.95775  1.0000
  H   H231      1.0  0.13712  0.43418  0.58042  1.0000
  H   H232      1.0  0.06791  0.35476  0.59398  1.0000
  C   C300      1.0  0.25529  0.00555  0.94643  1.0000
  P   P11       1.0  0.28102  0.99959  0.95830  1.0000
  H   H233      1.0  0.00859  0.32718  0.71685  1.0000
  C   C301      1.0  0.07638  0.38959  0.79971  1.0000
  H   H234      1.0  0.26358  0.12824  0.96986  1.0000
  C   C302      1.0  0.03025  0.14492  0.97911  1.0000
  C   C303      1.0  0.13251  0.40236  0.80362  1.0000
  C   C304      1.0  0.12873  0.38725  0.78266  1.0000
  C   C305      1.0  0.13400  0.36731  0.79065  1.0000
  H   H235      1.0  0.01530  0.25261  0.82016  1.0000
  C   C306      1.0  0.12960  0.32499  0.84467  1.0000
  C   C307      1.0  0.10999  0.33435  0.84207  1.0000
  C   C308      1.0  0.09394  0.32538  0.85483  1.0000
  C   C309      1.0  0.09740  0.30711  0.87045  1.0000
  C   C310      1.0  0.11686  0.29784  0.87333  1.0000
  C   C311      1.0  0.13289  0.30671  0.86059  1.0000
  H   H236      1.0  0.12861  0.41784  0.79715  1.0000
  H   H237      1.0  0.12185  0.39092  0.76001  1.0000
  H   H238      1.0  0.13109  0.35578  0.77412  1.0000
  H   H239      1.0  0.07883  0.33250  0.85246  1.0000
  H   H240      1.0  0.08507  0.30003  0.88042  1.0000
  H   H241      1.0  0.11954  0.28369  0.88547  1.0000
  H   H242      1.0  0.14787  0.29920  0.86305  1.0000
  H   H243      1.0  0.16263  0.27784  0.75790  1.0000
  H   H244      1.0  0.14967  0.29488  0.80548  1.0000
  C   C312      1.0  0.15898  0.16567  0.96654  1.0000
  C   C313      1.0  0.27160  0.15580  0.70125  1.0000
  C   C314      1.0  0.13447  0.48175  0.55331  1.0000
  H   H245      1.0  0.03624  0.48385  0.60834  1.0000
  C   C315      1.0  0.02379  0.12688  0.98882  1.0000
  C   C316      1.0  0.17719  0.32372  0.74315  1.0000
  C   C317      1.0  0.01145  0.40075  0.63364  1.0000
  H   H246      1.0  0.25891  0.03515  0.92905  1.0000
  H   H247      1.0  0.07948  0.38025  0.50911  1.0000
  C   C318      1.0  0.24453  0.15347  0.81941  1.0000
  C   C319      1.0  0.24701  0.11395  0.73711  1.0000
  C   C320      1.0  0.32218  0.02268  0.82507  1.0000
  H   H248      1.0  0.25446  0.18244  0.74340  1.0000
  C   C321      1.0  0.05064  0.27915  0.74857  1.0000
  C   C322      1.0  0.24059  0.09516  0.73204  1.0000
  H   H249      1.0  0.01870  0.30655  0.67066  1.0000
  H   H250      1.0  0.28386  0.07097  0.70384  1.0000
  C   C323      1.0  0.18087  0.33442  0.91237  1.0000
  C   C324      1.0  0.20090  0.33201  0.90301  1.0000
  C   C325      1.0  0.29435  0.02055  0.69314  1.0000
  C   C326      1.0  0.29201  0.02804  0.72372  1.0000
  C   C327      1.0  0.30879  0.02938  0.74264  1.0000
  H   H251      1.0  0.08835  0.46331  0.65215  1.0000
  H   H252      1.0  0.01104  0.21718  0.90542  1.0000
  C   C328      1.0  0.25194  0.17415  0.76449  1.0000
  H   H253      1.0  0.02678  0.23047  0.76641  1.0000
  C   C329      1.0  0.13549  0.44649  0.56394  1.0000
  C   C330      1.0  0.25917  0.99782  0.82911  1.0000
  H   H254      1.0  0.05837  0.45244  0.60112  1.0000
  H   H255      1.0  0.17713  0.33514  0.93715  1.0000
  H   H256      1.0  0.99753  0.33092  0.79422  1.0000
  C   C331      1.0  0.02986  0.27972  0.75174  1.0000
  H   H257      1.0  0.08981  0.47959  0.52781  1.0000
  C   C332      1.0  0.24873  0.02399  0.93281  1.0000
  H   H258      1.0  0.05750  0.29264  0.74382  1.0000
  H   H259      1.0  0.32606  0.07970  0.71465  1.0000
  C   C333      1.0  0.00033  0.46605  0.51475  1.0000
  C   C334      1.0  0.04587  0.36368  0.55860  1.0000
  C   C335      1.0  0.00789  0.36568  0.64098  1.0000
  C   C336      1.0  0.07687  0.47537  0.65712  1.0000
  C   C337      1.0  0.00199  0.47918  0.53986  1.0000
  C   C338      1.0  0.05209  0.34901  0.50708  1.0000
  C   C339      1.0  0.05885  0.37598  0.75614  1.0000
  H   H260      1.0  0.05666  0.45594  0.67547  1.0000
  H   H261      1.0  0.28135  0.01971  0.67833  1.0000
  P   P12       1.0  0.15059  0.33633  0.82864  1.0000
  H   H262      1.0  0.30690  0.03555  0.76612  1.0000
  C   C340      1.0  0.25383  0.07965  0.72004  1.0000
  H   H263      1.0  0.01145  0.36639  0.70699  1.0000
  C   C341      1.0  0.06416  0.32053  0.69103  1.0000
  H   H264      1.0  0.03651  0.37279  0.57485  1.0000
  H   H265      1.0  0.22126  0.32914  0.86380  1.0000
  C   C342      1.0  0.05307  0.36529  0.80939  1.0000
  C   C343      1.0  0.25429  0.16260  0.65161  1.0000
  C   C344      1.0  0.31347  0.01415  0.68167  1.0000
  H   H266      1.0  0.15799  0.19071  0.93484  1.0000
  C   C345      1.0  0.04948  0.36378  0.77693  1.0000
  H   H267      1.0  0.08698  0.39938  0.80829  1.0000
  C   C346      1.0  0.00257  0.37097  0.72744  1.0000
  C   C347      1.0  0.01544  0.42604  0.56577  1.0000
  H   H268      1.0  0.08542  0.08410  0.91175  1.0000
  C   C348      1.0  0.15760  0.30317  0.78877  1.0000
  C   C349      1.0  0.07235  0.38871  0.76758  1.0000
  C   C350      1.0  0.02866  0.36179  0.64332  1.0000
  H   H269      1.0  0.17981  0.29608  0.71725  1.0000
  C   C351      1.0  0.14143  0.39748  0.83270  1.0000
  C   C352      1.0  0.16502  0.29334  0.76161  1.0000
  C   C353      1.0  0.15996  0.32341  0.79344  1.0000
  H   H270      1.0  0.19462  0.33155  0.82384  1.0000
  C   C354      1.0  0.20688  0.13426  0.98857  1.0000
  S   S48       1.0  0.26660  0.01968  0.81150  1.0000
  C   C355      1.0  0.17006  0.33354  0.77051  1.0000
  H   H271      1.0  0.27724  0.03286  0.73291  1.0000
  H   H272      1.0  0.15020  0.33773  0.89749  1.0000
  H   H273      1.0  0.05597  0.37552  0.73107  1.0000
  C   C356      1.0  0.22174  0.99550  0.94059  1.0000
  H   H274      1.0  0.23288  0.19855  0.78480  1.0000
  C   C357      1.0  0.29769  0.01504  0.93889  1.0000
  C   C358      1.0  0.17036  0.33465  0.85763  1.0000
  C   C359      1.0  0.02510  0.42191  0.71127  1.0000
  H   H275      1.0  0.18447  0.33177  0.72521  1.0000
  H   H276      1.0  0.29703  0.14088  0.79779  1.0000
  H   H277      1.0  0.04352  0.21709  0.87730  1.0000
  H   H278      1.0  0.02539  0.44073  0.67069  1.0000
  C   C360      1.0  0.19053  0.33237  0.84842  1.0000
  C   C361      1.0  0.29780  0.03503  0.94820  1.0000
  H   H279      1.0  0.17230  0.34909  0.77354  1.0000
  H   H280      1.0  0.23606  0.01278  0.85805  1.0000
  C   C362      1.0  0.05842  0.33237  0.71714  1.0000
  H   H281      1.0  0.24888  0.06501  0.71670  1.0000
  C   C363      1.0  0.16565  0.33580  0.88980  1.0000
  C   C364      1.0  0.01451  0.20316  0.81732  1.0000
  C   C365      1.0  0.01148  0.32318  0.80238  1.0000
  H   H282      1.0  0.28738  0.04146  0.96579  1.0000
  C   C366      1.0  0.13598  0.46599  0.57465  1.0000
  H   H283      1.0  0.02079  0.29382  0.74960  1.0000
  H   H284      1.0  0.13289  0.42752  0.52414  1.0000
  H   H285      1.0  0.29526  0.10400  0.71251  1.0000
  C   C367      1.0  0.03036  0.21335  0.86487  1.0000
  C   C368      1.0  0.13313  0.44277  0.53193  1.0000
  C   C369      1.0  0.21337  0.13356  0.95733  1.0000
  C   C370      1.0  0.02328  0.42109  0.74390  1.0000
  H   H286      1.0  0.02737  0.40824  0.69776  1.0000
  C   C371      1.0  0.05397  0.24366  0.75791  1.0000
  H   H287      1.0  0.06198  0.32051  0.79167  1.0000
  C   C372      1.0  0.06269  0.26113  0.75167  1.0000
  H   H288      1.0  0.31510  0.00844  0.65789  1.0000
  C   C373      1.0  0.06015  0.46519  0.58627  1.0000
  H   H289      1.0  0.20262  0.13410  0.93824  1.0000
  H   H290      1.0  0.06962  0.33934  0.72994  1.0000
  C   C374      1.0  0.26593  0.17820  0.64578  1.0000
  H   H291      1.0  0.20002  0.01716  0.91923  1.0000
  H   H292      1.0  0.15585  0.13961  0.99461  1.0000
  C   C375      1.0  0.02057  0.43873  0.76133  1.0000
  H   H293      1.0  0.06959  0.37884  0.84563  1.0000
  H   H294      1.0  0.07996  0.39771  0.75145  1.0000
  P   P13       1.0  0.01736  0.37528  0.51259  1.0000
  H   H295      1.0  0.21269  0.33086  0.92052  1.0000
  P   P14       1.0  0.03128  0.34799  0.76276  1.0000
  H   H296      1.0  0.02844  0.28490  0.85091  1.0000
  H   H297      1.0  0.07950  0.32964  0.50222  1.0000
  C   C376      1.0  0.07678  0.11256  0.97742  1.0000
  C   C377      1.0  0.14917  0.14955  0.97670  1.0000
  H   H298      1.0  0.99653  0.35764  0.56393  1.0000
  H   H299      1.0  0.03810  0.40630  0.54297  1.0000
  H   H300      1.0  0.01646  0.11783  0.97221  1.0000
  C   C378      1.0  0.02879  0.29702  0.83427  1.0000
  C   C379      1.0  0.02987  0.32826  0.79100  1.0000
  C   C380      1.0  0.28306  0.17166  0.69540  1.0000
  H   H301      1.0  0.31110  0.06245  0.94180  1.0000
  H   H302      1.0  0.02797  0.14976  0.95498  1.0000
  C   C381      1.0  0.23588  0.17303  0.81533  1.0000
  C   C382      1.0  0.32523  0.01909  0.90327  1.0000
  C   C383      1.0  0.13602  0.38622  0.50701  1.0000
  C   C384      1.0  0.23970  0.18341  0.78798  1.0000
  H   H303      1.0  0.28926  0.19490  0.66326  1.0000
  H   H304      1.0  0.00859  0.47375  0.56190  1.0000
  C   C385      1.0  0.32809  0.13737  0.78622  1.0000
  H   H305      1.0  0.08684  0.27113  0.98873  1.0000
  C   C386      1.0  0.11798  0.21956  0.98880  1.0000
  C   C387      1.0  0.04765  0.48291  0.59029  1.0000
  H   H306      1.0  0.01922  0.43810  0.78666  1.0000
  C   C388      1.0  0.30147  0.13906  0.74729  1.0000
  H   H307      1.0  0.04478  0.17053  0.99264  1.0000
  C   C389      1.0  0.00234  0.48394  0.66095  1.0000
  C   C390      1.0  0.99959  0.35703  0.51312  1.0000
  C   C391      1.0  0.07797  0.48066  0.54515  1.0000
  C   C392      1.0  0.99921  0.38523  0.63653  1.0000
  C   C393      1.0  0.99705  0.37121  0.78369  1.0000
  H   H308      1.0  0.12671  0.20517  0.98867  1.0000
  C   C394      1.0  0.30771  0.13942  0.77878  1.0000
  H   H309      1.0  0.31161  0.13538  0.69904  1.0000
  P   P15       1.0  0.01988  0.48208  0.69336  1.0000
  C   C395      1.0  0.32378  0.00214  0.81977  1.0000
  H   H310      1.0  0.00170  0.36674  0.80724  1.0000
  H   H311      1.0  0.09927  0.43326  0.50772  1.0000
  H   H312      1.0  0.31113  0.99400  0.82530  1.0000
  C   C396      1.0  0.31598  0.13629  0.72346  1.0000
  H   H313      1.0  0.99795  0.20859  0.68161  1.0000
  H   H314      1.0  0.99679  0.30378  0.83302  1.0000
  Fe  Fe25      1.0  0.26353  0.87151  0.12407  1.0000
  S   S49       1.0  0.23252  0.87530  0.14432  1.0000
  S   S50       1.0  0.25624  0.87250  0.07188  1.0000
  Fe  Fe26      1.0  0.28273  0.86821  0.19061  1.0000
  S   S51       1.0  0.25217  0.87075  0.21319  1.0000
  S   S52       1.0  0.30592  0.87065  0.23011  1.0000
  Fe  Fe27      1.0  0.24264  0.84968  0.17588  1.0000
  S   S53       1.0  0.22820  0.81993  0.17616  1.0000
  Fe  Fe28      1.0  0.24496  0.89595  0.17892  1.0000
  S   S54       1.0  0.23055  0.92679  0.19325  1.0000
  S   S55       1.0  0.27376  0.84536  0.15529  1.0000
  S   S56       1.0  0.27527  0.89381  0.15701  1.0000
  Fe  Fe29      1.0  0.12827  0.75777  0.17493  1.0000
  S   S57       1.0  0.14311  0.72625  0.17311  1.0000
  S   S58       1.0  0.14169  0.78739  0.18320  1.0000
  Fe  Fe30      1.0  0.08632  0.74376  0.16138  1.0000
  S   S59       1.0  0.09852  0.71161  0.15804  1.0000
  S   S60       1.0  0.05434  0.75452  0.14725  1.0000
  Fe  Fe31      1.0  0.11673  0.71746  0.20091  1.0000
  S   S61       1.0  0.11657  0.69946  0.24683  1.0000
  Fe  Fe32      1.0  0.12361  0.72287  0.13054  1.0000
  S   S62       1.0  0.13536  0.70667  0.08634  1.0000
  S   S63       1.0  0.10298  0.74944  0.20562  1.0000
  S   S64       1.0  0.11029  0.75468  0.13098  1.0000
  Fe  Fe33      1.0  0.11152  0.58319  0.40093  1.0000
  S   S65       1.0  0.12711  0.56714  0.35964  1.0000
  S   S66       1.0  0.12721  0.58234  0.44843  1.0000
  Fe  Fe34      1.0  0.07333  0.59317  0.36344  1.0000
  S   S67       1.0  0.08588  0.57784  0.32010  1.0000
  S   S68       1.0  0.04132  0.60660  0.36697  1.0000
  Fe  Fe35      1.0  0.09833  0.55320  0.35263  1.0000
  H   H315      1.0  0.29588  0.93160  0.17264  1.0000
  Fe  Fe36      1.0  0.11322  0.59341  0.33074  1.0000
  S   S69       1.0  0.12816  0.60777  0.28900  1.0000
  S   S70       1.0  0.08381  0.56796  0.39538  1.0000
  S   S71       1.0  0.09976  0.61024  0.37266  1.0000
  C   C397      1.0  0.02462  0.59209  0.34802  1.0000
  C   C398      1.0  0.00845  0.71561  0.32903  1.0000
  C   C399      1.0  0.14644  0.83453  0.00759  1.0000
  C   C400      1.0  0.02168  0.62909  0.09944  1.0000
  C   C401      1.0  0.01624  0.57061  0.30504  1.0000
  C   C402      1.0  0.03008  0.58145  0.32053  1.0000
  H   H316      1.0  0.01418  0.76002  0.01101  1.0000
  H   H317      1.0  0.04447  0.60417  0.10188  1.0000
  H   H318      1.0  0.02045  0.56266  0.28359  1.0000
  H   H319      1.0  0.04475  0.58198  0.31065  1.0000
  C   C403      1.0  0.03146  0.74795  0.16294  1.0000
  C   C404      1.0  0.01369  0.75331  0.14617  1.0000
  C   C405      1.0  0.99851  0.51920  0.35198  1.0000
  C   C406      1.0  0.23877  0.82430  0.04989  1.0000
  C   C407      1.0  0.01173  0.73399  0.20374  1.0000
  C   C408      1.0  0.03045  0.73807  0.19169  1.0000
  H   H320      1.0  0.01422  0.76114  0.12411  1.0000
  C   C409      1.0  0.03562  0.69881  0.10382  1.0000
  H   H321      1.0  0.01095  0.72699  0.22643  1.0000
  H   H322      1.0  0.04400  0.73403  0.20487  1.0000
  C   C410      1.0  0.12109  0.67397  0.25839  1.0000
  C   C411      1.0  0.12965  0.65904  0.23829  1.0000
  C   C412      1.0  0.13223  0.63899  0.24843  1.0000
  C   C413      1.0  0.12572  0.63347  0.27832  1.0000
  C   C414      1.0  0.11762  0.64847  0.29868  1.0000
  C   C415      1.0  0.11572  0.66858  0.28895  1.0000
  H   H323      1.0  0.13453  0.66297  0.21515  1.0000
  H   H324      1.0  0.13924  0.62761  0.23299  1.0000
  H   H325      1.0  0.11285  0.64459  0.32195  1.0000
  H   H326      1.0  0.10962  0.67998  0.30506  1.0000
  C   C416      1.0  0.23120  0.78691  0.07226  1.0000
  C   C417      1.0  0.11426  0.58760  0.48428  1.0000
  C   C418      1.0  0.09396  0.59474  0.48489  1.0000
  H   H327      1.0  0.05116  0.69803  0.11093  1.0000
  H   H328      1.0  0.08578  0.59704  0.46307  1.0000
  C   C419      1.0  0.12018  0.73775  0.04812  1.0000
  C   C420      1.0  0.13142  0.71917  0.04985  1.0000
  C   C421      1.0  0.14004  0.71064  0.02222  1.0000
  H   H329      1.0  0.11319  0.74440  0.06883  1.0000
  H   H330      1.0  0.14873  0.69623  0.02325  1.0000
  C   C422      1.0  0.20382  0.81143  0.17688  1.0000
  C   C423      1.0  0.18652  0.82406  0.18382  1.0000
  C   C424      1.0  0.16771  0.81646  0.18506  1.0000
  C   C425      1.0  0.16580  0.79616  0.17926  1.0000
  C   C426      1.0  0.18302  0.78359  0.17159  1.0000
  C   C427      1.0  0.20188  0.79117  0.17063  1.0000
  H   H331      1.0  0.18768  0.83964  0.18871  1.0000
  H   H332      1.0  0.15455  0.82637  0.19098  1.0000
  H   H333      1.0  0.18189  0.76796  0.16708  1.0000
  H   H334      1.0  0.21511  0.78122  0.16521  1.0000
  C   C428      1.0  0.04132  0.77283  0.07387  1.0000
  C   C429      1.0  0.19347  0.66425  0.22789  1.0000
  C   C430      1.0  0.26899  0.87433  0.03592  1.0000
  C   C431      1.0  0.27384  0.95877  0.05602  1.0000
  H   H335      1.0  0.26900  0.97319  0.04593  1.0000
  C   C432      1.0  0.01308  0.51842  0.24872  1.0000
  C   C433      1.0  0.20147  0.93359  0.12391  1.0000
  C   C434      1.0  0.26307  0.96434  0.14477  1.0000
  C   C435      1.0  0.25512  0.94713  0.15548  1.0000
  C   C436      1.0  0.24079  0.94838  0.17936  1.0000
  C   C437      1.0  0.23431  0.96723  0.19211  1.0000
  C   C438      1.0  0.01779  0.49766  0.24640  1.0000
  H   H336      1.0  0.27407  0.96309  0.12619  1.0000
  H   H337      1.0  0.25980  0.93296  0.14469  1.0000
  H   H338      1.0  0.22315  0.96839  0.21050  1.0000
  C   C439      1.0  0.05655  0.50352  0.42020  1.0000
  C   C440      1.0  0.18155  0.72698  0.24022  1.0000
  H   H339      1.0  0.07354  0.54036  0.46411  1.0000
  H   H340      1.0  0.03974  0.78158  0.09530  1.0000
  H   H341      1.0  0.16680  0.66386  0.30870  1.0000
  C   C441      1.0  0.21891  0.98696  0.02421  1.0000
  H   H342      1.0  0.13316  0.74150  0.26042  1.0000
  H   H343      1.0  0.10961  0.76254  0.01872  1.0000
  C   C442      1.0  0.06089  0.66880  0.40644  1.0000
  C   C443      1.0  0.06011  0.68580  0.42534  1.0000
  C   C444      1.0  0.05448  0.70455  0.41231  1.0000
  C   C445      1.0  0.04954  0.70631  0.38040  1.0000
  C   C446      1.0  0.04981  0.68927  0.36128  1.0000
  C   C447      1.0  0.05587  0.67048  0.37459  1.0000
  P   P16       1.0  0.04475  0.69197  0.31949  1.0000
  C   C448      1.0  0.01905  0.70086  0.31047  1.0000
  C   C449      1.0  0.06036  0.71010  0.30463  1.0000
  C   C450      1.0  0.05360  0.72327  0.28038  1.0000
  C   C451      1.0  0.06557  0.73767  0.26986  1.0000
  C   C452      1.0  0.08437  0.73894  0.28328  1.0000
  C   C453      1.0  0.09130  0.72574  0.30707  1.0000
  C   C454      1.0  0.07936  0.71137  0.31772  1.0000
  C   C455      1.0  0.29893  0.87559  0.00426  1.0000
  C   C456      1.0  0.23196  0.98727  0.07715  1.0000
  C   C457      1.0  0.01908  0.49862  0.31493  1.0000
  H   H344      1.0  0.10662  0.51958  0.42115  1.0000
  C   C458      1.0  0.04524  0.74921  0.01943  1.0000
  C   C459      1.0  0.05065  0.66823  0.30027  1.0000
  C   C460      1.0  0.03928  0.65245  0.30700  1.0000
  C   C461      1.0  0.04452  0.63359  0.29410  1.0000
  C   C462      1.0  0.06084  0.63043  0.27383  1.0000
  C   C463      1.0  0.07185  0.64622  0.26626  1.0000
  C   C464      1.0  0.06681  0.66506  0.27946  1.0000
  H   H345      1.0  0.06564  0.65424  0.41633  1.0000
  H   H346      1.0  0.06423  0.68443  0.44996  1.0000
  H   H347      1.0  0.05438  0.71778  0.42681  1.0000
  H   H348      1.0  0.04620  0.72105  0.37046  1.0000
  H   H349      1.0  0.05723  0.65699  0.36070  1.0000
  H   H350      1.0  0.03910  0.72263  0.26959  1.0000
  H   H351      1.0  0.04996  0.50544  0.31219  1.0000
  H   H352      1.0  0.09371  0.74999  0.27494  1.0000
  H   H353      1.0  0.10614  0.72637  0.31675  1.0000
  H   H354      1.0  0.08508  0.70115  0.33601  1.0000
  H   H355      1.0  0.01854  0.68434  0.26668  1.0000
  C   C465      1.0  0.00512  0.68298  0.09539  1.0000
  C   C466      1.0  0.00539  0.59155  0.36023  1.0000
  H   H356      1.0  0.02698  0.65450  0.32344  1.0000
  H   H357      1.0  0.03632  0.62125  0.30074  1.0000
  H   H358      1.0  0.06521  0.61566  0.26463  1.0000
  H   H359      1.0  0.08473  0.64376  0.25098  1.0000
  H   H360      1.0  0.07580  0.67697  0.27380  1.0000
  C   C467      1.0  0.26714  0.92592  0.07329  1.0000
  H   H361      1.0  0.10332  0.80438  0.03739  1.0000
  C   C468      1.0  0.11879  0.50800  0.42497  1.0000
  C   C469      1.0  0.25762  0.87487  0.00822  1.0000
  S   S72       1.0  0.08889  0.52165  0.34746  1.0000
  H   H362      1.0  0.09470  0.68445  0.03846  1.0000
  H   H363      1.0  0.13960  0.52313  0.39789  1.0000
  C   C470      1.0  0.18965  0.68213  0.24487  1.0000
  H   H364      1.0  0.27400  0.99126  0.30355  1.0000
  C   C471      1.0  0.18056  0.68172  0.27456  1.0000
  H   H365      1.0  0.24902  0.82974  0.09682  1.0000
  H   H366      1.0  0.07206  0.80479  0.12501  1.0000
  H   H367      1.0  0.07215  0.80307  0.06670  1.0000
  H   H368      1.0  0.32600  0.92189  0.27300  1.0000
  C   C472      1.0  0.02564  0.71721  0.09528  1.0000
  H   H369      1.0  0.13486  0.81097  0.12481  1.0000
  C   C473      1.0  0.16415  0.75061  0.08473  1.0000
  C   C474      1.0  0.17367  0.74258  0.05770  1.0000
  C   C475      1.0  0.17569  0.75466  0.03150  1.0000
  C   C476      1.0  0.16773  0.77463  0.03200  1.0000
  C   C477      1.0  0.15712  0.78253  0.05840  1.0000
  C   C478      1.0  0.15598  0.77053  0.08518  1.0000
  P   P17       1.0  0.14521  0.80784  0.05807  1.0000
  C   C479      1.0  0.30049  0.93606  0.07828  1.0000
  C   C480      1.0  0.12163  0.80793  0.07872  1.0000
  H   H370      1.0  0.27626  0.97846  0.24393  1.0000
  H   H371      1.0  0.21447  0.95967  0.10984  1.0000
  H   H372      1.0  0.01030  0.62326  0.25824  1.0000
  C   C481      1.0  0.10345  0.80842  0.12821  1.0000
  C   C482      1.0  0.12126  0.80948  0.11166  1.0000
  C   C483      1.0  0.23084  0.94040  0.00945  1.0000
  H   H373      1.0  0.24552  0.72649  0.30896  1.0000
  P   P18       1.0  0.23439  0.94977  0.04864  1.0000
  C   C484      1.0  0.20599  0.90528  0.08875  1.0000
  H   H374      1.0  0.17514  0.69147  0.12223  1.0000
  C   C485      1.0  0.16031  0.82424  0.07887  1.0000
  C   C486      1.0  0.18014  0.81793  0.08740  1.0000
  C   C487      1.0  0.19134  0.83070  0.10427  1.0000
  C   C488      1.0  0.18297  0.84977  0.11262  1.0000
  C   C489      1.0  0.16325  0.85617  0.10421  1.0000
  C   C490      1.0  0.15192  0.84342  0.08752  1.0000
  H   H375      1.0  0.16248  0.74120  0.10499  1.0000
  H   H376      1.0  0.17903  0.72690  0.05678  1.0000
  H   H377      1.0  0.07242  0.76307  0.08204  1.0000
  C   C491      1.0  0.01532  0.54570  0.44533  1.0000
  H   H378      1.0  0.14847  0.77633  0.10627  1.0000
  C   C492      1.0  0.25811  0.69557  0.24727  1.0000
  H   H379      1.0  0.24234  0.79661  0.11679  1.0000
  H   H380      1.0  0.30413  0.96575  0.06251  1.0000
  H   H381      1.0  0.01769  0.67601  0.41435  1.0000
  H   H382      1.0  0.24144  0.83901  0.04183  1.0000
  H   H383      1.0  0.01630  0.61422  0.01198  1.0000
  C   C493      1.0  0.06826  0.52606  0.45882  1.0000
  C   C494      1.0  0.21950  0.93621  0.07484  1.0000
  H   H384      1.0  0.03045  0.54709  0.45308  1.0000
  C   C495      1.0  0.23110  0.81071  0.02927  1.0000
  H   H385      1.0  0.18689  0.80310  0.08169  1.0000
  H   H386      1.0  0.20638  0.82565  0.11191  1.0000
  H   H387      1.0  0.19167  0.85935  0.12633  1.0000
  H   H388      1.0  0.17815  0.69511  0.28872  1.0000
  C   C496      1.0  0.30527  0.97011  0.26538  1.0000
  C   C497      1.0  0.09039  0.69139  0.01618  1.0000
  C   C498      1.0  0.21649  0.91634  0.06791  1.0000
  H   H389      1.0  0.30810  0.96489  0.17576  1.0000
  C   C499      1.0  0.20049  0.70846  0.12199  1.0000
  C   C500      1.0  0.29651  0.93073  0.25503  1.0000
  C   C501      1.0  0.05975  0.76236  0.06641  1.0000
  C   C502      1.0  0.01784  0.61838  0.03642  1.0000
  H   H390      1.0  0.19642  0.93998  0.14629  1.0000
  C   C503      1.0  0.11812  0.74804  0.01948  1.0000
  C   C504      1.0  0.28704  0.96632  0.25147  1.0000
  H   H391      1.0  0.13651  0.84841  0.08166  1.0000
  C   C505      1.0  0.31501  0.93435  0.26760  1.0000
  H   H392      1.0  0.29861  0.87429  0.05518  1.0000
  C   C506      1.0  0.02693  0.76030  0.02656  1.0000
  H   H393      1.0  0.15333  0.84430  0.02344  1.0000
  C   C507      1.0  0.26027  0.94450  0.06031  1.0000
  H   H394      1.0  0.19766  0.83909  0.03353  1.0000
  H   H395      1.0  0.21198  0.72531  0.28597  1.0000
  H   H396      1.0  0.01030  0.57632  0.43038  1.0000
  H   H397      1.0  0.10428  0.52662  0.48462  1.0000
  C   C508      1.0  0.26042  0.70701  0.27419  1.0000
  H   H398      1.0  0.20129  0.66392  0.20566  1.0000
  C   C509      1.0  0.25642  0.98319  0.15707  1.0000
  H   H399      1.0  0.04597  0.53230  0.35137  1.0000
  H   H400      1.0  0.31498  0.87569  0.00277  1.0000
  C   C510      1.0  0.08577  0.80601  0.11205  1.0000
  C   C511      1.0  0.19971  0.84897  0.01403  1.0000
  C   C512      1.0  0.31107  0.93299  0.18023  1.0000
  C   C513      1.0  0.18568  0.69647  0.16929  1.0000
  C   C514      1.0  0.06425  0.52137  0.42754  1.0000
  C   C515      1.0  0.22755  0.97650  0.05024  1.0000
  H   H401      1.0  0.01549  0.72250  0.02428  1.0000
  C   C516      1.0  0.21191  0.94473  0.10309  1.0000
  H   H402      1.0  0.10353  0.80902  0.15369  1.0000
  H   H403      1.0  0.04111  0.59474  0.04602  1.0000
  H   H404      1.0  0.29222  0.90728  0.09209  1.0000
  C   C517      1.0  0.28970  0.87481  0.03396  1.0000
  C   C518      1.0  0.08587  0.80486  0.07926  1.0000
  C   C519      1.0  0.24206  0.98460  0.18099  1.0000
  C   C520      1.0  0.31947  0.95394  0.27238  1.0000
  H   H405      1.0  0.19012  0.63277  0.22647  1.0000
  C   C521      1.0  0.06517  0.51253  0.48298  1.0000
  C   C522      1.0  0.06990  0.65029  0.07209  1.0000
  C   C523      1.0  0.07508  0.63278  0.05509  1.0000
  C   C524      1.0  0.08437  0.61591  0.07029  1.0000
  C   C525      1.0  0.08829  0.61648  0.10259  1.0000
  C   C526      1.0  0.08264  0.63385  0.11997  1.0000
  C   C527      1.0  0.07394  0.65092  0.10432  1.0000
  P   P19       1.0  0.08965  0.63528  0.16079  1.0000
  C   C528      1.0  0.08549  0.61285  0.18203  1.0000
  C   C529      1.0  0.11551  0.64037  0.15941  1.0000
  C   C530      1.0  0.13114  0.62571  0.16716  1.0000
  C   C531      1.0  0.15107  0.62987  0.16504  1.0000
  C   C532      1.0  0.15556  0.64847  0.15437  1.0000
  C   C533      1.0  0.14014  0.66283  0.14536  1.0000
  C   C534      1.0  0.12024  0.65871  0.14750  1.0000
  C   C535      1.0  0.09548  0.60831  0.21050  1.0000
  C   C536      1.0  0.09206  0.59125  0.22742  1.0000
  C   C537      1.0  0.07810  0.57888  0.21661  1.0000
  C   C538      1.0  0.06756  0.58360  0.18880  1.0000
  C   C539      1.0  0.07116  0.60057  0.17164  1.0000
  C   C540      1.0  0.07352  0.65498  0.17943  1.0000
  C   C541      1.0  0.05269  0.65456  0.17807  1.0000
  C   C542      1.0  0.03990  0.66987  0.19173  1.0000
  C   C543      1.0  0.04782  0.68566  0.20690  1.0000
  C   C544      1.0  0.06851  0.68605  0.20876  1.0000
  C   C545      1.0  0.08134  0.67066  0.19542  1.0000
  H   H406      1.0  0.06311  0.66350  0.06015  1.0000
  C   C546      1.0  0.00714  0.52754  0.44819  1.0000
  H   H407      1.0  0.08888  0.60251  0.05691  1.0000
  H   H408      1.0  0.09608  0.60351  0.11387  1.0000
  H   H409      1.0  0.07070  0.66487  0.11682  1.0000
  H   H410      1.0  0.12813  0.61101  0.17468  1.0000
  H   H411      1.0  0.16303  0.61860  0.17159  1.0000
  H   H412      1.0  0.17099  0.65168  0.15266  1.0000
  H   H413      1.0  0.14352  0.67714  0.13645  1.0000
  H   H414      1.0  0.10854  0.66985  0.13966  1.0000
  H   H415      1.0  0.10589  0.61796  0.21981  1.0000
  H   H416      1.0  0.10011  0.58778  0.24921  1.0000
  H   H417      1.0  0.07538  0.56576  0.23001  1.0000
  H   H418      1.0  0.05657  0.57411  0.18067  1.0000
  H   H419      1.0  0.06262  0.60417  0.15054  1.0000
  H   H420      1.0  0.04634  0.64243  0.16639  1.0000
  H   H421      1.0  0.02385  0.66958  0.19051  1.0000
  H   H422      1.0  0.03793  0.69756  0.21733  1.0000
  H   H423      1.0  0.07469  0.69823  0.22078  1.0000
  H   H424      1.0  0.09728  0.67118  0.19779  1.0000
  H   H425      1.0  0.19109  0.90513  0.13359  1.0000
  H   H426      1.0  0.17284  0.63268  0.27792  1.0000
  H   H427      1.0  0.07637  0.74337  0.03330  1.0000
  H   H428      1.0  0.06443  0.70855  0.03508  1.0000
  C   C547      1.0  0.21360  0.71637  0.17302  1.0000
  H   H429      1.0  0.22487  0.72635  0.12903  1.0000
  H   H430      1.0  0.29318  0.91552  0.25087  1.0000
  H   H431      1.0  0.03316  0.66773  0.11137  1.0000
  H   H432      1.0  0.27103  0.68713  0.23677  1.0000
  C   C548      1.0  0.24374  0.71773  0.28796  1.0000
  C   C549      1.0  0.00748  0.64016  0.08040  1.0000
  C   C550      1.0  0.19969  0.70529  0.18778  1.0000
  H   H433      1.0  0.15664  0.87082  0.11128  1.0000
  H   H434      1.0  0.21571  0.97931  0.00283  1.0000
  C   C551      1.0  0.02539  0.68176  0.10401  1.0000
  C   C552      1.0  0.06181  0.75086  0.03905  1.0000
  H   H435      1.0  0.03354  0.73045  0.09546  1.0000
  H   H436      1.0  0.20455  0.88973  0.08383  1.0000
  C   C553      1.0  0.29384  0.95458  0.06520  1.0000
  H   H437      1.0  0.22301  0.90899  0.04711  1.0000
  C   C554      1.0  0.23915  0.69497  0.23393  1.0000
  C   C555      1.0  0.10371  0.80569  0.06263  1.0000
  H   H438      1.0  0.23926  0.97974  0.09707  1.0000
  C   C556      1.0  0.15564  0.76151  0.25249  1.0000
  H   H439      1.0  0.31790  0.90156  0.18875  1.0000
  H   H440      1.0  0.26849  0.94387  0.23602  1.0000
  C   C557      1.0  0.00392  0.56227  0.43275  1.0000
  C   C558      1.0  0.07344  0.70526  0.01426  1.0000
  C   C559      1.0  0.16150  0.72558  0.24820  1.0000
  H   H441      1.0  0.19859  0.94638  0.01129  1.0000
  H   H442      1.0  0.01615  0.51493  0.45828  1.0000
  H   H443      1.0  0.13110  0.50595  0.33719  1.0000
  H   H444      1.0  0.02336  0.63300  0.12390  1.0000
  H   H445      1.0  0.17401  0.68895  0.18022  1.0000
  H   H446      1.0  0.25712  0.91459  0.07674  1.0000
  H   H447      1.0  0.01306  0.54188  0.37587  1.0000
  H   H448      1.0  0.24160  0.87444  0.00954  1.0000
  H   H449      1.0  0.06033  0.74786  0.25121  1.0000
  H   H450      1.0  0.07220  0.63241  0.03002  1.0000
  C   C560      1.0  0.18617  0.69798  0.13649  1.0000
  C   C561      1.0  0.17777  0.64639  0.26884  1.0000
  C   C562      1.0  0.01486  0.52941  0.35976  1.0000
  H   H451      1.0  0.05349  0.50004  0.39591  1.0000
  C   C563      1.0  0.23931  0.80040  0.09234  1.0000
  C   C564      1.0  0.24306  0.81910  0.08113  1.0000
  C   C565      1.0  0.22475  0.71713  0.27471  1.0000
  C   C566      1.0  0.13744  0.51001  0.41168  1.0000
  H   H452      1.0  0.15554  0.71132  0.24854  1.0000
  H   H453      1.0  0.20079  0.70966  0.09663  1.0000
  C   C567      1.0  0.14867  0.74276  0.25463  1.0000
  C   C568      1.0  0.22712  0.79200  0.04082  1.0000
  H   H454      1.0  0.22800  0.77255  0.08116  1.0000
  C   C569      1.0  0.03179  0.60740  0.05560  1.0000
  H   H455      1.0  0.31594  0.93282  0.08552  1.0000
  H   H456      1.0  0.14552  0.77489  0.25629  1.0000
  C   C570      1.0  0.18737  0.64650  0.23974  1.0000
  H   H457      1.0  0.18109  0.87342  0.03482  1.0000
  C   C571      1.0  0.17437  0.66399  0.28622  1.0000
  C   C572      1.0  0.32349  0.91606  0.18931  1.0000
  C   C573      1.0  0.03368  0.61273  0.08710  1.0000
  C   C574      1.0  0.17551  0.76307  0.24413  1.0000
  C   C575      1.0  0.28715  0.92172  0.08214  1.0000
  H   H458      1.0  0.22074  0.78133  0.02589  1.0000
  H   H459      1.0  0.27513  0.70751  0.28448  1.0000
  C   C576      1.0  0.14098  0.81603  0.01779  1.0000
  H   H460      1.0  0.18072  0.77768  0.24161  1.0000
  C   C577      1.0  0.22239  0.70602  0.24726  1.0000
  C   C578      1.0  0.01050  0.69515  0.28209  1.0000
  H   H461      1.0  0.06699  0.53160  0.40883  1.0000
  H   H462      1.0  0.32696  0.87897  0.28645  1.0000
  P   P20       1.0  0.19797  0.70501  0.23012  1.0000
  C   C579      1.0  0.18840  0.74590  0.23780  1.0000
  H   H463      1.0  0.12885  0.78899  0.00291  1.0000
  H   H464      1.0  0.20359  0.74747  0.23049  1.0000
  C   C580      1.0  0.28260  0.94672  0.24670  1.0000
  H   H465      1.0  0.01467  0.72064  0.35060  1.0000
  H   H466      1.0  0.23756  0.68590  0.21322  1.0000
  C   C581      1.0  0.21410  0.71777  0.14025  1.0000
  C   C582      1.0  0.03340  0.52405  0.34581  1.0000
  C   C583      1.0  0.19850  0.91391  0.11677  1.0000
  H   H467      1.0  0.01810  0.64197  0.39210  1.0000
  H   H468      1.0  0.22387  0.72420  0.18680  1.0000
  C   C584      1.0  0.03556  0.50872  0.32356  1.0000
  C   C585      1.0  0.99696  0.57019  0.31724  1.0000
  H   H469      1.0  0.18291  0.74840  0.01042  1.0000
  H   H470      1.0  0.26677  0.82672  0.00593  1.0000
  H   H471      1.0  0.16941  0.78364  0.01139  1.0000
  C   C586      1.0  0.00695  0.65374  0.38431  1.0000
  H   H472      1.0  0.01068  0.78010  0.05963  1.0000
  C   C587      1.0  0.02494  0.77188  0.05388  1.0000
  H   H473      1.0  0.01135  0.52582  0.27132  1.0000
  H   H474      1.0  0.32231  0.90804  0.38407  1.0000
  H   H475      1.0  0.32172  0.97349  0.32879  1.0000
  C   C588      1.0  0.01249  0.71841  0.00032  1.0000
  C   C589      1.0  0.00531  0.71868  0.08773  1.0000
  C   C590      1.0  0.19023  0.86843  0.01480  1.0000
  C   C591      1.0  0.00570  0.63463  0.04873  1.0000
  C   C592      1.0  0.31800  0.95176  0.18207  1.0000
  C   C593      1.0  0.00676  0.67291  0.39679  1.0000
  C   C594      1.0  0.01659  0.50042  0.18945  1.0000
  H   H476      1.0  0.00110  0.59958  0.38160  1.0000
  H   H477      1.0  0.16757  0.49649  0.40511  1.0000
  H   H478      1.0  0.00978  0.53011  0.17097  1.0000
  C   C595      1.0  0.10183  0.49726  0.34701  1.0000
  C   C596      1.0  0.01022  0.53004  0.22160  1.0000
  C   C597      1.0  0.00061  0.50374  0.32988  1.0000
  C   C598      1.0  0.01203  0.52107  0.19196  1.0000
  H   H479      1.0  0.00639  0.54600  0.22379  1.0000
  H   H480      1.0  0.99731  0.73306  0.08223  1.0000
  C   C599      1.0  0.05686  0.49482  0.47539  1.0000
  H   H481      1.0  0.99645  0.65089  0.29278  1.0000
  H   H482      1.0  0.01364  0.49436  0.40899  1.0000
  C   C600      1.0  0.15317  0.49499  0.41572  1.0000
  H   H483      1.0  0.26225  0.93154  0.00021  1.0000
  H   H484      1.0  0.13662  0.53789  0.49844  1.0000
  Fe  Fe37      1.0  0.25308  0.90906  0.85881  1.0000
  S   S73       1.0  0.28636  0.90149  0.85826  1.0000
  S   S74       1.0  0.23710  0.94008  0.86683  1.0000
  Fe  Fe38      1.0  0.24455  0.86424  0.86020  1.0000
  S   S75       1.0  0.27764  0.85395  0.85957  1.0000
  S   S76       1.0  0.21834  0.84649  0.87438  1.0000
  Fe  Fe39      1.0  0.28083  0.87848  0.89476  1.0000
  S   S77       1.0  0.29956  0.87589  0.93945  1.0000
  Fe  Fe40      1.0  0.28038  0.87794  0.82299  1.0000
  S   S78       1.0  0.29618  0.87310  0.77533  1.0000
  S   S79       1.0  0.24804  0.88750  0.89720  1.0000
  S   S80       1.0  0.24688  0.88685  0.82154  1.0000
  Fe  Fe41      1.0  0.14750  0.75668  0.84613  1.0000
  S   S81       1.0  0.15400  0.73057  0.87896  1.0000
  S   S82       1.0  0.17294  0.77304  0.82544  1.0000
  Fe  Fe42      1.0  0.10187  0.75266  0.84797  1.0000
  S   S83       1.0  0.10553  0.72699  0.88151  1.0000
  S   S84       1.0  0.07116  0.76640  0.83176  1.0000
  Fe  Fe43      1.0  0.12756  0.74430  0.90667  1.0000
  S   S85       1.0  0.12539  0.75448  0.95760  1.0000
  Fe  Fe44      1.0  0.13134  0.71545  0.85025  1.0000
  S   S86       1.0  0.13502  0.68208  0.83797  1.0000
  S   S87       1.0  0.12213  0.77106  0.87503  1.0000
  S   S88       1.0  0.12669  0.74050  0.81538  1.0000
  Fe  Fe45      1.0  0.07846  0.57547  0.68653  1.0000
  S   S89       1.0  0.10741  0.57559  0.71267  1.0000
  S   S90       1.0  0.05159  0.56318  0.70686  1.0000
  Fe  Fe46      1.0  0.09427  0.59250  0.62598  1.0000
  S   S91       1.0  0.12470  0.59379  0.64719  1.0000
  S   S92       1.0  0.08222  0.60302  0.57811  1.0000
  Fe  Fe47      1.0  0.12062  0.56330  0.66693  1.0000
  S   S93       1.0  0.14233  0.53561  0.65920  1.0000
  Fe  Fe48      1.0  0.10873  0.60614  0.69119  1.0000
  S   S94       1.0  0.11250  0.63718  0.71182  1.0000
  S   S95       1.0  0.09143  0.56145  0.64254  1.0000
  S   S96       1.0  0.07852  0.60651  0.66830  1.0000
  C   C601      1.0  0.03352  0.56405  0.67719  1.0000
  C   C602      1.0  0.01588  0.55516  0.68173  1.0000
  C   C603      1.0  0.12607  0.53524  0.51687  1.0000
  H   H485      1.0  0.28398  0.97912  0.73138  1.0000
  C   C604      1.0  0.02174  0.57539  0.62580  1.0000
  C   C605      1.0  0.03660  0.57380  0.64894  1.0000
  H   H486      1.0  0.01357  0.54735  0.70334  1.0000
  C   C606      1.0  0.28344  0.96705  0.91810  1.0000
  H   H487      1.0  0.02389  0.58366  0.60462  1.0000
  H   H488      1.0  0.05018  0.58063  0.64510  1.0000
  C   C607      1.0  0.09476  0.59638  0.54239  1.0000
  C   C608      1.0  0.11495  0.58890  0.54181  1.0000
  H   H489      1.0  0.02820  0.59063  0.75904  1.0000
  H   H490      1.0  0.12312  0.58655  0.56364  1.0000
  C   C609      1.0  0.24845  0.81883  0.96662  1.0000
  C   C610      1.0  0.04946  0.75414  0.83899  1.0000
  C   C611      1.0  0.03041  0.76393  0.83229  1.0000
  C   C612      1.0  0.01295  0.75447  0.83770  1.0000
  C   C613      1.0  0.01445  0.73490  0.84904  1.0000
  C   C614      1.0  0.03348  0.72517  0.85573  1.0000
  C   C615      1.0  0.05085  0.73477  0.85100  1.0000
  H   H491      1.0  0.02915  0.77892  0.82299  1.0000
  C   C616      1.0  0.32061  0.87836  0.76357  1.0000
  H   H492      1.0  0.03486  0.71001  0.86431  1.0000
  H   H493      1.0  0.06533  0.72703  0.85619  1.0000
  C   C617      1.0  0.00114  0.55650  0.65835  1.0000
  C   C618      1.0  0.17911  0.59034  0.66916  1.0000
  H   H494      1.0  0.14709  0.58586  0.74408  1.0000
  C   C619      1.0  0.04785  0.50662  0.67154  1.0000
  H   H495      1.0  0.24660  0.61454  0.66867  1.0000
  C   C620      1.0  0.12812  0.66991  0.80292  1.0000
  C   C621      1.0  0.12218  0.68045  0.77560  1.0000
  C   C622      1.0  0.11769  0.67010  0.74803  1.0000
  C   C623      1.0  0.11859  0.64915  0.74747  1.0000
  C   C624      1.0  0.12425  0.63860  0.77488  1.0000
  C   C625      1.0  0.12913  0.64893  0.80231  1.0000
  H   H496      1.0  0.12148  0.69654  0.77550  1.0000
  H   H497      1.0  0.11373  0.67841  0.72685  1.0000
  H   H498      1.0  0.12510  0.62251  0.77488  1.0000
  H   H499      1.0  0.13376  0.64060  0.82325  1.0000
  C   C626      1.0  0.20683  0.82524  0.86125  1.0000
  C   C627      1.0  0.21350  0.81404  0.83489  1.0000
  C   C628      1.0  0.20324  0.79788  0.82476  1.0000
  C   C629      1.0  0.18626  0.79256  0.84088  1.0000
  C   C630      1.0  0.17981  0.80357  0.86757  1.0000
  C   C631      1.0  0.19001  0.81977  0.87761  1.0000
  H   H500      1.0  0.22640  0.81798  0.82207  1.0000
  H   H501      1.0  0.20839  0.78953  0.80408  1.0000
  H   H502      1.0  0.16672  0.79984  0.88007  1.0000
  H   H503      1.0  0.18470  0.82827  0.89806  1.0000
  C   C632      1.0  0.28752  0.87582  0.97648  1.0000
  C   C633      1.0  0.06866  0.71535  0.98594  1.0000
  C   C634      1.0  0.28307  0.82608  0.96293  1.0000
  C   C635      1.0  0.19287  0.88154  0.99007  1.0000
  H   H504      1.0  0.03997  0.65144  0.74306  1.0000
  H   H505      1.0  0.22377  0.85118  0.94369  1.0000
  C   C636      1.0  0.99742  0.53115  0.76431  1.0000
  H   H506      1.0  0.14475  0.71440  0.97224  1.0000
  C   C637      1.0  0.26856  0.97916  0.81976  1.0000
  C   C638      1.0  0.26233  0.96135  0.83164  1.0000
  C   C639      1.0  0.24631  0.96205  0.85267  1.0000
  C   C640      1.0  0.23701  0.98070  0.86229  1.0000
  C   C641      1.0  0.05001  0.54000  0.53079  1.0000
  C   C642      1.0  0.28710  0.97354  0.94876  1.0000
  H   H507      1.0  0.26958  0.94710  0.82391  1.0000
  C   C643      1.0  0.00432  0.70693  0.93889  1.0000
  P   P21       1.0  0.22564  0.81793  0.98891  1.0000
  C   C644      1.0  0.02570  0.72214  0.97600  1.0000
  H   H508      1.0  0.03702  0.51901  0.67737  1.0000
  C   C645      1.0  0.17601  0.57155  0.68088  1.0000
  H   H509      1.0  0.18578  0.89670  0.99085  1.0000
  C   C646      1.0  0.22137  0.64601  0.61641  1.0000
  H   H510      1.0  0.24634  0.97686  0.96041  1.0000
  C   C647      1.0  0.01504  0.55352  0.53027  1.0000
  C   C648      1.0  0.02185  0.71568  0.94540  1.0000
  C   C649      1.0  0.13085  0.53864  0.54827  1.0000
  C   C650      1.0  0.11707  0.53572  0.57193  1.0000
  C   C651      1.0  0.09844  0.52956  0.56420  1.0000
  C   C652      1.0  0.21142  0.79995  0.97002  1.0000
  H   H511      1.0  0.21791  0.75309  0.93864  1.0000
  C   C653      1.0  0.14338  0.49469  0.65553  1.0000
  H   H512      1.0  0.14514  0.54375  0.55429  1.0000
  H   H513      1.0  0.06876  0.60522  0.51400  1.0000
  H   H514      1.0  0.23674  0.77744  0.96636  1.0000
  H   H515      1.0  0.22401  0.65546  0.59659  1.0000
  C   C654      1.0  0.15907  0.60590  0.71146  1.0000
  C   C655      1.0  0.17089  0.60771  0.68464  1.0000
  C   C656      1.0  0.08029  0.71041  0.95911  1.0000
  P   P22       1.0  0.17329  0.63183  0.66741  1.0000
  C   C657      1.0  0.15556  0.63408  0.63529  1.0000
  C   C658      1.0  0.16983  0.65198  0.69567  1.0000
  C   C659      1.0  0.16270  0.67132  0.68595  1.0000
  C   C660      1.0  0.16039  0.68697  0.70773  1.0000
  C   C661      1.0  0.16548  0.68349  0.73924  1.0000
  C   C662      1.0  0.17318  0.66446  0.74892  1.0000
  C   C663      1.0  0.17571  0.64884  0.72715  1.0000
  C   C664      1.0  0.13634  0.64404  0.63937  1.0000
  C   C665      1.0  0.12198  0.64381  0.61558  1.0000
  C   C666      1.0  0.12670  0.63365  0.58748  1.0000
  C   C667      1.0  0.14584  0.62383  0.58307  1.0000
  C   C668      1.0  0.16019  0.62393  0.60692  1.0000
  C   C669      1.0  0.19835  0.63270  0.65288  1.0000
  C   C670      1.0  0.21462  0.62193  0.66799  1.0000
  H   H516      1.0  0.27761  0.97756  0.90022  1.0000
  C   C671      1.0  0.20187  0.64498  0.62730  1.0000
  H   H517      1.0  0.21148  0.98421  0.94267  1.0000
  H   H518      1.0  0.15165  0.61893  0.72291  1.0000
  H   H519      1.0  0.08294  0.75336  0.96546  1.0000
  H   H520      1.0  0.15895  0.67435  0.66157  1.0000
  H   H521      1.0  0.15459  0.70178  0.70027  1.0000
  H   H522      1.0  0.16334  0.69549  0.75631  1.0000
  H   H523      1.0  0.17699  0.66180  0.77344  1.0000
  H   H524      1.0  0.18214  0.63433  0.73506  1.0000
  H   H525      1.0  0.13217  0.65141  0.66129  1.0000
  H   H526      1.0  0.10697  0.65090  0.61938  1.0000
  H   H527      1.0  0.11536  0.63292  0.56946  1.0000
  H   H528      1.0  0.14930  0.61563  0.56149  1.0000
  H   H529      1.0  0.17468  0.61560  0.60353  1.0000
  C   C672      1.0  0.01154  0.75735  0.72593  1.0000
  H   H530      1.0  0.18957  0.65383  0.61586  1.0000
  H   H531      1.0  0.16187  0.55531  0.71658  1.0000
  C   C673      1.0  0.02980  0.53763  0.52530  1.0000
  H   H532      1.0  0.16506  0.79441  0.94074  1.0000
  H   H533      1.0  0.12082  0.53839  0.59629  1.0000
  H   H534      1.0  0.25659  0.91980  0.94638  1.0000
  C   C674      1.0  0.06418  0.66326  0.68599  1.0000
  C   C675      1.0  0.04862  0.66631  0.66424  1.0000
  C   C676      1.0  0.03397  0.68243  0.66783  1.0000
  C   C677      1.0  0.03523  0.69586  0.69267  1.0000
  C   C678      1.0  0.05115  0.69316  0.71423  1.0000
  C   C679      1.0  0.06538  0.67653  0.71101  1.0000
  P   P23       1.0  0.05377  0.71084  0.74556  1.0000
  C   C680      1.0  0.05776  0.69676  0.78154  1.0000
  C   C681      1.0  0.07466  0.72509  0.73873  1.0000
  C   C682      1.0  0.08992  0.71874  0.71734  1.0000
  C   C683      1.0  0.10650  0.72952  0.71404  1.0000
  C   C684      1.0  0.10789  0.74673  0.73191  1.0000
  C   C685      1.0  0.09260  0.75329  0.75284  1.0000
  C   C686      1.0  0.07606  0.74254  0.75619  1.0000
  C   C687      1.0  0.04478  0.68257  0.78951  1.0000
  C   C688      1.0  0.04820  0.67089  0.81649  1.0000
  C   C689      1.0  0.06475  0.67315  0.83555  1.0000
  C   C690      1.0  0.07781  0.68717  0.82774  1.0000
  C   C691      1.0  0.07435  0.69897  0.80090  1.0000
  C   C692      1.0  0.03147  0.72828  0.74738  1.0000
  H   H535      1.0  0.02089  0.75631  0.93754  1.0000
  H   H536      1.0  0.31625  0.86944  0.71558  1.0000
  C   C693      1.0  0.01638  0.72622  0.76953  1.0000
  H   H537      1.0  0.07539  0.65062  0.68342  1.0000
  H   H538      1.0  0.04794  0.65612  0.64466  1.0000
  H   H539      1.0  0.02173  0.68458  0.65120  1.0000
  H   H540      1.0  0.02376  0.70827  0.69482  1.0000
  H   H541      1.0  0.07754  0.67391  0.72769  1.0000
  H   H542      1.0  0.08929  0.70543  0.70341  1.0000
  H   H543      1.0  0.11838  0.72438  0.69790  1.0000
  H   H544      1.0  0.12089  0.75489  0.72984  1.0000
  H   H545      1.0  0.09372  0.76645  0.76716  1.0000
  H   H546      1.0  0.06453  0.74760  0.77300  1.0000
  H   H547      1.0  0.03198  0.68065  0.77483  1.0000
  H   H548      1.0  0.03808  0.66003  0.82257  1.0000
  C   C694      1.0  0.07397  0.77311  0.92741  1.0000
  H   H549      1.0  0.08480  0.70963  0.79549  1.0000
  H   H550      1.0  0.04040  0.74593  0.70834  1.0000
  H   H551      1.0  0.32625  0.97544  0.69266  1.0000
  H   H552      1.0  0.01799  0.71469  0.78722  1.0000
  C   C695      1.0  0.18059  0.79074  0.94702  1.0000
  C   C696      1.0  0.29551  0.96795  0.73976  1.0000
  C   C697      1.0  0.24161  0.99133  0.95036  1.0000
  H   H553      1.0  0.29632  0.91731  0.92699  1.0000
  H   H554      1.0  0.29644  0.83058  0.97400  1.0000
  C   C698      1.0  0.29384  0.93297  0.93308  1.0000
  H   H555      1.0  0.00105  0.70267  0.91499  1.0000
  C   C699      1.0  0.12699  0.73976  0.99200  1.0000
  C   C700      1.0  0.05169  0.75243  0.95385  1.0000
  C   C701      1.0  0.07065  0.75911  0.95045  1.0000
  H   H556      1.0  0.06099  0.79130  0.88955  1.0000
  C   C702      1.0  0.05829  0.78083  0.90797  1.0000
  H   H557      1.0  0.08704  0.60797  0.77351  1.0000
  C   C703      1.0  0.03801  0.60232  0.75946  1.0000
  C   C704      1.0  0.26520  0.81832  0.91591  1.0000
  H   H558      1.0  0.22243  0.92209  0.92423  1.0000
  C   C705      1.0  0.19018  0.77216  0.93852  1.0000
  C   C706      1.0  0.02043  0.57196  0.54019  1.0000
  C   C707      1.0  0.24403  0.92592  0.96052  1.0000
  H   H559      1.0  0.28055  0.97846  0.80291  1.0000
  C   C708      1.0  0.10747  0.52905  0.50906  1.0000
  C   C709      1.0  0.16466  0.56992  0.70806  1.0000
  H   H560      1.0  0.18736  0.88587  0.88092  1.0000
  H   H561      1.0  0.08879  0.77778  0.92442  1.0000
  H   H562      1.0  0.13525  0.49678  0.56177  1.0000
  H   H563      1.0  0.07519  0.64266  0.75905  1.0000
  H   H564      1.0  0.06337  0.58202  0.77326  1.0000
  C   C710      1.0  0.08435  0.59933  0.51381  1.0000
  H   H565      1.0  0.22447  0.98133  0.87821  1.0000
  H   H566      1.0  0.03805  0.62452  0.68897  1.0000
  H   H567      1.0  0.14769  0.85472  0.96854  1.0000
  C   C711      1.0  0.21438  0.85569  0.96365  1.0000
  C   C712      1.0  0.13452  0.82820  0.95507  1.0000
  C   C713      1.0  0.04055  0.57456  0.54508  1.0000
  C   C714      1.0  0.15628  0.58710  0.72342  1.0000
  H   H568      1.0  0.21229  0.61281  0.68834  1.0000
  C   C715      1.0  0.12913  0.80976  0.96496  1.0000
  H   H569      1.0  0.06872  0.52591  0.65363  1.0000
  H   H570      1.0  0.09074  0.68886  0.84239  1.0000
  C   C716      1.0  0.29738  0.93921  0.96372  1.0000
  H   H571      1.0  0.19339  0.93494  0.95684  1.0000
  C   C717      1.0  0.02330  0.62380  0.64454  1.0000
  C   C718      1.0  0.00381  0.56712  0.63077  1.0000
  C   C719      1.0  0.03921  0.77472  0.91185  1.0000
  H   H572      1.0  0.99938  0.55160  0.52683  1.0000
  C   C720      1.0  0.18130  0.88600  0.67694  1.0000
  C   C721      1.0  0.16938  0.90425  0.67830  1.0000
  C   C722      1.0  0.16137  0.91127  0.70701  1.0000
  C   C723      1.0  0.16536  0.90012  0.73441  1.0000
  C   C724      1.0  0.17759  0.88192  0.73332  1.0000
  C   C725      1.0  0.18532  0.87481  0.70430  1.0000
  P   P24       1.0  0.18246  0.86745  0.76873  1.0000
  C   C726      1.0  0.18746  0.88392  0.80082  1.0000
  C   C727      1.0  0.16121  0.85397  0.77781  1.0000
  C   C728      1.0  0.16332  0.83783  0.79878  1.0000
  C   C729      1.0  0.14711  0.82708  0.80531  1.0000
  C   C730      1.0  0.12856  0.83247  0.79128  1.0000
  C   C731      1.0  0.12621  0.84863  0.77061  1.0000
  C   C732      1.0  0.14245  0.85932  0.76383  1.0000
  C   C733      1.0  0.19564  0.90193  0.79489  1.0000
  C   C734      1.0  0.20019  0.91428  0.81976  1.0000
  C   C735      1.0  0.06472  0.63148  0.75943  1.0000
  C   C736      1.0  0.18907  0.89070  0.85689  1.0000
  C   C737      1.0  0.18432  0.87840  0.83209  1.0000
  C   C738      1.0  0.20494  0.85063  0.76286  1.0000
  C   C739      1.0  0.22372  0.85793  0.76461  1.0000
  C   C740      1.0  0.24127  0.84517  0.76031  1.0000
  C   C741      1.0  0.24019  0.82503  0.75360  1.0000
  C   C742      1.0  0.22155  0.81772  0.75081  1.0000
  C   C743      1.0  0.20397  0.83047  0.75520  1.0000
  H   H573      1.0  0.18749  0.88053  0.65467  1.0000
  H   H574      1.0  0.16635  0.91293  0.65709  1.0000
  H   H575      1.0  0.15209  0.92539  0.70805  1.0000
  H   H576      1.0  0.15896  0.90570  0.75648  1.0000
  H   H577      1.0  0.19453  0.86068  0.70270  1.0000
  H   H578      1.0  0.17757  0.83338  0.80983  1.0000
  H   H579      1.0  0.14897  0.81440  0.82107  1.0000
  H   H580      1.0  0.11606  0.82404  0.79636  1.0000
  H   H581      1.0  0.11181  0.85279  0.75972  1.0000
  H   H582      1.0  0.14024  0.87164  0.74758  1.0000
  H   H583      1.0  0.19908  0.90623  0.77118  1.0000
  H   H584      1.0  0.20695  0.92792  0.81519  1.0000
  C   C744      1.0  0.20482  0.87510  0.96441  1.0000
  H   H585      1.0  0.20701  0.88517  0.94518  1.0000
  H   H586      1.0  0.17892  0.86429  0.83766  1.0000
  H   H587      1.0  0.22487  0.87352  0.76922  1.0000
  H   H588      1.0  0.25574  0.85090  0.76233  1.0000
  H   H589      1.0  0.25382  0.81513  0.75059  1.0000
  H   H590      1.0  0.22072  0.80210  0.74564  1.0000
  H   H591      1.0  0.18974  0.82447  0.75273  1.0000
  C   C745      1.0  0.06588  0.51062  0.65788  1.0000
  C   C746      1.0  0.23409  0.62296  0.65702  1.0000
  H   H592      1.0  0.23457  0.81317  0.92180  1.0000
  H   H593      1.0  0.32850  0.91067  0.87205  1.0000
  C   C747      1.0  0.21138  0.94078  0.99718  1.0000
  C   C748      1.0  0.10223  0.68700  0.98958  1.0000
  C   C749      1.0  0.31039  0.97348  0.76002  1.0000
  H   H594      1.0  0.25257  0.63578  0.62277  1.0000
  P   P25       1.0  0.04777  0.73445  0.98394  1.0000
  C   C750      1.0  0.03584  0.76067  0.93485  1.0000
  C   C751      1.0  0.32496  0.95905  0.77219  1.0000
  C   C752      1.0  0.04475  0.63643  0.75072  1.0000
  H   H595      1.0  0.28371  0.94202  0.88672  1.0000
  C   C753      1.0  0.12470  0.58480  0.51285  1.0000
  C   C754      1.0  0.13457  0.51220  0.66999  1.0000
  H   H596      1.0  0.08783  0.52769  0.58286  1.0000
  H   H597      1.0  0.04071  0.50592  0.73835  1.0000
  H   H598      1.0  0.11348  0.52400  0.70505  1.0000
  C   C755      1.0  0.02892  0.74400  0.72560  1.0000
  C   C756      1.0  0.09341  0.52633  0.53265  1.0000
  C   C757      1.0  0.19111  0.80464  0.96271  1.0000
  C   C758      1.0  0.26682  0.87550  0.97871  1.0000
  C   C759      1.0  0.20836  0.93427  0.96650  1.0000
  H   H599      1.0  0.02551  0.52344  0.51738  1.0000
  H   H600      1.0  0.30246  0.92822  0.98137  1.0000
  H   H601      1.0  0.31006  0.91820  0.73500  1.0000
  C   C760      1.0  0.12035  0.51067  0.69363  1.0000
  C   C761      1.0  0.05806  0.59736  0.76778  1.0000
  H   H602      1.0  0.12269  0.79994  0.94842  1.0000
  C   C762      1.0  0.19696  0.90864  0.85074  1.0000
  H   H603      1.0  0.31209  0.99177  0.90885  1.0000
  H   H604      1.0  0.29567  0.82562  0.91643  1.0000
  C   C763      1.0  0.05532  0.55866  0.54044  1.0000
  H   H605      1.0  0.03208  0.71792  0.92636  1.0000
  C   C764      1.0  0.07141  0.61191  0.76773  1.0000
  C   C765      1.0  0.08034  0.49498  0.65042  1.0000
  C   C766      1.0  0.28682  0.94687  0.91034  1.0000
  H   H606      1.0  0.04085  0.51330  0.57610  1.0000
  C   C767      1.0  0.22470  0.92697  0.94812  1.0000
  C   C768      1.0  0.29520  0.94800  0.73106  1.0000
  C   C769      1.0  0.02371  0.62581  0.67723  1.0000
  C   C770      1.0  0.02478  0.51033  0.74015  1.0000
  H   H607      1.0  0.02854  0.53246  0.77557  1.0000
  H   H608      1.0  0.18184  0.55815  0.66842  1.0000
  C   C771      1.0  0.28263  0.82334  0.93042  1.0000
  H   H609      1.0  0.26464  0.81660  0.89060  1.0000
  C   C772      1.0  0.09708  0.69637  0.96100  1.0000
  C   C773      1.0  0.31010  0.93368  0.74194  1.0000
  H   H610      1.0  0.02709  0.78062  0.89660  1.0000
  H   H611      1.0  0.07665  0.71763  0.93680  1.0000
  H   H612      1.0  0.13215  0.83279  0.93082  1.0000
  C   C774      1.0  0.24715  0.93264  0.99106  1.0000
  C   C775      1.0  0.23747  0.63495  0.63119  1.0000
  H   H613      1.0  0.06754  0.66404  0.85634  1.0000
  C   C776      1.0  0.32650  0.87522  0.73201  1.0000
  H   H614      1.0  0.03720  0.62094  0.63157  1.0000
  C   C777      1.0  0.24815  0.81622  0.93383  1.0000
  H   H615      1.0  0.28346  0.94362  0.71589  1.0000
  C   C778      1.0  0.21039  0.76738  0.94574  1.0000
  H   H616      1.0  0.25788  0.87514  0.95775  1.0000
  H   H617      1.0  0.18201  0.76161  0.92587  1.0000
  C   C779      1.0  0.06530  0.49844  0.54869  1.0000
  C   C780      1.0  0.14325  0.84054  0.97634  1.0000
  P   P26       1.0  0.06877  0.51939  0.52356  1.0000
  C   C781      1.0  0.99654  0.75507  0.74794  1.0000
  C   C782      1.0  0.29389  0.95942  0.97166  1.0000
  H   H618      1.0  0.18348  0.81908  0.96854  1.0000
  C   C783      1.0  0.22099  0.78122  0.96139  1.0000
  H   H619      1.0  0.04477  0.58882  0.55303  1.0000
  H   H620      1.0  0.07078  0.56117  0.54441  1.0000
  H   H621      1.0  0.14041  0.57933  0.51258  1.0000
  C   C784      1.0  0.99897  0.73950  0.76961  1.0000
  C   C785      1.0  0.05031  0.49958  0.57182  1.0000
  H   H622      1.0  0.18751  0.59128  0.64763  1.0000
  C   C786      1.0  0.32508  0.93925  0.76191  1.0000
  H   H623      1.0  0.10638  0.69312  0.94043  1.0000
  H   H624      1.0  0.20113  0.91794  0.86995  1.0000
  C   C787      1.0  0.03121  0.62192  0.75066  1.0000
  C   C788      1.0  0.99740  0.65273  0.75302  1.0000
  H   H625      1.0  0.00896  0.58413  0.54467  1.0000
  H   H626      1.0  0.00861  0.51379  0.64836  1.0000
  C   C789      1.0  0.26607  0.82391  0.98100  1.0000
  H   H627      1.0  0.00975  0.76954  0.70929  1.0000
  H   H628      1.0  0.11563  0.67663  0.99122  1.0000
  P   P27       1.0  0.00594  0.62860  0.73680  1.0000
  H   H629      1.0  0.31003  0.98899  0.76644  1.0000
  C   C790      1.0  0.99939  0.65597  0.78544  1.0000
  H   H630      1.0  0.09448  0.49806  0.64025  1.0000
  C   C791      1.0  0.21213  0.84255  0.98867  1.0000
  C   C792      1.0  0.00579  0.62850  0.69435  1.0000
  H   H631      1.0  0.15458  0.49570  0.63753  1.0000
  C   C793      1.0  0.01791  0.52526  0.76153  1.0000
  H   H632      1.0  0.00490  0.62185  0.60366  1.0000
  C   C794      1.0  0.01116  0.50140  0.72101  1.0000
  H   H633      1.0  0.99839  0.76218  0.83252  1.0000
  C   C795      1.0  0.00504  0.62429  0.62876  1.0000
  H   H634      1.0  0.00623  0.64421  0.80046  1.0000
  C   C796      1.0  0.99978  0.50166  0.64340  1.0000
  C   C797      1.0  0.13776  0.72087  0.99329  1.0000
  H   H635      1.0  0.99651  0.50959  0.55581  1.0000
  H   H636      1.0  0.29613  0.96377  0.99571  1.0000
  H   H637      1.0  0.00397  0.58757  0.71796  1.0000
  C   C798      1.0  0.13259  0.80360  0.99601  1.0000
  Fe  Fe49      1.0  0.62285  0.07622  0.38774  1.0000
  S   S97       1.0  0.60793  0.09099  0.34477  1.0000
  S   S98       1.0  0.62533  0.09171  0.43501  1.0000
  Fe  Fe50      1.0  0.63079  0.03666  0.35469  1.0000
  S   S99       1.0  0.61597  0.04772  0.31020  1.0000
  C   C799      1.0  0.47234  0.13117  0.46409  1.0000
  Fe  Fe51      1.0  0.63341  0.07420  0.31693  1.0000
  S   S100      1.0  0.64903  0.08463  0.27244  1.0000
  Fe  Fe52      1.0  0.59205  0.06318  0.34143  1.0000
  S   S101      1.0  0.55998  0.05569  0.33477  1.0000
  S   S102      1.0  0.64941  0.06212  0.36037  1.0000
  S   S103      1.0  0.60582  0.04956  0.38538  1.0000
  Fe  Fe53      1.0  0.42068  0.04923  0.39687  1.0000
  S   S104      1.0  0.41652  0.08156  0.38319  1.0000
  S   S105      1.0  0.41888  0.03538  0.44537  1.0000
  Fe  Fe54      1.0  0.42925  0.03629  0.32929  1.0000
  S   S106      1.0  0.42611  0.06744  0.31046  1.0000
  C   C800      1.0  0.34911  0.02136  0.32930  1.0000
  Fe  Fe55      1.0  0.44414  0.07405  0.35334  1.0000
  S   S107      1.0  0.47000  0.09342  0.35182  1.0000
  Fe  Fe56      1.0  0.39886  0.07167  0.34151  1.0000
  S   S108      1.0  0.36775  0.08633  0.32780  1.0000
  S   S109      1.0  0.44916  0.04238  0.36962  1.0000
  S   S110      1.0  0.40103  0.03997  0.35771  1.0000
  C   C801      1.0  0.35318  0.07835  0.29608  1.0000
  C   C802      1.0  0.33287  0.08585  0.29345  1.0000
  H   H638      1.0  0.62441  0.00570  0.30239  1.0000
  C   C803      1.0  0.35370  0.12696  0.27414  1.0000
  C   C804      1.0  0.42107  0.04972  0.47978  1.0000
  C   C805      1.0  0.42430  0.06983  0.47822  1.0000
  C   C806      1.0  0.52673  0.08179  0.46428  1.0000
  H   H639      1.0  0.42568  0.07686  0.45561  1.0000
  C   C807      1.0  0.53600  0.06720  0.34542  1.0000
  C   C808      1.0  0.53071  0.08771  0.34220  1.0000
  C   C809      1.0  0.51052  0.09564  0.34531  1.0000
  C   C810      1.0  0.49545  0.08316  0.35133  1.0000
  C   C811      1.0  0.50093  0.06280  0.35602  1.0000
  C   C812      1.0  0.52108  0.05492  0.35319  1.0000
  H   H640      1.0  0.54197  0.09732  0.33578  1.0000
  H   H641      1.0  0.50645  0.11143  0.34177  1.0000
  H   H642      1.0  0.48958  0.05300  0.36065  1.0000
  H   H643      1.0  0.52498  0.03902  0.35531  1.0000
  H   H644      1.0  0.51649  0.00071  0.22985  1.0000
  C   C813      1.0  0.48475  0.09605  0.46146  1.0000
  H   H645      1.0  0.35643  0.03498  0.32989  1.0000
  C   C814      1.0  0.34271  0.00436  0.23009  1.0000
  H   H646      1.0  0.48983  0.99485  0.33980  1.0000
  C   C815      1.0  0.50740  0.04265  0.43451  1.0000
  C   C816      1.0  0.61672  0.05963  0.47163  1.0000
  C   C817      1.0  0.62137  0.07937  0.47096  1.0000
  C   C818      1.0  0.51043  0.01763  0.28836  1.0000
  H   H647      1.0  0.61549  0.05154  0.44997  1.0000
  C   C819      1.0  0.48557  0.11510  0.47431  1.0000
  S   S111      1.0  0.64414  0.00530  0.36313  1.0000
  H   H648      1.0  0.52090  0.04819  0.42611  1.0000
  C   C820      1.0  0.56035  0.00443  0.32161  1.0000
  C   C821      1.0  0.47251  0.02725  0.45436  1.0000
  H   H649      1.0  0.56441  0.00778  0.29773  1.0000
  H   H650      1.0  0.61961  0.00708  0.45628  1.0000
  H   H651      1.0  0.36668  0.11653  0.26888  1.0000
  H   H652      1.0  0.51797  0.06643  0.27781  1.0000
  H   H653      1.0  0.65058  0.02972  0.24909  1.0000
  H   H654      1.0  0.36630  0.01205  0.19966  1.0000
  H   H655      1.0  0.35678  0.05112  0.22837  1.0000
  H   H656      1.0  0.44681  0.10725  0.40919  1.0000
  H   H657      1.0  0.34456  0.01582  0.15234  1.0000
  H   H658      1.0  0.57906  0.00752  0.39534  1.0000
  H   H659      1.0  0.50976  0.01880  0.40066  1.0000
  P   P28       1.0  0.50198  0.07569  0.47539  1.0000
  H   H660      1.0  0.58786  0.01331  0.34022  1.0000
  C   C822      1.0  0.48925  0.05499  0.27599  1.0000
  C   C823      1.0  0.35069  0.00947  0.20123  1.0000
  C   C824      1.0  0.52491  0.15577  0.48421  1.0000
  H   H661      1.0  0.52193  0.18505  0.46348  1.0000
  H   H662      1.0  0.46294  0.03931  0.27529  1.0000
  H   H663      1.0  0.51990  0.08277  0.41442  1.0000
  H   H664      1.0  0.58022  0.09239  0.43810  1.0000
  C   C825      1.0  0.54140  0.08516  0.48682  1.0000
  H   H665      1.0  0.53666  0.03384  0.28797  1.0000
  C   C826      1.0  0.35184  0.00774  0.35401  1.0000
  H   H666      1.0  0.36495  0.13463  0.31940  1.0000
  H   H667      1.0  0.35254  0.00261  0.25021  1.0000
  H   H668      1.0  0.46877  0.05198  0.48623  1.0000
  H   H669      1.0  0.33861  0.12059  0.23177  1.0000
  C   C827      1.0  0.57378  0.00760  0.34572  1.0000
  C   C828      1.0  0.56525  0.08974  0.44544  1.0000
  H   H670      1.0  0.45875  0.02153  0.46160  1.0000
  H   H671      1.0  0.49643  0.11738  0.49231  1.0000
  H   H672      1.0  0.56895  0.04194  0.47596  1.0000
  H   H673      1.0  0.44803  0.14069  0.43259  1.0000
  H   H674      1.0  0.54347  0.01971  0.46020  1.0000
  C   C829      1.0  0.47832  0.04451  0.46837  1.0000
  H   H675      1.0  0.58426  0.00156  0.45101  1.0000
  C   C830      1.0  0.49577  0.05246  0.45845  1.0000
  H   H676      1.0  0.37714  0.05962  0.27432  1.0000
  C   C831      1.0  0.33761  0.12929  0.25317  1.0000
  C   C832      1.0  0.53122  0.08406  0.43230  1.0000
  H   H677      1.0  0.47870  0.00520  0.41811  1.0000
  H   H678      1.0  0.33495  0.15777  0.33260  1.0000
  C   C833      1.0  0.55047  0.08765  0.42295  1.0000
  H   H679      1.0  0.52764  0.14812  0.46194  1.0000
  H   H680      1.0  0.55402  0.08874  0.39819  1.0000
  C   C834      1.0  0.45824  0.12829  0.44082  1.0000
  C   C835      1.0  0.48382  0.01796  0.42998  1.0000
  H   H681      1.0  0.65826  0.02873  0.30601  1.0000
  C   C836      1.0  0.47908  0.03801  0.27789  1.0000
  C   C837      1.0  0.56065  0.08874  0.47734  1.0000
  C   C838      1.0  0.52060  0.03467  0.28506  1.0000
  C   C839      1.0  0.45744  0.10938  0.42774  1.0000
  H   H682      1.0  0.42690  0.00485  0.36254  1.0000
  C   C840      1.0  0.50130  0.02562  0.42017  1.0000
  C   C841      1.0  0.34998  0.06074  0.24661  1.0000
  C   C842      1.0  0.54694  0.02148  0.48484  1.0000
  C   C843      1.0  0.35271  0.13718  0.30274  1.0000
  C   C844      1.0  0.47068  0.09329  0.43786  1.0000
  S   S112      1.0  0.43631  0.00997  0.29750  1.0000
  H   H683      1.0  0.46996  0.07891  0.42679  1.0000
  C   C845      1.0  0.51004  0.05324  0.27895  1.0000
  H   H684      1.0  0.47305  0.14586  0.47405  1.0000
  C   C846      1.0  0.48961  0.01936  0.28358  1.0000
  C   C847      1.0  0.36157  0.06550  0.27269  1.0000
  H   H685      1.0  0.48101  0.06951  0.27256  1.0000
  H   H686      1.0  0.48128  0.00648  0.28425  1.0000
  C   C848      1.0  0.33848  0.01154  0.17458  1.0000
  C   C849      1.0  0.56868  0.00449  0.37692  1.0000
  C   C850      1.0  0.52168  0.17657  0.48508  1.0000
  H   H687      1.0  0.36146  0.01071  0.37359  1.0000
  C   C851      1.0  0.33681  0.01757  0.30394  1.0000
  C   C852      1.0  0.54180  0.99756  0.32843  1.0000
  C   C853      1.0  0.65808  0.01039  0.47781  1.0000
  C   C854      1.0  0.56128  0.03400  0.49366  1.0000
  H   H688      1.0  0.33457  0.02858  0.28538  1.0000
  H   H689      1.0  0.57213  0.09073  0.49464  1.0000
  C   C855      1.0  0.61394  0.99531  0.46981  1.0000
  C   C856      1.0  0.33574  0.15007  0.31020  1.0000
  C   C857      1.0  0.55023  0.99778  0.38408  1.0000
  H   H690      1.0  0.65638  0.99954  0.43005  1.0000
  H   H691      1.0  0.41179  0.00318  0.15878  1.0000
  H   H692      1.0  0.54632  0.99525  0.40828  1.0000
  C   C858      1.0  0.66126  0.02701  0.49647  1.0000
  C   C859      1.0  0.32983  0.06856  0.24366  1.0000
  C   C860      1.0  0.66277  0.03003  0.43105  1.0000
  C   C861      1.0  0.65900  0.01206  0.44498  1.0000
  P   P29       1.0  0.52434  0.99379  0.29700  1.0000
  C   C862      1.0  0.53693  0.99408  0.35992  1.0000
  Fe  Fe57      1.0  0.63400  0.07341  0.67371  1.0000
  S   S113      1.0  0.63214  0.04353  0.65091  1.0000
  H   H693      1.0  0.46889  0.08918  0.51903  1.0000
  Fe  Fe58      1.0  0.58855  0.08456  0.66336  1.0000
  S   S114      1.0  0.58416  0.05551  0.64057  1.0000
  S   S115      1.0  0.56186  0.10801  0.66835  1.0000
  Fe  Fe59      1.0  0.60414  0.04260  0.67890  1.0000
  S   S116      1.0  0.59816  0.01450  0.70333  1.0000
  Fe  Fe60      1.0  0.61247  0.05932  0.61422  1.0000
  S   S117      1.0  0.61416  0.04676  0.56452  1.0000
  S   S118      1.0  0.60689  0.07131  0.70426  1.0000
  S   S119      1.0  0.61593  0.08957  0.63442  1.0000
  Fe  Fe61      1.0  0.39946  0.07982  0.68306  1.0000
  S   S120      1.0  0.40337  0.05654  0.64476  1.0000
  S   S121      1.0  0.36660  0.08570  0.69940  1.0000
  Fe  Fe62      1.0  0.44499  0.08599  0.67996  1.0000
  S   S122      1.0  0.45156  0.06301  0.64255  1.0000
  S   S123      1.0  0.46940  0.10336  0.69990  1.0000
  Fe  Fe63      1.0  0.42306  0.07656  0.62003  1.0000
  S   S124      1.0  0.42304  0.08738  0.56946  1.0000
  Fe  Fe64      1.0  0.43128  0.04551  0.67071  1.0000
  H   H694      1.0  0.52284  0.05225  0.58162  1.0000
  S   S125      1.0  0.41731  0.10090  0.65619  1.0000
  S   S126      1.0  0.42666  0.06743  0.71027  1.0000
  C   C863      1.0  0.42307  0.07223  0.53554  1.0000
  C   C864      1.0  0.42052  0.05194  0.53720  1.0000
  H   H695      1.0  0.49496  0.04204  0.75909  1.0000
  H   H696      1.0  0.41882  0.04503  0.55985  1.0000
  H   H697      1.0  0.41687  0.02684  0.76758  1.0000
  C   C865      1.0  0.33832  0.03349  0.81866  1.0000
  C   C866      1.0  0.53643  0.10483  0.67684  1.0000
  C   C867      1.0  0.52488  0.12087  0.69094  1.0000
  C   C868      1.0  0.50461  0.11989  0.69770  1.0000
  C   C869      1.0  0.49512  0.10310  0.68963  1.0000
  C   C870      1.0  0.50641  0.08698  0.67481  1.0000
  C   C871      1.0  0.52714  0.08772  0.66885  1.0000
  H   H698      1.0  0.53175  0.13412  0.69723  1.0000
  H   H699      1.0  0.49617  0.13239  0.70919  1.0000
  H   H700      1.0  0.49925  0.07390  0.66861  1.0000
  H   H701      1.0  0.53586  0.07525  0.65785  1.0000
  H   H702      1.0  0.46501  0.08527  0.57603  1.0000
  C   C872      1.0  0.37423  0.01216  0.71290  1.0000
  C   C873      1.0  0.50781  0.02070  0.61941  1.0000
  C   C874      1.0  0.61661  0.06000  0.52907  1.0000
  C   C875      1.0  0.47144  0.00955  0.53331  1.0000
  C   C876      1.0  0.62090  0.07983  0.52857  1.0000
  C   C877      1.0  0.60564  0.99863  0.64499  1.0000
  H   H703      1.0  0.62276  0.08764  0.55044  1.0000
  H   H704      1.0  0.46413  0.11821  0.63835  1.0000
  H   H705      1.0  0.46566  0.02537  0.74137  1.0000
  H   H706      1.0  0.50268  0.18895  0.66159  1.0000
  C   C878      1.0  0.33357  0.08204  0.73662  1.0000
  H   H707      1.0  0.66061  0.02649  0.52178  1.0000
  C   C879      1.0  0.49390  0.06902  0.58259  1.0000
  C   C880      1.0  0.51120  0.06038  0.56784  1.0000
  C   C881      1.0  0.55591  0.02627  0.54844  1.0000
  H   H708      1.0  0.53821  0.08526  0.51166  1.0000
  C   C882      1.0  0.54801  0.16204  0.65308  1.0000
  H   H709      1.0  0.56010  0.13444  0.54895  1.0000
  C   C883      1.0  0.48875  0.12678  0.61085  1.0000
  C   C884      1.0  0.35443  0.05120  0.62171  1.0000
  H   H710      1.0  0.41907  0.01329  0.62700  1.0000
  H   H711      1.0  0.46027  0.02217  0.52966  1.0000
  S   S127      1.0  0.44018  0.01445  0.68689  1.0000
  H   H712      1.0  0.43990  0.12202  0.59448  1.0000
  H   H713      1.0  0.34747  0.13138  0.71264  1.0000
  C   C885      1.0  0.54133  0.01371  0.53988  1.0000
  H   H714      1.0  0.34961  0.06705  0.62130  1.0000
  C   C886      1.0  0.39115  0.03745  0.73990  1.0000
  C   C887      1.0  0.53707  0.01132  0.50777  1.0000
  C   C888      1.0  0.51914  0.99810  0.73336  1.0000
  C   C889      1.0  0.35817  0.01966  0.65004  1.0000
  C   C890      1.0  0.51062  0.16826  0.62387  1.0000
  C   C891      1.0  0.64935  0.01987  0.72323  1.0000
  P   P30       1.0  0.52838  0.00035  0.56922  1.0000
  C   C892      1.0  0.33634  0.13419  0.73100  1.0000
  C   C893      1.0  0.64825  0.99726  0.83387  1.0000
  C   C894      1.0  0.49876  0.07331  0.51743  1.0000
  H   H715      1.0  0.36842  0.03229  0.80113  1.0000
  C   C895      1.0  0.49499  0.13308  0.58136  1.0000
  C   C896      1.0  0.37125  0.02184  0.59693  1.0000
  H   H716      1.0  0.55602  0.14076  0.61693  1.0000
  H   H717      1.0  0.61124  0.03463  0.50071  1.0000
  C   C897      1.0  0.54432  0.15159  0.62565  1.0000
  C   C898      1.0  0.51338  0.06210  0.53532  1.0000
  H   H718      1.0  0.64118  0.03447  0.72014  1.0000
  H   H719      1.0  0.54828  0.07129  0.60150  1.0000
  H   H720      1.0  0.52721  0.12872  0.51094  1.0000
  H   H721      1.0  0.52173  0.09930  0.60185  1.0000
  H   H722      1.0  0.37924  0.01485  0.57703  1.0000
  C   C899      1.0  0.40475  0.02270  0.75299  1.0000
  H   H723      1.0  0.49287  0.02743  0.55267  1.0000
  C   C900      1.0  0.51636  0.01716  0.74671  1.0000
  H   H724      1.0  0.42725  0.09671  0.50453  1.0000
  H   H725      1.0  0.56230  0.15904  0.66493  1.0000
  C   C901      1.0  0.43259  0.99495  0.66434  1.0000
  H   H726      1.0  0.63593  0.00331  0.81914  1.0000
  H   H727      1.0  0.65286  0.07997  0.75345  1.0000
  H   H728      1.0  0.34354  0.04756  0.66831  1.0000
  C   C902      1.0  0.34239  0.13485  0.76235  1.0000
  H   H729      1.0  0.51565  0.20254  0.51444  1.0000
  H   H730      1.0  0.58026  0.07432  0.57409  1.0000
  C   C903      1.0  0.35754  0.00327  0.80045  1.0000
  C   C904      1.0  0.52556  0.15458  0.61082  1.0000
  H   H731      1.0  0.49211  0.06773  0.60781  1.0000
  C   C905      1.0  0.49713  0.02712  0.74923  1.0000
  C   C906      1.0  0.46138  0.13103  0.56117  1.0000
  H   H732      1.0  0.36750  0.05092  0.57546  1.0000
  C   C907      1.0  0.35118  0.04004  0.64854  1.0000
  H   H733      1.0  0.53587  0.18331  0.68758  1.0000
  C   C908      1.0  0.36455  0.04214  0.59596  1.0000
  H   H734      1.0  0.52914  0.02428  0.75494  1.0000
  H   H735      1.0  0.51509  0.18339  0.56366  1.0000
  H   H736      1.0  0.49229  0.03598  0.65830  1.0000
  C   C909      1.0  0.64406  0.00743  0.74733  1.0000
  C   C910      1.0  0.50429  0.99619  0.55243  1.0000
  C   C911      1.0  0.52469  0.14483  0.51206  1.0000
  C   C912      1.0  0.52645  0.01334  0.60670  1.0000
  H   H737      1.0  0.52654  0.05489  0.52406  1.0000
  C   C913      1.0  0.50672  0.03035  0.64860  1.0000
  H   H738      1.0  0.39245  0.05303  0.74473  1.0000
  H   H739      1.0  0.45070  0.13246  0.54198  1.0000
  C   C914      1.0  0.48992  0.01245  0.54667  1.0000
  C   C915      1.0  0.48064  0.01776  0.73928  1.0000
  H   H740      1.0  0.37944  0.08919  0.76538  1.0000
  C   C916      1.0  0.51817  0.18641  0.51380  1.0000
  C   C917      1.0  0.51438  0.17871  0.65130  1.0000
  C   C918      1.0  0.42523  0.08104  0.50599  1.0000
  C   C919      1.0  0.35254  0.08862  0.79333  1.0000
  P   P31       1.0  0.35490  0.00586  0.68592  1.0000
  H   H741      1.0  0.55983  0.02851  0.57268  1.0000
  H   H742      1.0  0.60011  0.01309  0.63585  1.0000
  H   H743      1.0  0.48533  0.14036  0.53374  1.0000
  H   H744      1.0  0.49592  0.17057  0.61321  1.0000
  H   H745      1.0  0.49399  0.01890  0.60737  1.0000
  C   C920      1.0  0.33179  0.08707  0.79339  1.0000
  C   C921      1.0  0.64616  0.99942  0.55661  1.0000
  C   C922      1.0  0.55695  0.12049  0.55943  1.0000
  C   C923      1.0  0.53853  0.11875  0.57428  1.0000
  H   H746      1.0  0.34058  0.02380  0.74658  1.0000
  C   C924      1.0  0.35602  0.02379  0.80646  1.0000
  C   C925      1.0  0.36803  0.01062  0.62374  1.0000
  H   H747      1.0  0.55618  0.02604  0.66730  1.0000
  H   H748      1.0  0.63457  0.01010  0.54715  1.0000
  C   C926      1.0  0.46895  0.12286  0.61548  1.0000
  H   H749      1.0  0.49908  0.12526  0.63049  1.0000
  C   C927      1.0  0.35415  0.08442  0.73636  1.0000
  H   H750      1.0  0.35995  0.09155  0.81518  1.0000
  C   C928      1.0  0.52415  0.03259  0.66554  1.0000
  C   C929      1.0  0.40291  0.00265  0.74671  1.0000
  C   C930      1.0  0.37611  0.03223  0.71978  1.0000
  C   C931      1.0  0.56573  0.03635  0.52540  1.0000
  C   C932      1.0  0.51792  0.17548  0.54172  1.0000
  C   C933      1.0  0.36368  0.08719  0.76508  1.0000
  C   C934      1.0  0.48113  0.13518  0.55652  1.0000
  C   C935      1.0  0.57182  0.10441  0.55902  1.0000
  C   C936      1.0  0.47871  0.07917  0.56470  1.0000
  H   H751      1.0  0.52327  0.04021  0.68805  1.0000
  H   H752      1.0  0.63151  0.01237  0.76233  1.0000
  C   C937      1.0  0.52136  0.15460  0.54108  1.0000
  C   C938      1.0  0.56852  0.08656  0.57367  1.0000
  C   C939      1.0  0.54268  0.02478  0.65369  1.0000
  C   C940      1.0  0.48107  0.08141  0.53229  1.0000
  H   H753      1.0  0.36596  0.04395  0.70969  1.0000
  H   H754      1.0  0.57679  0.04611  0.53224  1.0000
  C   C941      1.0  0.54383  0.01499  0.62464  1.0000
  H   H755      1.0  0.58613  0.10594  0.54806  1.0000
  C   C942      1.0  0.45524  0.12510  0.59075  1.0000
  C   C943      1.0  0.53540  0.10080  0.58913  1.0000
  C   C944      1.0  0.53306  0.17557  0.66594  1.0000
  C   C945      1.0  0.55040  0.08480  0.58886  1.0000
  P   P32       1.0  0.52005  0.14014  0.57661  1.0000
  H   H756      1.0  0.41702  0.02517  0.51072  1.0000
  H   H757      1.0  0.35816  0.13267  0.76821  1.0000
  C   C946      1.0  0.41949  0.04074  0.50936  1.0000
  H   H758      1.0  0.55835  0.00852  0.61651  1.0000
  H   H759      1.0  0.64076  0.00935  0.60415  1.0000
  C   C947      1.0  0.33038  0.01487  0.70092  1.0000
  H   H760      1.0  0.33526  0.04842  0.90158  1.0000
  H   H761      1.0  0.37130  0.99614  0.79068  1.0000
  C   C948      1.0  0.61441  0.05002  0.50050  1.0000
  C   C949      1.0  0.48341  0.99866  0.72613  1.0000
  C   C950      1.0  0.42289  0.99824  0.63539  1.0000
  C   C951      1.0  0.64954  0.99888  0.58899  1.0000
  H   H762      1.0  0.33597  0.01295  0.88601  1.0000
  H   H763      1.0  0.33703  0.04941  0.82299  1.0000
  C   C952      1.0  0.60586  0.99513  0.67738  1.0000
  C   C953      1.0  0.38758  0.99738  0.72712  1.0000
  H   H764      1.0  0.48432  0.99601  0.66212  1.0000
  H   H765      1.0  0.52606  0.00167  0.50027  1.0000
  H   H766      1.0  0.33279  0.13700  0.81061  1.0000
  H   H767      1.0  0.37348  0.99502  0.62363  1.0000
  C   C954      1.0  0.62326  0.08947  0.49959  1.0000
  H   H768      1.0  0.62689  0.10473  0.49935  1.0000
  H   H769      1.0  0.46645  0.99382  0.61191  1.0000
  Fe  Fe65      1.0  0.62644  0.89417  0.38015  1.0000
  S   S128      1.0  0.63217  0.86296  0.36136  1.0000
  S   S129      1.0  0.62972  0.90725  0.42883  1.0000
  Fe  Fe66      1.0  0.61303  0.91068  0.31611  1.0000
  S   S130      1.0  0.61753  0.88096  0.29206  1.0000
  S   S131      1.0  0.60235  0.93918  0.29132  1.0000
  Fe  Fe67      1.0  0.60286  0.87019  0.33564  1.0000
  S   S132      1.0  0.57786  0.84999  0.33700  1.0000
  Fe  Fe68      1.0  0.64642  0.87653  0.31922  1.0000
  S   S133      1.0  0.59638  0.90037  0.35734  1.0000
  S   S134      1.0  0.64269  0.90712  0.34032  1.0000
  Fe  Fe69      1.0  0.45870  0.88147  0.32681  1.0000
  S   S135      1.0  0.44875  0.89123  0.37473  1.0000
  S   S136      1.0  0.48919  0.88900  0.31047  1.0000
  Fe  Fe70      1.0  0.41640  0.87270  0.30747  1.0000
  S   S137      1.0  0.40370  0.88194  0.35416  1.0000
  S   S138      1.0  0.39920  0.86197  0.26534  1.0000
  Fe  Fe71      1.0  0.42245  0.90709  0.35090  1.0000
  S   S139      1.0  0.41237  0.93624  0.37349  1.0000
  Fe  Fe72      1.0  0.43044  0.86361  0.37980  1.0000
  S   S140      1.0  0.42884  0.83324  0.44624  1.0000
  S   S141      1.0  0.43330  0.89952  0.30236  1.0000
  S   S142      1.0  0.44260  0.85398  0.32913  1.0000
  C   C955      1.0  0.37324  0.86541  0.25567  1.0000
  C   C956      1.0  0.35859  0.87228  0.27759  1.0000
  C   C957      1.0  0.53924  0.92813  0.37083  1.0000
  C   C958      1.0  0.37405  0.87300  0.47938  1.0000
  H   H770      1.0  0.49809  0.85566  0.42526  1.0000
  C   C959      1.0  0.36714  0.86055  0.22517  1.0000
  H   H771      1.0  0.36298  0.87599  0.30116  1.0000
  C   C960      1.0  0.34670  0.86227  0.21671  1.0000
  H   H772      1.0  0.37832  0.85521  0.20803  1.0000
  C   C961      1.0  0.35707  0.83146  0.34282  1.0000
  C   C962      1.0  0.49635  0.95098  0.44568  1.0000
  H   H773      1.0  0.60730  0.97989  0.27469  1.0000
  C   C963      1.0  0.64318  0.82997  0.28119  1.0000
  C   C964      1.0  0.55971  0.97374  0.20762  1.0000
  H   H774      1.0  0.37604  0.97306  0.25708  1.0000
  C   C965      1.0  0.42980  0.97082  0.30326  1.0000
  C   C966      1.0  0.42435  0.95439  0.32011  1.0000
  C   C967      1.0  0.41939  0.95638  0.35197  1.0000
  C   C968      1.0  0.42003  0.97468  0.36705  1.0000
  C   C969      1.0  0.53552  0.92053  0.47110  1.0000
  H   H775      1.0  0.43340  0.96940  0.27854  1.0000
  H   H776      1.0  0.42343  0.94043  0.30820  1.0000
  H   H777      1.0  0.41617  0.97629  0.39168  1.0000
  H   H778      1.0  0.46805  0.84193  0.40247  1.0000
  C   C970      1.0  0.55312  0.86102  0.33078  1.0000
  C   C971      1.0  0.53687  0.84990  0.33614  1.0000
  C   C972      1.0  0.51704  0.85849  0.33147  1.0000
  C   C973      1.0  0.51344  0.87800  0.32020  1.0000
  C   C974      1.0  0.52972  0.88897  0.31452  1.0000
  C   C975      1.0  0.54941  0.88070  0.32041  1.0000
  H   H779      1.0  0.53965  0.83463  0.34403  1.0000
  H   H780      1.0  0.50464  0.84982  0.33556  1.0000
  H   H781      1.0  0.52712  0.90397  0.30548  1.0000
  H   H782      1.0  0.56174  0.88945  0.31636  1.0000
  H   H783      1.0  0.42957  0.86957  0.48774  1.0000
  H   H784      1.0  0.35870  0.83118  0.31743  1.0000
  H   H785      1.0  0.38476  0.82491  0.45512  1.0000
  H   H786      1.0  0.40580  0.82949  0.37806  1.0000
  C   C976      1.0  0.63161  0.89287  0.46356  1.0000
  C   C977      1.0  0.61321  0.97705  0.29809  1.0000
  C   C978      1.0  0.61205  0.95847  0.31216  1.0000
  C   C979      1.0  0.61948  0.95499  0.34259  1.0000
  C   C980      1.0  0.62932  0.96945  0.35809  1.0000
  C   C981      1.0  0.59378  0.99219  0.46668  1.0000
  H   H787      1.0  0.61763  0.94114  0.35433  1.0000
  C   C982      1.0  0.36855  0.84328  0.36096  1.0000
  C   C983      1.0  0.50158  0.93376  0.42761  1.0000
  C   C984      1.0  0.46362  0.95515  0.42121  1.0000
  H   H788      1.0  0.56215  0.96837  0.28691  1.0000
  C   C985      1.0  0.42137  0.86973  0.42472  1.0000
  C   C986      1.0  0.37765  0.90303  0.41144  1.0000
  C   C987      1.0  0.41550  0.83942  0.38857  1.0000
  H   H789      1.0  0.45838  0.93399  0.38510  1.0000
  C   C988      1.0  0.49620  0.80339  0.47785  1.0000
  C   C989      1.0  0.45214  0.84634  0.40320  1.0000
  C   C990      1.0  0.52932  0.85294  0.41318  1.0000
  C   C991      1.0  0.50788  0.97534  0.30793  1.0000
  C   C992      1.0  0.51024  0.95623  0.29438  1.0000
  H   H790      1.0  0.37227  0.88819  0.47103  1.0000
  C   C993      1.0  0.52694  0.89436  0.42213  1.0000
  H   H791      1.0  0.50608  0.92225  0.49241  1.0000
  C   C994      1.0  0.40700  0.85718  0.40822  1.0000
  H   H792      1.0  0.37598  0.97537  0.31466  1.0000
  H   H793      1.0  0.58336  0.92711  0.21235  1.0000
  C   C995      1.0  0.40500  0.99079  0.16897  1.0000
  H   H794      1.0  0.62412  0.82035  0.31758  1.0000
  C   C996      1.0  0.60741  0.82908  0.27574  1.0000
  C   C997      1.0  0.60810  0.83668  0.24512  1.0000
  C   C998      1.0  0.62654  0.84115  0.23290  1.0000
  P   P33       1.0  0.58554  0.84287  0.22249  1.0000
  C   C999      1.0  0.56349  0.83497  0.24103  1.0000
  C   C1000     1.0  0.58362  0.86959  0.21823  1.0000
  C   C1001     1.0  0.57834  0.88176  0.24430  1.0000
  C   C1002     1.0  0.57800  0.90246  0.24205  1.0000
  C   C1003     1.0  0.58320  0.91113  0.21383  1.0000
  C   C1004     1.0  0.58869  0.89911  0.18782  1.0000
  C   C1005     1.0  0.58902  0.87838  0.19001  1.0000
  C   C1006     1.0  0.54589  0.84806  0.24403  1.0000
  C   C1007     1.0  0.52883  0.84157  0.25777  1.0000
  C   C1008     1.0  0.52910  0.82195  0.26830  1.0000
  C   C1009     1.0  0.54633  0.80867  0.26460  1.0000
  C   C1010     1.0  0.56339  0.81508  0.25069  1.0000
  C   C1011     1.0  0.58703  0.83055  0.18480  1.0000
  C   C1012     1.0  0.60244  0.81545  0.17803  1.0000
  C   C1013     1.0  0.60311  0.80588  0.14879  1.0000
  C   C1014     1.0  0.58832  0.81115  0.12631  1.0000
  C   C1015     1.0  0.57277  0.82593  0.13311  1.0000
  C   C1016     1.0  0.57206  0.83554  0.16231  1.0000
  C   C1017     1.0  0.48027  0.81765  0.48498  1.0000
  H   H795      1.0  0.64471  0.94869  0.46500  1.0000
  H   H796      1.0  0.56690  0.91531  0.45822  1.0000
  H   H797      1.0  0.59339  0.82629  0.28637  1.0000
  H   H798      1.0  0.62736  0.84767  0.20975  1.0000
  H   H799      1.0  0.57498  0.87513  0.26661  1.0000
  H   H800      1.0  0.34377  0.98019  0.37317  1.0000
  C   C1018     1.0  0.33777  0.90667  0.39172  1.0000
  H   H801      1.0  0.59307  0.90584  0.16613  1.0000
  H   H802      1.0  0.59392  0.86931  0.16993  1.0000
  H   H803      1.0  0.54512  0.86328  0.23586  1.0000
  H   H804      1.0  0.51547  0.85190  0.26074  1.0000
  H   H805      1.0  0.51595  0.81710  0.27943  1.0000
  H   H806      1.0  0.54651  0.79344  0.27268  1.0000
  H   H807      1.0  0.57660  0.80459  0.24778  1.0000
  H   H808      1.0  0.61386  0.81087  0.19525  1.0000
  H   H809      1.0  0.61509  0.79430  0.14361  1.0000
  H   H810      1.0  0.58885  0.80369  0.10370  1.0000
  H   H811      1.0  0.56119  0.82989  0.11580  1.0000
  H   H812      1.0  0.55983  0.84686  0.16742  1.0000
  H   H813      1.0  0.41578  0.88148  0.44057  1.0000
  C   C1019     1.0  0.63415  0.87203  0.46293  1.0000
  C   C1020     1.0  0.40122  0.88926  0.16742  1.0000
  C   C1021     1.0  0.41693  0.88231  0.18739  1.0000
  C   C1022     1.0  0.42046  0.89281  0.21481  1.0000
  C   C1023     1.0  0.40798  0.90996  0.22277  1.0000
  C   C1024     1.0  0.39169  0.91658  0.20348  1.0000
  C   C1025     1.0  0.38879  0.90651  0.17519  1.0000
  P   P34       1.0  0.37562  0.93875  0.21368  1.0000
  C   C1026     1.0  0.38699  0.95915  0.19600  1.0000
  C   C1027     1.0  0.35030  0.93658  0.20064  1.0000
  H   H814      1.0  0.49372  0.79078  0.46307  1.0000
  H   H815      1.0  0.57520  0.95462  0.34102  1.0000
  H   H816      1.0  0.37536  0.93504  0.40831  1.0000
  C   C1028     1.0  0.33203  0.86879  0.23878  1.0000
  H   H817      1.0  0.56583  0.86316  0.47373  1.0000
  H   H818      1.0  0.39305  0.90229  0.41864  1.0000
  H   H819      1.0  0.40913  0.96055  0.23287  1.0000
  C   C1029     1.0  0.49220  0.98011  0.32938  1.0000
  C   C1030     1.0  0.55617  0.91744  0.47725  1.0000
  H   H820      1.0  0.38437  0.98859  0.13065  1.0000
  C   C1031     1.0  0.37417  0.94113  0.25591  1.0000
  C   C1032     1.0  0.37210  0.92426  0.27442  1.0000
  C   C1033     1.0  0.37128  0.92585  0.30718  1.0000
  C   C1034     1.0  0.37254  0.94429  0.32162  1.0000
  H   H821      1.0  0.52809  0.91871  0.36297  1.0000
  C   C1035     1.0  0.37489  0.95971  0.27063  1.0000
  H   H822      1.0  0.39853  0.88114  0.14611  1.0000
  H   H823      1.0  0.42627  0.86869  0.18184  1.0000
  H   H824      1.0  0.43251  0.88727  0.23045  1.0000
  H   H825      1.0  0.41090  0.91779  0.24424  1.0000
  H   H826      1.0  0.37676  0.91174  0.15937  1.0000
  H   H827      1.0  0.35210  0.90458  0.20756  1.0000
  C   C1036     1.0  0.48122  0.94728  0.32265  1.0000
  C   C1037     1.0  0.36759  0.92185  0.40541  1.0000
  H   H828      1.0  0.55840  0.89113  0.40953  1.0000
  C   C1038     1.0  0.40323  0.96682  0.21090  1.0000
  H   H829      1.0  0.36891  0.96037  0.15369  1.0000
  H   H830      1.0  0.56026  0.85486  0.40152  1.0000
  C   C1039     1.0  0.62284  0.99168  0.31381  1.0000
  C   C1040     1.0  0.54508  0.88363  0.41315  1.0000
  C   C1041     1.0  0.42821  0.83764  0.48749  1.0000
  H   H831      1.0  0.37143  0.90981  0.26353  1.0000
  H   H832      1.0  0.37012  0.91270  0.32141  1.0000
  C   C1042     1.0  0.38061  0.96674  0.16653  1.0000
  H   H833      1.0  0.46553  0.81597  0.47572  1.0000
  C   C1043     1.0  0.42584  0.99095  0.35042  1.0000
  H   H834      1.0  0.56820  0.96932  0.18667  1.0000
  C   C1044     1.0  0.43789  0.83382  0.38663  1.0000
  H   H835      1.0  0.63544  0.96645  0.38135  1.0000
  C   C1045     1.0  0.66182  0.96457  0.26916  1.0000
  H   H836      1.0  0.62915  0.91891  0.49328  1.0000
  C   C1046     1.0  0.55120  0.93641  0.34854  1.0000
  H   H837      1.0  0.47069  0.93656  0.32767  1.0000
  H   H838      1.0  0.58011  0.96113  0.39746  1.0000
  H   H839      1.0  0.54939  0.93330  0.32377  1.0000
  C   C1047     1.0  0.56849  0.95210  0.39017  1.0000
  H   H840      1.0  0.44888  0.96326  0.41882  1.0000
  H   H841      1.0  0.63465  0.86424  0.44064  1.0000
  C   C1048     1.0  0.56710  0.96771  0.23718  1.0000
  C   C1049     1.0  0.63639  0.86121  0.49127  1.0000
  H   H842      1.0  0.58136  0.95874  0.23928  1.0000
  C   C1050     1.0  0.33749  0.95359  0.19252  1.0000
  C   C1051     1.0  0.34769  0.88784  0.39812  1.0000
  C   C1052     1.0  0.44381  0.86403  0.42288  1.0000
  H   H843      1.0  0.34956  0.83398  0.43310  1.0000
  C   C1053     1.0  0.63105  0.90279  0.49261  1.0000
  H   H844      1.0  0.49210  0.91571  0.38911  1.0000
  C   C1054     1.0  0.51120  0.86349  0.42202  1.0000
  H   H845      1.0  0.42723  0.80633  0.49610  1.0000
  C   C1055     1.0  0.34293  0.91785  0.19986  1.0000
  C   C1056     1.0  0.46994  0.89900  0.49227  1.0000
  H   H846      1.0  0.34248  0.96824  0.19438  1.0000
  C   C1057     1.0  0.58598  0.97707  0.48370  1.0000
  H   H847      1.0  0.34228  0.85825  0.19329  1.0000
  C   C1058     1.0  0.64401  0.83769  0.25083  1.0000
  C   C1059     1.0  0.55616  0.94433  0.41248  1.0000
  H   H848      1.0  0.52212  0.95204  0.27780  1.0000
  H   H849      1.0  0.63856  0.84510  0.49066  1.0000
  H   H850      1.0  0.53024  0.83700  0.40920  1.0000
  C   C1060     1.0  0.34335  0.82026  0.35730  1.0000
  H   H851      1.0  0.55804  0.94803  0.43693  1.0000
  P   P35       1.0  0.38019  0.86099  0.41662  1.0000
  C   C1061     1.0  0.47737  0.96151  0.44267  1.0000
  C   C1062     1.0  0.37769  0.85688  0.45842  1.0000
  C   C1063     1.0  0.49689  0.94234  0.30164  1.0000
  C   C1064     1.0  0.48803  0.92811  0.40490  1.0000
  H   H852      1.0  0.37878  0.85203  0.34903  1.0000
  C   C1065     1.0  0.36787  0.88572  0.40773  1.0000
  H   H853      1.0  0.46467  0.90138  0.46836  1.0000
  C   C1066     1.0  0.54180  0.93181  0.40299  1.0000
  C   C1067     1.0  0.36665  0.84390  0.39388  1.0000
  C   C1068     1.0  0.63113  0.98776  0.34365  1.0000
  C   C1069     1.0  0.38071  0.83746  0.47058  1.0000
  H   H854      1.0  0.33942  0.87501  0.39559  1.0000
  C   C1070     1.0  0.46898  0.93854  0.40225  1.0000
  H   H855      1.0  0.49602  0.89196  0.43421  1.0000
  H   H856      1.0  0.44366  0.82039  0.37432  1.0000
  H   H857      1.0  0.52291  0.98863  0.36600  1.0000
  C   C1071     1.0  0.53817  0.98586  0.26203  1.0000
  H   H858      1.0  0.65817  0.84149  0.24162  1.0000
  C   C1072     1.0  0.56585  0.94832  0.35824  1.0000
  C   C1073     1.0  0.62489  0.82571  0.29365  1.0000
  C   C1074     1.0  0.55623  0.97342  0.26427  1.0000
  C   C1075     1.0  0.51005  0.88411  0.42679  1.0000
  C   C1076     1.0  0.35237  0.83299  0.40812  1.0000
  H   H859      1.0  0.63678  0.95259  0.24704  1.0000
  H   H860      1.0  0.37252  0.94544  0.34700  1.0000
  P   P36       1.0  0.52633  0.92056  0.43111  1.0000
  C   C1077     1.0  0.43037  0.98915  0.31842  1.0000
  H   H861      1.0  0.45381  0.87208  0.43670  1.0000
  C   C1078     1.0  0.37443  0.96118  0.30338  1.0000
  H   H862      1.0  0.48886  0.87225  0.48126  1.0000
  H   H863      1.0  0.57427  0.91174  0.26249  1.0000
  C   C1079     1.0  0.54625  0.86300  0.40888  1.0000
  H   H864      1.0  0.34003  0.93828  0.39055  1.0000
  H   H865      1.0  0.33405  0.95643  0.28125  1.0000
  H   H866      1.0  0.47330  0.97470  0.45676  1.0000
  C   C1080     1.0  0.47894  0.96614  0.33663  1.0000
  H   H867      1.0  0.57040  0.97462  0.48114  1.0000
  C   C1081     1.0  0.34772  0.92368  0.39538  1.0000
  H   H868      1.0  0.42410  0.98898  0.20988  1.0000
  H   H869      1.0  0.65698  0.97982  0.26257  1.0000
  C   C1082     1.0  0.33815  0.87393  0.26916  1.0000
  H   H870      1.0  0.50694  0.95633  0.46203  1.0000
  H   H871      1.0  0.49844  0.92780  0.29054  1.0000
  H   H872      1.0  0.64759  0.91781  0.26269  1.0000
  C   C1083     1.0  0.51515  0.80519  0.49035  1.0000
  H   H873      1.0  0.46653  0.97012  0.35242  1.0000
  H   H874      1.0  0.33438  0.81119  0.34315  1.0000
  C   C1084     1.0  0.54140  0.98551  0.20513  1.0000
  C   C1085     1.0  0.34193  0.99050  0.35364  1.0000
  H   H875      1.0  0.52742  0.79390  0.48537  1.0000
  C   C1086     1.0  0.52205  0.92123  0.49645  1.0000
  C   C1087     1.0  0.62642  0.98341  0.49036  1.0000
  C   C1088     1.0  0.41193  0.98281  0.19772  1.0000
  C   C1089     1.0  0.38949  0.98263  0.15322  1.0000
  H   H876      1.0  0.53037  0.85862  0.48335  1.0000
  C   C1090     1.0  0.66046  0.95056  0.46311  1.0000
  H   H877      1.0  0.65667  0.82782  0.29534  1.0000
  P   P37       1.0  0.65254  0.98702  0.49486  1.0000
  C   C1091     1.0  0.55980  0.86459  0.49734  1.0000
  C   C1092     1.0  0.65048  0.94926  0.26031  1.0000
  C   C1093     1.0  0.34096  0.82106  0.38992  1.0000
  C   C1094     1.0  0.65653  0.92965  0.26925  1.0000
  H   H878      1.0  0.53561  0.99015  0.18222  1.0000
  C   C1095     1.0  0.53062  0.99152  0.23222  1.0000
  H   H879      1.0  0.33006  0.81265  0.40108  1.0000
  C   C1096     1.0  0.32965  0.98663  0.32819  1.0000
  Fe  Fe73      1.0  0.62758  0.91595  0.62723  1.0000
  S   S143      1.0  0.61285  0.90760  0.67175  1.0000
  S   S144      1.0  0.63105  0.94661  0.60983  1.0000
  Fe  Fe74      1.0  0.63143  0.87418  0.60079  1.0000
  S   S145      1.0  0.61718  0.86189  0.64350  1.0000
  S   S146      1.0  0.63916  0.85732  0.55562  1.0000
  Fe  Fe75      1.0  0.59452  0.88906  0.64117  1.0000
  S   S147      1.0  0.56110  0.89344  0.63001  1.0000
  Fe  Fe76      1.0  0.63673  0.88142  0.67113  1.0000
  S   S148      1.0  0.60794  0.89964  0.59684  1.0000
  S   S149      1.0  0.65257  0.89130  0.62829  1.0000
  Fe  Fe77      1.0  0.44913  0.88574  0.67354  1.0000
  S   S150      1.0  0.44520  0.88977  0.62153  1.0000
  S   S151      1.0  0.47916  0.88121  0.69871  1.0000
  Fe  Fe78      1.0  0.40313  0.88918  0.68663  1.0000
  S   S152      1.0  0.39593  0.89350  0.63504  1.0000
  S   S153      1.0  0.38291  0.89359  0.73032  1.0000
  Fe  Fe79      1.0  0.42115  0.86940  0.62637  1.0000
  S   S154      1.0  0.42006  0.84280  0.59442  1.0000
  Fe  Fe80      1.0  0.42069  0.91352  0.63411  1.0000
  S   S155      1.0  0.41801  0.94187  0.60551  1.0000
  S   S156      1.0  0.42670  0.86341  0.67801  1.0000
  S   S157      1.0  0.42625  0.91110  0.68611  1.0000
  C   C1097     1.0  0.42454  0.84168  0.55351  1.0000
  C   C1098     1.0  0.42650  0.85851  0.53481  1.0000
  C   C1099     1.0  0.42528  0.82295  0.53923  1.0000
  H   H880      1.0  0.42605  0.87305  0.54572  1.0000
  H   H881      1.0  0.42391  0.80988  0.55347  1.0000
  C   C1100     1.0  0.35902  0.88697  0.74235  1.0000
  C   C1101     1.0  0.35318  0.88998  0.77396  1.0000
  C   C1102     1.0  0.37502  0.96882  0.66938  1.0000
  C   C1103     1.0  0.61268  0.97626  0.68894  1.0000
  C   C1104     1.0  0.34553  0.87950  0.72143  1.0000
  H   H882      1.0  0.36346  0.89573  0.79040  1.0000
  H   H883      1.0  0.48773  0.89048  0.57841  1.0000
  H   H884      1.0  0.34974  0.87706  0.69709  1.0000
  C   C1105     1.0  0.50240  0.83614  0.51613  1.0000
  C   C1106     1.0  0.52914  0.91979  0.52738  1.0000
  H   H885      1.0  0.51911  0.96539  0.60407  1.0000
  C   C1107     1.0  0.42367  0.96241  0.62782  1.0000
  C   C1108     1.0  0.43351  0.95934  0.65654  1.0000
  C   C1109     1.0  0.43760  0.97551  0.67502  1.0000
  C   C1110     1.0  0.33413  0.88576  0.78452  1.0000
  C   C1111     1.0  0.47297  0.96199  0.60785  1.0000
  H   H886      1.0  0.43876  0.94453  0.66398  1.0000
  H   H887      1.0  0.44527  0.97291  0.69720  1.0000
  C   C1112     1.0  0.53870  0.88982  0.65005  1.0000
  C   C1113     1.0  0.53848  0.88307  0.68108  1.0000
  C   C1114     1.0  0.52012  0.88056  0.69580  1.0000
  C   C1115     1.0  0.50192  0.88456  0.67953  1.0000
  C   C1116     1.0  0.50219  0.89128  0.64852  1.0000
  C   C1117     1.0  0.52047  0.89408  0.63397  1.0000
  H   H888      1.0  0.55240  0.87976  0.69372  1.0000
  H   H889      1.0  0.52000  0.87537  0.71984  1.0000
  H   H890      1.0  0.48828  0.89443  0.63591  1.0000
  H   H891      1.0  0.52047  0.89950  0.61007  1.0000
  C   C1118     1.0  0.63586  0.87116  0.52035  1.0000
  C   C1119     1.0  0.63307  0.89200  0.52085  1.0000
  C   C1120     1.0  0.63553  0.92706  0.75350  1.0000
  H   H892      1.0  0.63292  0.89988  0.54296  1.0000
  C   C1121     1.0  0.48234  0.94469  0.62164  1.0000
  C   C1122     1.0  0.62027  0.96117  0.66816  1.0000
  C   C1123     1.0  0.62045  0.96482  0.63585  1.0000
  H   H893      1.0  0.55518  0.91546  0.55710  1.0000
  H   H894      1.0  0.45136  0.92441  0.51053  1.0000
  H   H895      1.0  0.62614  0.94678  0.67710  1.0000
  H   H896      1.0  0.45289  0.98825  0.51441  1.0000
  C   C1124     1.0  0.40730  0.94185  0.77037  1.0000
  C   C1125     1.0  0.40363  0.94871  0.80103  1.0000
  C   C1126     1.0  0.38423  0.95596  0.81015  1.0000
  C   C1127     1.0  0.54970  0.91742  0.53322  1.0000
  H   H897      1.0  0.47866  0.95944  0.52180  1.0000
  C   C1128     1.0  0.49251  0.83811  0.64174  1.0000
  H   H898      1.0  0.58801  0.87008  0.51823  1.0000
  C   C1129     1.0  0.50146  0.84948  0.58028  1.0000
  C   C1130     1.0  0.36832  0.95650  0.78858  1.0000
  C   C1131     1.0  0.57229  0.86854  0.52234  1.0000
  C   C1132     1.0  0.48416  0.98162  0.65094  1.0000
  H   H899      1.0  0.34941  0.97889  0.86564  1.0000
  C   C1133     1.0  0.64317  0.91214  0.77425  1.0000
  H   H900      1.0  0.52425  0.83092  0.64733  1.0000
  H   H901      1.0  0.53970  0.93480  0.62097  1.0000
  C   C1134     1.0  0.50028  0.97708  0.54251  1.0000
  C   C1135     1.0  0.54424  0.86877  0.55818  1.0000
  H   H902      1.0  0.33680  0.92804  0.76926  1.0000
  C   C1136     1.0  0.37681  0.94815  0.66531  1.0000
  H   H903      1.0  0.42220  0.93574  0.76338  1.0000
  H   H904      1.0  0.47051  0.99148  0.71884  1.0000
  H   H905      1.0  0.65233  0.82603  0.60621  1.0000
  H   H906      1.0  0.52090  0.94942  0.76296  1.0000
  C   C1137     1.0  0.56358  0.97425  0.57108  1.0000
  C   C1138     1.0  0.48182  0.97424  0.52886  1.0000
  H   H907      1.0  0.62025  0.92741  0.74517  1.0000
  H   H908      1.0  0.46278  0.91882  0.56542  1.0000
  H   H909      1.0  0.38649  0.98178  0.72312  1.0000
  C   C1139     1.0  0.64777  0.94113  0.74273  1.0000
  C   C1140     1.0  0.33968  0.95424  0.83885  1.0000
  H   H910      1.0  0.46164  0.84533  0.62876  1.0000
  H   H911      1.0  0.66074  0.98302  0.93101  1.0000
  C   C1141     1.0  0.33754  0.93571  0.89781  1.0000
  H   H912      1.0  0.53849  0.87107  0.58176  1.0000
  C   C1142     1.0  0.53970  0.86210  0.50290  1.0000
  H   H913      1.0  0.48905  0.83448  0.66581  1.0000
  C   C1143     1.0  0.56444  0.87086  0.55265  1.0000
  H   H914      1.0  0.46415  0.96102  0.58668  1.0000
  C   C1144     1.0  0.51822  0.82140  0.50963  1.0000
  C   C1145     1.0  0.49303  0.96421  0.66542  1.0000
  H   H915      1.0  0.51875  0.91989  0.54686  1.0000
  C   C1146     1.0  0.37226  0.94992  0.75767  1.0000
  C   C1147     1.0  0.56256  0.96622  0.67006  1.0000
  C   C1148     1.0  0.57126  0.94683  0.67539  1.0000
  C   C1149     1.0  0.56006  0.93269  0.68875  1.0000
  C   C1150     1.0  0.54019  0.93807  0.69744  1.0000
  C   C1151     1.0  0.53159  0.95776  0.69319  1.0000
  C   C1152     1.0  0.54266  0.97155  0.67833  1.0000
  P   P38       1.0  0.50578  0.96492  0.70269  1.0000
  C   C1153     1.0  0.49670  0.94743  0.72991  1.0000
  H   H916      1.0  0.61217  0.98603  0.59916  1.0000
  C   C1154     1.0  0.46250  0.91209  0.51598  1.0000
  C   C1155     1.0  0.48296  0.89274  0.55425  1.0000
  H   H917      1.0  0.64171  0.95244  0.72648  1.0000
  C   C1156     1.0  0.53193  0.86337  0.53360  1.0000
  H   H918      1.0  0.53294  0.82234  0.51959  1.0000
  C   C1157     1.0  0.50744  0.94252  0.75762  1.0000
  C   C1158     1.0  0.50112  0.92829  0.77822  1.0000
  C   C1159     1.0  0.48395  0.91903  0.77141  1.0000
  C   C1160     1.0  0.47287  0.92429  0.74435  1.0000
  C   C1161     1.0  0.47910  0.93853  0.72375  1.0000
  C   C1162     1.0  0.53460  0.96296  0.59675  1.0000
  C   C1163     1.0  0.49254  0.94583  0.65010  1.0000
  H   H919      1.0  0.48118  0.93029  0.61093  1.0000
  C   C1164     1.0  0.54307  0.97717  0.57836  1.0000
  C   C1165     1.0  0.42717  0.82095  0.50663  1.0000
  H   H920      1.0  0.51133  0.96435  0.54500  1.0000
  H   H921      1.0  0.38805  0.97671  0.66558  1.0000
  H   H922      1.0  0.58645  0.94263  0.66798  1.0000
  H   H923      1.0  0.56662  0.91743  0.69164  1.0000
  H   H924      1.0  0.53157  0.92673  0.70684  1.0000
  C   C1166     1.0  0.48324  0.83385  0.50440  1.0000
  C   C1167     1.0  0.36047  0.93748  0.67089  1.0000
  C   C1168     1.0  0.56657  0.94297  0.59930  1.0000
  H   H925      1.0  0.36202  0.92138  0.66830  1.0000
  H   H926      1.0  0.57916  0.91373  0.51279  1.0000
  H   H927      1.0  0.63490  0.97041  0.84466  1.0000
  H   H928      1.0  0.57408  0.87425  0.57195  1.0000
  H   H929      1.0  0.50970  0.92419  0.79921  1.0000
  H   H930      1.0  0.47932  0.90759  0.78683  1.0000
  H   H931      1.0  0.45978  0.91681  0.73879  1.0000
  H   H932      1.0  0.47026  0.94219  0.70292  1.0000
  H   H933      1.0  0.49954  0.93228  0.66076  1.0000
  H   H934      1.0  0.47055  0.84440  0.51041  1.0000
  H   H935      1.0  0.61247  0.97355  0.71397  1.0000
  S   S158      1.0  0.65338  0.87203  0.71669  1.0000
  H   H936      1.0  0.36049  0.95024  0.74038  1.0000
  C   C1169     1.0  0.46905  0.90899  0.54693  1.0000
  H   H937      1.0  0.53586  0.98642  0.67319  1.0000
  C   C1170     1.0  0.56321  0.91634  0.50820  1.0000
  H   H938      1.0  0.63393  0.90077  0.78171  1.0000
  C   C1171     1.0  0.57526  0.95721  0.58167  1.0000
  C   C1172     1.0  0.54621  0.94572  0.60657  1.0000
  H   H939      1.0  0.39096  0.94034  0.65812  1.0000
  H   H940      1.0  0.46921  0.85507  0.57475  1.0000
  P   P39       1.0  0.34324  0.96560  0.80088  1.0000
  C   C1173     1.0  0.34436  0.96420  0.86658  1.0000
  C   C1174     1.0  0.37571  0.85023  0.52353  1.0000
  H   H941      1.0  0.57569  0.93000  0.60808  1.0000
  C   C1175     1.0  0.48149  0.85015  0.59039  1.0000
  C   C1176     1.0  0.41840  0.98190  0.61709  1.0000
  H   H942      1.0  0.39438  0.93672  0.72521  1.0000
  H   H943      1.0  0.41089  0.98434  0.59472  1.0000
  H   H944      1.0  0.53211  0.83897  0.59265  1.0000
  C   C1177     1.0  0.47708  0.84456  0.62101  1.0000
  C   C1178     1.0  0.48999  0.87911  0.53076  1.0000
  H   H945      1.0  0.38166  0.96103  0.83408  1.0000
  H   H946      1.0  0.59121  0.95521  0.57700  1.0000
  H   H947      1.0  0.41359  0.99118  0.75652  1.0000
  C   C1179     1.0  0.51676  0.84136  0.60045  1.0000
  C   C1180     1.0  0.47418  0.98048  0.62221  1.0000
  C   C1181     1.0  0.51232  0.83626  0.63134  1.0000
  H   H948      1.0  0.41579  0.94808  0.81785  1.0000
  P   P40       1.0  0.50667  0.85719  0.54064  1.0000
  C   C1182     1.0  0.39162  0.94249  0.74876  1.0000
  C   C1183     1.0  0.59833  0.96510  0.50405  1.0000
  C   C1184     1.0  0.35681  0.97912  0.67915  1.0000
  H   H949      1.0  0.53415  0.99062  0.73226  1.0000
  H   H950      1.0  0.57110  0.97695  0.65877  1.0000
  H   H951      1.0  0.33691  0.92842  0.92042  1.0000
  H   H952      1.0  0.65158  0.82517  0.66459  1.0000
  C   C1185     1.0  0.61258  0.98335  0.62423  1.0000
  C   C1186     1.0  0.33371  0.93492  0.84122  1.0000
  C   C1187     1.0  0.34224  0.94753  0.68021  1.0000
  C   C1188     1.0  0.46732  0.99043  0.52460  1.0000
  H   H953      1.0  0.57080  0.98532  0.55818  1.0000
  H   H954      1.0  0.62775  0.95905  0.52378  1.0000
  H   H955      1.0  0.33007  0.92663  0.82073  1.0000
  C   C1189     1.0  0.34315  0.95502  0.89588  1.0000
  C   C1190     1.0  0.33276  0.92571  0.87053  1.0000
  C   C1191     1.0  0.37310  0.86965  0.51177  1.0000
  H   H956      1.0  0.37077  0.88212  0.52791  1.0000
  C   C1192     1.0  0.65756  0.98622  0.53657  1.0000
  H   H957      1.0  0.37564  0.84768  0.54871  1.0000
  C   C1193     1.0  0.50268  0.98902  0.72182  1.0000
  C   C1194     1.0  0.61841  0.96838  0.50767  1.0000
  H   H958      1.0  0.38213  0.81916  0.51217  1.0000
  H   H959      1.0  0.32993  0.88815  0.80887  1.0000
  C   C1195     1.0  0.34040  0.96821  0.68459  1.0000
  H   H960      1.0  0.59242  0.95320  0.51699  1.0000
  C   C1196     1.0  0.65452  0.98856  0.75133  1.0000
  C   C1197     1.0  0.34138  0.99229  0.80700  1.0000
  C   C1198     1.0  0.64763  0.97879  0.84841  1.0000
  H   H961      1.0  0.65031  0.97917  0.77028  1.0000
  H   H962      1.0  0.34685  0.96276  0.91708  1.0000
  H   H963      1.0  0.66246  0.95691  0.87938  1.0000
  H   H964      1.0  0.65198  0.98892  0.98665  1.0000
  H   H965      1.0  0.32961  0.93916  0.68444  1.0000
  C   C1199     1.0  0.37934  0.83415  0.50291  1.0000
  C   C1200     1.0  0.48364  0.88257  0.49963  1.0000
  C   C1201     1.0  0.42835  0.85651  0.50177  1.0000
  H   H966      1.0  0.66277  0.94094  0.68312  1.0000
  Fe  Fe81      1.0  0.80096  0.08896  0.15546  1.0000
  S   S159      1.0  0.77145  0.10799  0.15552  1.0000
  S   S160      1.0  0.83171  0.09891  0.16845  1.0000
  Fe  Fe82      1.0  0.78104  0.05192  0.13210  1.0000
  S   S161      1.0  0.75051  0.06886  0.12977  1.0000
  S   S162      1.0  0.78475  0.02100  0.11024  1.0000
  Fe  Fe83      1.0  0.76653  0.09332  0.10877  1.0000
  S   S163      1.0  0.75758  0.11049  0.06427  1.0000
  Fe  Fe84      1.0  0.75795  0.08152  0.17686  1.0000
  S   S164      1.0  0.73972  0.07979  0.22262  1.0000
  S   S165      1.0  0.79654  0.07560  0.10796  1.0000
  S   S166      1.0  0.78814  0.06331  0.17997  1.0000
  Fe  Fe85      1.0  0.92656  0.40277  0.33843  1.0000
  S   S167      1.0  0.93276  0.39177  0.38729  1.0000
  S   S168      1.0  0.93795  0.43283  0.32930  1.0000
  Fe  Fe86      1.0  0.91520  0.36148  0.31624  1.0000
  S   S169      1.0  0.92097  0.34772  0.36395  1.0000
  S   S170      1.0  0.90603  0.34568  0.27150  1.0000
  Fe  Fe87      1.0  0.90515  0.37630  0.38285  1.0000
  S   S171      1.0  0.88488  0.37924  0.42541  1.0000
  Fe  Fe88      1.0  0.94796  0.36453  0.36482  1.0000
  S   S172      1.0  0.97747  0.35262  0.38533  1.0000
  S   S173      1.0  0.89725  0.38942  0.33504  1.0000
  S   S174      1.0  0.94376  0.37611  0.31566  1.0000
  Fe  Fe89      1.0  0.90756  0.23576  0.11453  1.0000
  S   S175      1.0  0.91757  0.20328  0.11078  1.0000
  S   S176      1.0  0.89577  0.25514  0.07351  1.0000
  Fe  Fe90      1.0  0.91413  0.23636  0.18642  1.0000
  S   S177      1.0  0.92391  0.20308  0.18685  1.0000
  S   S178      1.0  0.91561  0.25303  0.23363  1.0000
  Fe  Fe91      1.0  0.94229  0.20967  0.14427  1.0000
  S   S179      1.0  0.97444  0.19873  0.12953  1.0000
  Fe  Fe92      1.0  0.89813  0.19959  0.15319  1.0000
  S   S180      1.0  0.87115  0.18091  0.14788  1.0000
  S   S181      1.0  0.93330  0.24267  0.14512  1.0000
  S   S182      1.0  0.88742  0.23241  0.15601  1.0000
  C   C1202     1.0  0.90890  0.31977  0.26170  1.0000
  C   C1203     1.0  0.90213  0.31375  0.23217  1.0000
  C   C1204     1.0  0.90458  0.29354  0.22282  1.0000
  C   C1205     1.0  0.91337  0.27893  0.24325  1.0000
  C   C1206     1.0  0.91994  0.28491  0.27295  1.0000
  C   C1207     1.0  0.91788  0.30519  0.28206  1.0000
  H   H967      1.0  0.89509  0.32484  0.21623  1.0000
  H   H968      1.0  0.89928  0.28922  0.20004  1.0000
  H   H969      1.0  0.92665  0.27372  0.28899  1.0000
  H   H970      1.0  0.92301  0.30952  0.30492  1.0000
  H   H971      1.0  0.99078  0.46247  0.46737  1.0000
  C   C1208     1.0  0.89150  0.24762  0.03422  1.0000
  C   C1209     1.0  0.88709  0.37381  0.48961  1.0000
  C   C1210     1.0  0.81357  0.11567  0.01816  1.0000
  H   H972      1.0  0.86332  0.26587  0.03245  1.0000
  H   H973      1.0  0.97766  0.48841  0.27617  1.0000
  C   C1211     1.0  0.89562  0.36855  0.46025  1.0000
  H   H974      1.0  0.80694  0.20952  0.10928  1.0000
  H   H975      1.0  0.88674  0.00465  0.13301  1.0000
  H   H976      1.0  0.91897  0.35030  0.43638  1.0000
  C   C1212     1.0  0.77185  0.99576  0.26669  1.0000
  C   C1213     1.0  0.98337  0.25693  0.13367  1.0000
  H   H977      1.0  0.68786  0.07082  0.30191  1.0000
  C   C1214     1.0  0.93337  0.41922  0.46986  1.0000
  C   C1215     1.0  0.87133  0.47308  0.24349  1.0000
  C   C1216     1.0  0.84907  0.03089  0.13428  1.0000
  H   H978      1.0  0.89238  0.48027  0.46931  1.0000
  H   H979      1.0  0.95153  0.46545  0.27154  1.0000
  H   H980      1.0  0.97477  0.38995  0.35140  1.0000
  C   C1217     1.0  0.68894  0.01685  0.29960  1.0000
  C   C1218     1.0  0.90380  0.45974  0.33162  1.0000
  C   C1219     1.0  0.92468  0.45674  0.33310  1.0000
  C   C1220     1.0  0.93561  0.47334  0.33508  1.0000
  H   H981      1.0  0.89525  0.44705  0.32978  1.0000
  H   H982      1.0  0.95176  0.47117  0.33596  1.0000
  C   C1221     1.0  0.84224  0.12194  0.16263  1.0000
  C   C1222     1.0  0.83215  0.13804  0.14648  1.0000
  C   C1223     1.0  0.84121  0.15589  0.14247  1.0000
  C   C1224     1.0  0.86055  0.15793  0.15411  1.0000
  C   C1225     1.0  0.87067  0.14177  0.17011  1.0000
  C   C1226     1.0  0.86151  0.12400  0.17450  1.0000
  H   H983      1.0  0.81733  0.13681  0.13726  1.0000
  H   H984      1.0  0.83319  0.16827  0.13026  1.0000
  H   H985      1.0  0.88548  0.14303  0.17937  1.0000
  H   H986      1.0  0.86949  0.11172  0.18711  1.0000
  C   C1227     1.0  0.81876  0.24137  0.05170  1.0000
  C   C1228     1.0  0.88895  0.43320  0.44184  1.0000
  C   C1229     1.0  0.72161  0.13295  0.11542  1.0000
  H   H987      1.0  0.84602  0.16000  0.07385  1.0000
  H   H988      1.0  0.67237  0.12709  0.25433  1.0000
  C   C1230     1.0  0.71425  0.07930  0.23489  1.0000
  C   C1231     1.0  0.71032  0.07398  0.26614  1.0000
  C   C1232     1.0  0.89942  0.48574  0.17466  1.0000
  C   C1233     1.0  0.69795  0.08474  0.21505  1.0000
  H   H989      1.0  0.72271  0.06967  0.28177  1.0000
  H   H990      1.0  0.99281  0.24543  0.14582  1.0000
  H   H991      1.0  0.70053  0.08870  0.19093  1.0000
  C   C1234     1.0  0.76569  0.07571  0.03046  1.0000
  C   C1235     1.0  0.76138  0.09642  0.02925  1.0000
  H   H992      1.0  0.70129  0.04257  0.20015  1.0000
  H   H993      1.0  0.76642  0.06814  0.05289  1.0000
  H   H994      1.0  0.69903  0.06058  0.14984  1.0000
  C   C1236     1.0  0.88158  0.43799  0.41181  1.0000
  C   C1237     1.0  0.96769  0.29084  0.13034  1.0000
  H   H995      1.0  0.82082  0.01803  0.21024  1.0000
  C   C1238     1.0  0.83871  0.06376  0.01985  1.0000
  H   H996      1.0  0.83401  0.05100  0.20504  1.0000
  H   H997      1.0  0.71448  0.04482  0.10176  1.0000
  H   H998      1.0  0.96091  0.42908  0.26864  1.0000
  C   C1239     1.0  0.81983  0.26088  0.06226  1.0000
  H   H999      1.0  0.77218  0.04869  0.00363  1.0000
  C   C1240     1.0  0.96221  0.26705  0.08923  1.0000
  H   H1000     1.0  0.71790  0.23480  0.23783  1.0000
  H   H1001     1.0  0.81790  0.99548  0.02643  1.0000
  C   C1241     1.0  0.98745  0.26128  0.21127  1.0000
  H   H1002     1.0  0.98015  0.34679  0.31652  1.0000
  H   H1003     1.0  0.90328  0.22136  0.40128  1.0000
  H   H1004     1.0  0.84301  0.00151  0.11866  1.0000
  C   C1242     1.0  0.81400  0.10991  0.04967  1.0000
  H   H1005     1.0  0.95493  0.26338  0.06752  1.0000
  H   H1006     1.0  0.75435  0.02781  0.06167  1.0000
  H   H1007     1.0  0.89171  0.41765  0.44849  1.0000
  C   C1243     1.0  0.76803  0.99639  0.00072  1.0000
  C   C1244     1.0  0.87168  0.19783  0.04800  1.0000
  C   C1245     1.0  0.98434  0.48433  0.41521  1.0000
  C   C1246     1.0  0.81404  0.04365  0.04071  1.0000
  C   C1247     1.0  0.82677  0.03788  0.06581  1.0000
  C   C1248     1.0  0.84546  0.04523  0.06840  1.0000
  C   C1249     1.0  0.85146  0.05804  0.04499  1.0000
  P   P41       1.0  0.86268  0.03627  0.09909  1.0000
  H   H1008     1.0  0.73248  0.01078  0.10453  1.0000
  H   H1009     1.0  0.72538  0.03662  0.02645  1.0000
  H   H1010     1.0  0.72153  0.11535  0.19011  1.0000
  C   C1250     1.0  0.83162  0.10971  0.06707  1.0000
  C   C1251     1.0  0.99257  0.31710  0.21632  1.0000
  H   H1011     1.0  0.78980  0.14388  0.07081  1.0000
  H   H1012     1.0  0.71866  0.00541  0.28659  1.0000
  C   C1252     1.0  0.66488  0.04502  0.48240  1.0000
  C   C1253     1.0  0.96955  0.25230  0.21075  1.0000
  H   H1013     1.0  0.72065  0.12324  0.32081  1.0000
  C   C1254     1.0  0.91224  0.35431  0.45884  1.0000
  H   H1014     1.0  0.84399  0.46703  0.26632  1.0000
  C   C1255     1.0  0.87916  0.05520  0.10735  1.0000
  C   C1256     1.0  0.87115  0.07512  0.11117  1.0000
  C   C1257     1.0  0.88367  0.08994  0.11743  1.0000
  C   C1258     1.0  0.90431  0.08503  0.11987  1.0000
  C   C1259     1.0  0.91245  0.06525  0.11592  1.0000
  C   C1260     1.0  0.89995  0.05036  0.10964  1.0000
  C   C1261     1.0  0.76887  0.00596  0.02997  1.0000
  H   H1015     1.0  0.68583  0.11753  0.30679  1.0000
  H   H1016     1.0  0.79947  0.03818  0.03939  1.0000
  H   H1017     1.0  0.86986  0.21330  0.04092  1.0000
  C   C1262     1.0  0.96717  0.45965  0.27215  1.0000
  H   H1018     1.0  0.87938  0.48850  0.41617  1.0000
  C   C1263     1.0  0.83046  0.22538  0.06599  1.0000
  C   C1264     1.0  0.69975  0.13777  0.23806  1.0000
  H   H1019     1.0  0.78345  0.01262  0.17749  1.0000
  C   C1265     1.0  0.76037  0.10599  0.99986  1.0000
  C   C1266     1.0  0.89408  0.16861  0.06125  1.0000
  C   C1267     1.0  0.74289  0.00658  0.23440  1.0000
  H   H1020     1.0  0.74720  0.21621  0.26384  1.0000
  H   H1021     1.0  0.69595  0.21696  0.20316  1.0000
  C   C1268     1.0  0.89403  0.47927  0.33092  1.0000
  C   C1269     1.0  0.94847  0.38684  0.48662  1.0000
  H   H1022     1.0  0.87732  0.10523  0.12085  1.0000
  H   H1023     1.0  0.91395  0.09654  0.12509  1.0000
  H   H1024     1.0  0.92847  0.06145  0.11791  1.0000
  H   H1025     1.0  0.90660  0.03518  0.10669  1.0000
  H   H1026     1.0  0.97479  0.32769  0.46458  1.0000
  H   H1027     1.0  0.99377  0.34500  0.24068  1.0000
  C   C1270     1.0  0.96352  0.33996  0.22907  1.0000
  C   C1271     1.0  0.95449  0.30671  0.39684  1.0000
  C   C1272     1.0  0.96192  0.29539  0.37113  1.0000
  C   C1273     1.0  0.94946  0.28360  0.35476  1.0000
  C   C1274     1.0  0.92959  0.28310  0.36421  1.0000
  C   C1275     1.0  0.92211  0.29418  0.39040  1.0000
  C   C1276     1.0  0.93462  0.30631  0.40625  1.0000
  P   P42       1.0  0.89594  0.29502  0.40051  1.0000
  C   C1277     1.0  0.89144  0.30057  0.44166  1.0000
  C   C1278     1.0  0.88323  0.31314  0.37416  1.0000
  C   C1279     1.0  0.87743  0.33275  0.38410  1.0000
  C   C1280     1.0  0.86858  0.34687  0.36292  1.0000
  C   C1281     1.0  0.86593  0.34168  0.33151  1.0000
  C   C1282     1.0  0.87193  0.32229  0.32132  1.0000
  C   C1283     1.0  0.88062  0.30809  0.34248  1.0000
  H   H1028     1.0  0.94907  0.29752  0.08954  1.0000
  C   C1284     1.0  0.89103  0.18817  0.05027  1.0000
  H   H1029     1.0  0.74229  0.03665  0.21623  1.0000
  H   H1030     1.0  0.96890  0.44356  0.37814  1.0000
  H   H1031     1.0  0.92894  0.31589  0.42532  1.0000
  C   C1285     1.0  0.88737  0.27086  0.39437  1.0000
  C   C1286     1.0  0.90001  0.25350  0.40117  1.0000
  C   C1287     1.0  0.89341  0.23473  0.39630  1.0000
  C   C1288     1.0  0.87409  0.23321  0.38499  1.0000
  C   C1289     1.0  0.86128  0.25045  0.37884  1.0000
  C   C1290     1.0  0.86783  0.26923  0.38371  1.0000
  C   C1291     1.0  0.78436  0.99873  0.13189  1.0000
  C   C1292     1.0  0.98697  0.33240  0.30870  1.0000
  H   H1032     1.0  0.95506  0.27515  0.33438  1.0000
  H   H1033     1.0  0.91998  0.27435  0.35068  1.0000
  P   P43       1.0  0.71905  0.00224  0.21758  1.0000
  H   H1034     1.0  0.88043  0.33750  0.40780  1.0000
  H   H1035     1.0  0.86440  0.36205  0.37072  1.0000
  H   H1036     1.0  0.85977  0.35280  0.31483  1.0000
  H   H1037     1.0  0.87046  0.31846  0.29672  1.0000
  H   H1038     1.0  0.88573  0.29332  0.33384  1.0000
  C   C1293     1.0  0.82890  0.02154  0.18929  1.0000
  H   H1039     1.0  0.71910  0.12826  0.09146  1.0000
  H   H1040     1.0  0.93176  0.43072  0.45204  1.0000
  H   H1041     1.0  0.66648  0.05803  0.49683  1.0000
  H   H1042     1.0  0.75471  0.18003  0.25516  1.0000
  H   H1043     1.0  0.91497  0.25445  0.41015  1.0000
  H   H1044     1.0  0.78145  0.00273  0.04560  1.0000
  H   H1045     1.0  0.86902  0.21867  0.38108  1.0000
  H   H1046     1.0  0.84627  0.24927  0.37024  1.0000
  H   H1047     1.0  0.85765  0.28244  0.37911  1.0000
  C   C1294     1.0  0.93369  0.42405  0.19925  1.0000
  C   C1295     1.0  0.93019  0.41435  0.22742  1.0000
  C   C1296     1.0  0.92040  0.42498  0.25208  1.0000
  C   C1297     1.0  0.91390  0.44523  0.24852  1.0000
  C   C1298     1.0  0.91636  0.45481  0.21975  1.0000
  C   C1299     1.0  0.92695  0.44426  0.19548  1.0000
  P   P44       1.0  0.99110  0.28112  0.18399  1.0000
  H   H1048     1.0  0.87432  0.45796  0.23486  1.0000
  H   H1049     1.0  0.90373  0.19613  0.04443  1.0000
  H   H1050     1.0  0.92011  0.28635  0.45755  1.0000
  C   C1300     1.0  0.68029  0.01754  0.23528  1.0000
  C   C1301     1.0  0.89272  0.44828  0.46316  1.0000
  C   C1302     1.0  0.85827  0.16803  0.06655  1.0000
  C   C1303     1.0  0.97962  0.27600  0.14689  1.0000
  C   C1304     1.0  0.66976  0.02369  0.28916  1.0000
  H   H1051     1.0  0.99109  0.40867  0.41575  1.0000
  H   H1052     1.0  0.85594  0.32344  0.49062  1.0000
  H   H1053     1.0  0.71654  0.99540  0.41255  1.0000
  C   C1305     1.0  0.98201  0.47257  0.27547  1.0000
  H   H1054     1.0  0.69214  0.01654  0.32457  1.0000
  C   C1306     1.0  0.76893  0.06470  0.00257  1.0000
  H   H1055     1.0  0.87873  0.42616  0.39565  1.0000
  H   H1056     1.0  0.97906  0.21851  0.26956  1.0000
  H   H1057     1.0  0.94156  0.41585  0.18030  1.0000
  H   H1058     1.0  0.93521  0.39865  0.23037  1.0000
  H   H1059     1.0  0.91804  0.41758  0.27419  1.0000
  H   H1060     1.0  0.90678  0.45331  0.26815  1.0000
  H   H1061     1.0  0.92984  0.45155  0.17355  1.0000
  C   C1307     1.0  0.75339  0.02022  0.03931  1.0000
  C   C1308     1.0  0.69051  0.07457  0.27767  1.0000
  C   C1309     1.0  0.87772  0.15861  0.06965  1.0000
  C   C1310     1.0  0.79364  0.15824  0.07898  1.0000
  C   C1311     1.0  0.91979  0.34481  0.48640  1.0000
  C   C1312     1.0  0.90608  0.29456  0.46430  1.0000
  C   C1313     1.0  0.88675  0.00058  0.10834  1.0000
  C   C1314     1.0  0.94665  0.40221  0.46456  1.0000
  H   H1062     1.0  0.95779  0.25716  0.19426  1.0000
  H   H1063     1.0  0.97724  0.23749  0.09544  1.0000
  H   H1064     1.0  0.90917  0.16148  0.06420  1.0000
  H   H1065     1.0  0.82192  0.02774  0.08317  1.0000
  H   H1066     1.0  0.96397  0.31630  0.40894  1.0000
  H   H1067     1.0  0.95691  0.35368  0.23982  1.0000
  C   C1315     1.0  0.70895  0.20891  0.21409  1.0000
  H   H1068     1.0  0.93213  0.33327  0.48481  1.0000
  C   C1316     1.0  0.83166  0.00764  0.16493  1.0000
  H   H1069     1.0  0.96510  0.30588  0.13933  1.0000
  H   H1070     1.0  0.81121  0.27322  0.05064  1.0000
  H   H1071     1.0  0.98787  0.20271  0.19458  1.0000
  H   H1072     1.0  0.77409  0.04314  0.24041  1.0000
  C   C1317     1.0  0.97242  0.43912  0.27025  1.0000
  H   H1073     1.0  0.86108  0.31419  0.43490  1.0000
  C   C1318     1.0  0.97869  0.45464  0.38516  1.0000
  C   C1319     1.0  0.75043  0.02502  0.23004  1.0000
  H   H1074     1.0  0.81828  0.12459  0.22303  1.0000
  C   C1320     1.0  0.95948  0.30880  0.20253  1.0000
  C   C1321     1.0  0.71494  0.03658  0.12364  1.0000
  C   C1322     1.0  0.71898  0.12003  0.14036  1.0000
  C   C1323     1.0  0.70623  0.04545  0.15071  1.0000
  C   C1324     1.0  0.88933  0.46831  0.45369  1.0000
  C   C1325     1.0  0.84146  0.01236  0.13743  1.0000
  C   C1326     1.0  0.67816  0.08566  0.22672  1.0000
  C   C1327     1.0  0.70735  0.03508  0.17920  1.0000
  H   H1075     1.0  0.81437  0.16165  0.04148  1.0000
  C   C1328     1.0  0.73780  0.20848  0.24828  1.0000
  H   H1076     1.0  0.66577  0.09053  0.21138  1.0000
  C   C1329     1.0  0.74210  0.18800  0.24313  1.0000
  H   H1077     1.0  0.87792  0.48155  0.32858  1.0000
  C   C1330     1.0  0.79614  0.14850  0.20964  1.0000
  H   H1078     1.0  0.94959  0.29859  0.19289  1.0000
  C   C1331     1.0  0.88197  0.47307  0.42354  1.0000
  H   H1079     1.0  0.86603  0.06351  0.04592  1.0000
  C   C1332     1.0  0.87674  0.00764  0.05440  1.0000
  H   H1080     1.0  0.70332  0.18078  0.19408  1.0000
  H   H1081     1.0  0.88014  0.14382  0.07965  1.0000
  C   C1333     1.0  0.85397  0.47820  0.26105  1.0000
  C   C1334     1.0  0.80248  0.12989  0.22261  1.0000
  H   H1082     1.0  0.95877  0.32050  0.30173  1.0000
  H   H1083     1.0  0.79333  0.10313  0.24313  1.0000
  C   C1335     1.0  0.72818  0.15159  0.12125  1.0000
  P   P45       1.0  0.83001  0.20032  0.05121  1.0000
  C   C1336     1.0  0.72699  0.13567  0.27566  1.0000
  H   H1084     1.0  0.86431  0.42448  0.48836  1.0000
  C   C1337     1.0  0.84641  0.04470  0.15907  1.0000
  H   H1085     1.0  0.80709  0.15754  0.20002  1.0000
  C   C1338     1.0  0.78844  0.11785  0.23411  1.0000
  H   H1086     1.0  0.87208  0.46163  0.37954  1.0000
  C   C1339     1.0  0.72587  0.00689  0.15347  1.0000
  H   H1087     1.0  0.97439  0.28764  0.28303  1.0000
  C   C1340     1.0  0.92584  0.49279  0.33512  1.0000
  C   C1341     1.0  0.80324  0.19533  0.10032  1.0000
  C   C1342     1.0  0.73705  0.02515  0.01950  1.0000
  C   C1343     1.0  0.78979  0.18492  0.11721  1.0000
  C   C1344     1.0  0.95120  0.32686  0.21554  1.0000
  C   C1345     1.0  0.81211  0.18719  0.07265  1.0000
  H   H1088     1.0  0.69354  0.14183  0.21521  1.0000
  C   C1346     1.0  0.83238  0.26452  0.08734  1.0000
  C   C1347     1.0  0.80733  0.16845  0.06228  1.0000
  C   C1348     1.0  0.84359  0.24865  0.10224  1.0000
  H   H1089     1.0  0.83364  0.27965  0.09508  1.0000
  C   C1349     1.0  0.78415  0.99868  0.16474  1.0000
  C   C1350     1.0  0.72278  0.12582  0.17116  1.0000
  C   C1351     1.0  0.73005  0.17791  0.22289  1.0000
  C   C1352     1.0  0.85504  0.18771  0.05534  1.0000
  H   H1090     1.0  0.85350  0.25156  0.12139  1.0000
  C   C1353     1.0  0.87298  0.31022  0.45159  1.0000
  H   H1091     1.0  0.93518  0.33071  0.21534  1.0000
  H   H1092     1.0  0.86901  0.01713  0.03680  1.0000
  C   C1354     1.0  0.84254  0.22911  0.09187  1.0000
  C   C1355     1.0  0.97473  0.25247  0.10496  1.0000
  H   H1093     1.0  0.85513  0.07911  0.10997  1.0000
  H   H1094     1.0  0.87417  0.38472  0.49085  1.0000
  H   H1095     1.0  0.85197  0.05910  0.15767  1.0000
  C   C1356     1.0  0.67425  0.08088  0.25823  1.0000
  H   H1096     1.0  0.85154  0.21701  0.10361  1.0000
  C   C1357     1.0  0.70392  0.01059  0.27791  1.0000
  H   H1097     1.0  0.73075  0.16129  0.10172  1.0000
  C   C1358     1.0  0.86986  0.31523  0.48325  1.0000
  C   C1359     1.0  0.78498  0.16640  0.10652  1.0000
  H   H1098     1.0  0.95801  0.37326  0.48188  1.0000
  C   C1360     1.0  0.89082  0.47122  0.15701  1.0000
  H   H1099     1.0  0.77471  0.15821  0.11970  1.0000
  C   C1361     1.0  0.98423  0.33508  0.22948  1.0000
  C   C1362     1.0  0.84913  0.11435  0.05243  1.0000
  H   H1100     1.0  0.86296  0.11357  0.06563  1.0000
  C   C1363     1.0  0.99373  0.34808  0.48523  1.0000
  C   C1364     1.0  0.97494  0.31753  0.30049  1.0000
  C   C1365     1.0  0.87411  0.25614  0.01931  1.0000
  C   C1366     1.0  0.76154  0.14336  0.22068  1.0000
  C   C1367     1.0  0.88441  0.47530  0.12617  1.0000
  H   H1101     1.0  0.73745  0.17173  0.15615  1.0000
  C   C1368     1.0  0.69977  0.01100  0.24550  1.0000
  C   C1369     1.0  0.98135  0.23061  0.25368  1.0000
  H   H1102     1.0  0.77105  0.16939  0.19757  1.0000
  C   C1370     1.0  0.77573  0.15517  0.20845  1.0000
  H   H1103     1.0  0.95718  0.46947  0.41667  1.0000
  H   H1104     1.0  0.98821  0.39293  0.46785  1.0000
  C   C1371     1.0  0.71675  0.01550  0.18065  1.0000
  C   C1372     1.0  0.71322  0.18843  0.20885  1.0000
  C   C1373     1.0  0.69519  0.12427  0.28996  1.0000
  H   H1105     1.0  0.78328  0.19115  0.13879  1.0000
  H   H1106     1.0  0.84331  0.07378  0.00201  1.0000
  C   C1374     1.0  0.68761  0.12964  0.26026  1.0000
  H   H1107     1.0  0.75738  0.11464  0.24098  1.0000
  C   C1375     1.0  0.77935  0.01410  0.26195  1.0000
  H   H1108     1.0  0.97721  0.29615  0.36355  1.0000
  H   H1109     1.0  0.95509  0.40063  0.44289  1.0000
  H   H1110     1.0  0.88887  0.45682  0.16712  1.0000
  C   C1376     1.0  0.97198  0.46959  0.40666  1.0000
  C   C1377     1.0  0.83631  0.04005  0.18636  1.0000
  C   C1378     1.0  0.71483  0.12738  0.29772  1.0000
  C   C1379     1.0  0.84881  0.11997  0.02076  1.0000
  H   H1111     1.0  0.71452  0.10533  0.13574  1.0000
  H   H1112     1.0  0.83167  0.10568  0.09175  1.0000
  C   C1380     1.0  0.87795  0.45793  0.40274  1.0000
  C   C1381     1.0  0.87657  0.01333  0.08620  1.0000
  H   H1113     1.0  0.80055  0.10565  0.06059  1.0000
  H   H1114     1.0  0.80911  0.23888  0.03201  1.0000
  C   C1382     1.0  0.76803  0.12449  0.23301  1.0000
  C   C1383     1.0  0.98376  0.29902  0.29016  1.0000
  C   C1384     1.0  0.66544  0.02411  0.25704  1.0000
  H   H1115     1.0  0.79345  0.01701  0.27244  1.0000
  C   C1385     1.0  0.98032  0.30408  0.20189  1.0000
  C   C1386     1.0  0.76856  0.02876  0.24379  1.0000
  C   C1387     1.0  0.72876  0.14475  0.17734  1.0000
  C   C1388     1.0  0.71970  0.14043  0.24535  1.0000
  C   C1389     1.0  0.73189  0.15745  0.15209  1.0000
  P   P46       1.0  0.73518  0.15142  0.21686  1.0000
  H   H1116     1.0  0.79981  0.11523  0.00512  1.0000
  C   C1390     1.0  0.82001  0.05657  0.01771  1.0000
  C   C1391     1.0  0.72128  0.21895  0.23368  1.0000
  H   H1117     1.0  0.74205  0.13825  0.28227  1.0000
  H   H1118     1.0  0.87784  0.46402  0.11260  1.0000
  C   C1392     1.0  0.66548  0.04659  0.44970  1.0000
  H   H1119     1.0  0.66753  0.06077  0.43882  1.0000
  H   H1120     1.0  0.75694  0.12199  0.99873  1.0000
  H   H1121     1.0  0.67656  0.01766  0.21052  1.0000
  C   C1393     1.0  0.88463  0.48736  0.23732  1.0000
  C   C1394     1.0  0.90549  0.23521  0.01663  1.0000
  C   C1395     1.0  0.96668  0.23682  0.23155  1.0000
  C   C1396     1.0  0.99026  0.38398  0.35292  1.0000
  H   H1122     1.0  0.95302  0.22960  0.23041  1.0000
  C   C1397     1.0  0.95881  0.28627  0.10180  1.0000
  H   H1123     1.0  0.85121  0.15710  0.00280  1.0000
  H   H1124     1.0  0.79549  0.19031  0.01241  1.0000
  P   P47       1.0  0.90714  0.48075  0.21474  1.0000
  H   H1125     1.0  0.94261  0.49085  0.18072  1.0000
  C   C1398     1.0  0.83075  0.12171  0.00381  1.0000
  H   H1126     1.0  0.91918  0.22886  0.02771  1.0000
  C   C1399     1.0  0.90285  0.29947  0.49596  1.0000
  C   C1400     1.0  0.99252  0.43154  0.27069  1.0000
  C   C1401     1.0  0.92162  0.42083  0.49722  1.0000
  C   C1402     1.0  0.82417  0.20237  0.00960  1.0000
  H   H1127     1.0  0.86264  0.12301  0.00959  1.0000
  C   C1403     1.0  0.72497  0.01740  0.12513  1.0000
  C   C1404     1.0  0.99182  0.47299  0.48637  1.0000
  C   C1405     1.0  0.97962  0.33422  0.48620  1.0000
  C   C1406     1.0  0.99574  0.36652  0.36995  1.0000
  H   H1128     1.0  0.66312  0.03124  0.40572  1.0000
  C   C1407     1.0  0.98513  0.49327  0.48265  1.0000
  Fe  Fe93      1.0  0.74646  0.08185  0.83100  1.0000
  S   S183      1.0  0.77336  0.08016  0.79940  1.0000
  S   S184      1.0  0.71294  0.08571  0.81838  1.0000
  Fe  Fe94      1.0  0.77311  0.07038  0.88918  1.0000
  S   S185      1.0  0.80157  0.06711  0.86086  1.0000
  S   S186      1.0  0.77392  0.05933  0.93955  1.0000
  Fe  Fe95      1.0  0.78902  0.09599  0.83807  1.0000
  S   S187      1.0  0.80437  0.12503  0.83275  1.0000
  Fe  Fe96      1.0  0.78363  0.05159  0.82527  1.0000
  S   S188      1.0  0.79027  0.02244  0.79800  1.0000
  S   S189      1.0  0.76103  0.09962  0.86821  1.0000
  S   S190      1.0  0.75632  0.05297  0.85519  1.0000
  Fe  Fe97      1.0  0.92101  0.35003  0.66945  1.0000
  S   S191      1.0  0.94016  0.33193  0.63463  1.0000
  S   S192      1.0  0.90919  0.33635  0.71455  1.0000
  Fe  Fe98      1.0  0.92691  0.38981  0.63491  1.0000
  S   S193      1.0  0.94730  0.37379  0.59904  1.0000
  S   S194      1.0  0.91973  0.42283  0.62223  1.0000
  Fe  Fe99      1.0  0.92499  0.35141  0.59687  1.0000
  S   S195      1.0  0.92047  0.33667  0.54958  1.0000
  Fe  Fe100     1.0  0.96047  0.35595  0.63945  1.0000
  H   H1129     1.0  0.68443  0.01895  0.60081  1.0000
  S   S196      1.0  0.90359  0.36788  0.63104  1.0000
  S   S197      1.0  0.94233  0.37358  0.67598  1.0000
  Fe  Fe101     1.0  0.90305  0.18928  0.84528  1.0000
  S   S198      1.0  0.88536  0.21937  0.84206  1.0000
  S   S199      1.0  0.89078  0.15875  0.83699  1.0000
  Fe  Fe102     1.0  0.94101  0.20859  0.86746  1.0000
  S   S200      1.0  0.92493  0.23951  0.86710  1.0000
  S   S201      1.0  0.97273  0.20632  0.88729  1.0000
  Fe  Fe103     1.0  0.89950  0.22528  0.88907  1.0000
  S   S202      1.0  0.87933  0.23802  0.92876  1.0000
  Fe  Fe104     1.0  0.91278  0.23100  0.82028  1.0000
  S   S203      1.0  0.91732  0.24832  0.77426  1.0000
  S   S204      1.0  0.91626  0.19498  0.89287  1.0000
  S   S205      1.0  0.92971  0.20013  0.82007  1.0000
  C   C1408     1.0  0.88478  0.24080  0.96936  1.0000
  H   H1130     1.0  0.82984  0.25119  0.87592  1.0000
  C   C1409     1.0  0.70469  0.03225  0.74356  1.0000
  C   C1410     1.0  0.79374  0.99804  0.81426  1.0000
  C   C1411     1.0  0.86624  0.42554  0.51349  1.0000
  C   C1412     1.0  0.91137  0.35007  0.51584  1.0000
  C   C1413     1.0  0.98262  0.28473  0.70673  1.0000
  C   C1414     1.0  0.67534  0.99448  0.70655  1.0000
  H   H1131     1.0  0.98293  0.19956  0.82076  1.0000
  H   H1132     1.0  0.80359  0.02993  0.91065  1.0000
  C   C1415     1.0  0.91385  0.31208  0.73187  1.0000
  C   C1416     1.0  0.92270  0.29550  0.71527  1.0000
  C   C1417     1.0  0.92402  0.27626  0.72892  1.0000
  C   C1418     1.0  0.91689  0.27328  0.75953  1.0000
  C   C1419     1.0  0.90915  0.29003  0.77679  1.0000
  C   C1420     1.0  0.90739  0.30918  0.76289  1.0000
  H   H1133     1.0  0.92786  0.29737  0.69150  1.0000
  H   H1134     1.0  0.93029  0.26354  0.71538  1.0000
  H   H1135     1.0  0.90405  0.28822  0.80057  1.0000
  H   H1136     1.0  0.90066  0.32184  0.77613  1.0000
  C   C1421     1.0  0.97262  0.48940  0.61440  1.0000
  C   C1422     1.0  0.68047  0.00038  0.85796  1.0000
  C   C1423     1.0  0.98276  0.28452  0.73974  1.0000
  C   C1424     1.0  0.98526  0.38408  0.72340  1.0000
  C   C1425     1.0  0.70713  0.00285  0.62971  1.0000
  H   H1137     1.0  0.68424  0.05035  0.63118  1.0000
  H   H1138     1.0  0.83805  0.01439  0.90062  1.0000
  C   C1426     1.0  0.66880  0.08100  0.75304  1.0000
  H   H1139     1.0  0.98313  0.38840  0.63534  1.0000
  H   H1140     1.0  0.85110  0.05749  0.89575  1.0000
  C   C1427     1.0  0.92471  0.44581  0.63972  1.0000
  C   C1428     1.0  0.93325  0.44692  0.66961  1.0000
  C   C1429     1.0  0.91971  0.46360  0.62288  1.0000
  H   H1141     1.0  0.93717  0.43341  0.68288  1.0000
  H   H1142     1.0  0.91318  0.46301  0.59976  1.0000
  C   C1430     1.0  0.82861  0.13390  0.83553  1.0000
  C   C1431     1.0  0.84638  0.12115  0.83782  1.0000
  C   C1432     1.0  0.86514  0.12901  0.83840  1.0000
  C   C1433     1.0  0.86652  0.14973  0.83724  1.0000
  C   C1434     1.0  0.84869  0.16248  0.83581  1.0000
  C   C1435     1.0  0.82997  0.15462  0.83475  1.0000
  H   H1143     1.0  0.84572  0.10520  0.83845  1.0000
  H   H1144     1.0  0.87873  0.11893  0.83953  1.0000
  H   H1145     1.0  0.84935  0.17843  0.83505  1.0000
  H   H1146     1.0  0.81641  0.16471  0.83310  1.0000
  C   C1436     1.0  0.88498  0.43418  0.55921  1.0000
  C   C1437     1.0  0.69432  0.03735  0.63770  1.0000
  H   H1147     1.0  0.87307  0.42672  0.60406  1.0000
  H   H1148     1.0  0.81986  0.06197  0.92736  1.0000
  C   C1438     1.0  0.92428  0.40574  0.52001  1.0000
  C   C1439     1.0  0.76841  0.07421  0.97327  1.0000
  H   H1149     1.0  0.95521  0.27352  0.79077  1.0000
  C   C1440     1.0  0.76410  0.09495  0.97190  1.0000
  H   H1150     1.0  0.99031  0.45570  0.66919  1.0000
  H   H1151     1.0  0.76363  0.10245  0.94940  1.0000
  C   C1441     1.0  0.70025  0.08395  0.78164  1.0000
  C   C1442     1.0  0.71023  0.08385  0.75280  1.0000
  C   C1443     1.0  0.97771  0.33752  0.54283  1.0000
  C   C1444     1.0  0.67942  0.08277  0.78149  1.0000
  H   H1152     1.0  0.72610  0.08521  0.75244  1.0000
  C   C1445     1.0  0.85206  0.41811  0.53313  1.0000
  C   C1446     1.0  0.75725  0.00288  0.88791  1.0000
  H   H1153     1.0  0.85876  0.26948  0.88953  1.0000
  H   H1154     1.0  0.94362  0.45146  0.51280  1.0000
  C   C1447     1.0  0.87914  0.26334  0.68771  1.0000
  C   C1448     1.0  0.87855  0.28400  0.69126  1.0000
  C   C1449     1.0  0.86817  0.29348  0.71642  1.0000
  C   C1450     1.0  0.85841  0.28233  0.73812  1.0000
  C   C1451     1.0  0.85932  0.26150  0.73517  1.0000
  C   C1452     1.0  0.86938  0.25213  0.70937  1.0000
  P   P48       1.0  0.84572  0.24749  0.76246  1.0000
  C   C1453     1.0  0.85432  0.22121  0.76217  1.0000
  C   C1454     1.0  0.84940  0.25525  0.80247  1.0000
  C   C1455     1.0  0.86606  0.26510  0.81059  1.0000
  C   C1456     1.0  0.86923  0.27049  0.84180  1.0000
  C   C1457     1.0  0.85598  0.26574  0.86522  1.0000
  C   C1458     1.0  0.83965  0.25544  0.85749  1.0000
  C   C1459     1.0  0.83640  0.25011  0.82624  1.0000
  C   C1460     1.0  0.84074  0.20684  0.76518  1.0000
  C   C1461     1.0  0.84768  0.18658  0.76676  1.0000
  C   C1462     1.0  0.86821  0.18057  0.76626  1.0000
  C   C1463     1.0  0.88181  0.19479  0.76390  1.0000
  C   C1464     1.0  0.87491  0.21503  0.76187  1.0000
  C   C1465     1.0  0.81988  0.25197  0.75065  1.0000
  C   C1466     1.0  0.80680  0.26644  0.76598  1.0000
  C   C1467     1.0  0.78689  0.27014  0.75610  1.0000
  C   C1468     1.0  0.78002  0.25965  0.73062  1.0000
  C   C1469     1.0  0.79311  0.24558  0.71477  1.0000
  C   C1470     1.0  0.81302  0.24187  0.72457  1.0000
  H   H1155     1.0  0.88737  0.25602  0.66834  1.0000
  H   H1156     1.0  0.88643  0.29268  0.67487  1.0000
  H   H1157     1.0  0.86806  0.30947  0.71937  1.0000
  H   H1158     1.0  0.85037  0.28995  0.75742  1.0000
  H   H1159     1.0  0.86982  0.23620  0.70594  1.0000
  H   H1160     1.0  0.87696  0.26806  0.79302  1.0000
  H   H1161     1.0  0.88233  0.27777  0.84800  1.0000
  H   H1162     1.0  0.82400  0.24168  0.82069  1.0000
  H   H1163     1.0  0.82484  0.21119  0.76707  1.0000
  H   H1164     1.0  0.83721  0.17551  0.76949  1.0000
  H   H1165     1.0  0.87362  0.16493  0.76875  1.0000
  H   H1166     1.0  0.89774  0.19016  0.76454  1.0000
  H   H1167     1.0  0.88565  0.22588  0.76087  1.0000
  H   H1168     1.0  0.81196  0.27503  0.78531  1.0000
  H   H1169     1.0  0.77683  0.28127  0.76809  1.0000
  H   H1170     1.0  0.76461  0.26256  0.72296  1.0000
  H   H1171     1.0  0.78785  0.23762  0.69478  1.0000
  H   H1172     1.0  0.82309  0.23115  0.71178  1.0000
  C   C1471     1.0  0.97521  0.30195  0.69046  1.0000
  C   C1472     1.0  0.96785  0.31906  0.70698  1.0000
  C   C1473     1.0  0.96804  0.31907  0.73974  1.0000
  C   C1474     1.0  0.79708  0.00808  0.94496  1.0000
  C   C1475     1.0  0.83697  0.21145  0.98928  1.0000
  C   C1476     1.0  0.75611  0.05842  0.71973  1.0000
  H   H1173     1.0  0.91449  0.29566  0.51324  1.0000
  H   H1174     1.0  0.66889  0.02312  0.68414  1.0000
  C   C1477     1.0  0.98605  0.24062  0.74253  1.0000
  H   H1175     1.0  0.91318  0.22270  0.97051  1.0000
  S   S206      1.0  0.66633  0.07849  0.68735  1.0000
  C   C1478     1.0  0.82875  0.00788  0.91776  1.0000
  C   C1479     1.0  0.99603  0.20352  0.83310  1.0000
  P   P49       1.0  0.99403  0.26279  0.76059  1.0000
  C   C1480     1.0  0.94081  0.47955  0.53688  1.0000
  C   C1481     1.0  0.69432  0.01960  0.62084  1.0000
  H   H1176     1.0  0.77673  0.09333  0.67625  1.0000
  H   H1177     1.0  0.96884  0.26480  0.88851  1.0000
  H   H1178     1.0  0.94289  0.46638  0.70578  1.0000
  H   H1179     1.0  0.78109  0.01728  0.68924  1.0000
  C   C1482     1.0  0.72250  0.00405  0.90331  1.0000
  C   C1483     1.0  0.70727  0.03847  0.66316  1.0000
  H   H1180     1.0  0.75263  0.01956  0.76796  1.0000
  C   C1484     1.0  0.96383  0.21438  0.74070  1.0000
  C   C1485     1.0  0.96986  0.23150  0.75478  1.0000
  H   H1181     1.0  0.70928  0.01239  0.91307  1.0000
  H   H1182     1.0  0.96208  0.33237  0.69444  1.0000
  C   C1486     1.0  0.97519  0.47163  0.63140  1.0000
  C   C1487     1.0  0.76947  0.08012  0.68152  1.0000
  H   H1183     1.0  0.88275  0.31446  0.52976  1.0000
  H   H1184     1.0  0.96012  0.40057  0.74605  1.0000
  C   C1488     1.0  0.88487  0.31004  0.50536  1.0000
  C   C1489     1.0  0.98623  0.26362  0.80126  1.0000
  C   C1490     1.0  0.76558  0.07538  0.71269  1.0000
  C   C1491     1.0  0.85440  0.41863  0.56576  1.0000
  P   P50       1.0  0.73789  0.02419  0.70380  1.0000
  C   C1492     1.0  0.93641  0.46565  0.68258  1.0000
  H   H1185     1.0  0.91567  0.40656  0.54155  1.0000
  C   C1493     1.0  0.75139  0.00122  0.98117  1.0000
  H   H1186     1.0  0.77078  0.01019  0.88507  1.0000
  H   H1187     1.0  0.70029  0.03645  0.82296  1.0000
  H   H1188     1.0  0.96055  0.49181  0.59757  1.0000
  H   H1189     1.0  0.97606  0.30259  0.78139  1.0000
  H   H1190     1.0  0.95123  0.20760  0.75037  1.0000
  H   H1191     1.0  0.96172  0.23741  0.77518  1.0000
  C   C1494     1.0  0.87088  0.42667  0.57878  1.0000
  C   C1495     1.0  0.93768  0.38882  0.51461  1.0000
  H   H1192     1.0  0.81245  0.20721  0.92002  1.0000
  H   H1193     1.0  0.85031  0.21726  0.99794  1.0000
  H   H1194     1.0  0.77592  0.14042  0.88458  1.0000
  C   C1496     1.0  0.75016  0.04621  0.69543  1.0000
  H   H1195     1.0  0.75334  0.05511  0.74411  1.0000
  C   C1497     1.0  0.97394  0.20611  0.71436  1.0000
  H   H1196     1.0  0.98835  0.27169  0.69348  1.0000
  C   C1498     1.0  0.78016  0.14271  0.90884  1.0000
  C   C1499     1.0  0.73665  0.02375  0.76902  1.0000
  H   H1197     1.0  0.70747  0.08305  0.70231  1.0000
  C   C1500     1.0  0.97367  0.39057  0.74937  1.0000
  C   C1501     1.0  0.79943  0.13585  0.91899  1.0000
  H   H1198     1.0  0.75039  0.04150  0.64501  1.0000
  H   H1199     1.0  0.78861  0.19293  0.95567  1.0000
  H   H1200     1.0  0.69301  0.00898  0.86100  1.0000
  C   C1502     1.0  0.93122  0.48343  0.66577  1.0000
  C   C1503     1.0  0.87069  0.25259  0.98739  1.0000
  H   H1201     1.0  0.94452  0.27493  0.84601  1.0000
  H   H1202     1.0  0.78209  0.01517  0.94868  1.0000
  C   C1504     1.0  0.80932  0.01661  0.92335  1.0000
  H   H1203     1.0  0.80979  0.12835  0.90225  1.0000
  H   H1204     1.0  0.75137  0.15728  0.92197  1.0000
  H   H1205     1.0  0.88841  0.36891  0.53991  1.0000
  H   H1206     1.0  0.97070  0.38944  0.79969  1.0000
  C   C1505     1.0  0.99184  0.35130  0.54200  1.0000
  C   C1506     1.0  0.97962  0.38423  0.77955  1.0000
  H   H1207     1.0  0.98989  0.44285  0.58689  1.0000
  C   C1507     1.0  0.72006  0.00391  0.65536  1.0000
  C   C1508     1.0  0.75604  0.00255  0.70641  1.0000
  H   H1208     1.0  0.76703  0.07150  0.63306  1.0000
  C   C1509     1.0  0.86764  0.17371  0.97121  1.0000
  H   H1209     1.0  0.81062  0.09335  0.95558  1.0000
  C   C1510     1.0  0.81553  0.20611  0.94501  1.0000
  C   C1511     1.0  0.85458  0.15954  0.97845  1.0000
  C   C1512     1.0  0.66493  0.01338  0.70282  1.0000
  C   C1513     1.0  0.97572  0.30200  0.75607  1.0000
  C   C1514     1.0  0.84742  0.07109  0.90902  1.0000
  C   C1515     1.0  0.70708  0.03285  0.80033  1.0000
  H   H1210     1.0  0.87358  0.08445  0.89398  1.0000
  C   C1516     1.0  0.86006  0.08628  0.90800  1.0000
  H   H1211     1.0  0.69560  0.03521  0.72287  1.0000
  C   C1517     1.0  0.82982  0.07362  0.92670  1.0000
  C   C1518     1.0  0.82462  0.09148  0.94274  1.0000
  C   C1519     1.0  0.85512  0.10403  0.92460  1.0000
  H   H1212     1.0  0.89793  0.43978  0.56969  1.0000
  H   H1213     1.0  0.96569  0.42035  0.56726  1.0000
  H   H1214     1.0  0.86523  0.11549  0.92362  1.0000
  C   C1520     1.0  0.69556  0.03495  0.77297  1.0000
  C   C1521     1.0  0.83721  0.10684  0.94177  1.0000
  C   C1522     1.0  0.79150  0.14903  0.97097  1.0000
  H   H1215     1.0  0.87473  0.18146  0.98966  1.0000
  H   H1216     1.0  0.70722  0.05248  0.67563  1.0000
  C   C1523     1.0  0.76641  0.15232  0.92985  1.0000
  H   H1217     1.0  0.86473  0.17278  0.89184  1.0000
  H   H1218     1.0  0.76985  0.08495  0.73146  1.0000
  C   C1524     1.0  0.72018  0.02177  0.67235  1.0000
  C   C1525     1.0  0.73603  0.01562  0.99045  1.0000
  H   H1219     1.0  0.74023  0.02888  0.90718  1.0000
  H   H1220     1.0  0.67146  0.08307  0.80359  1.0000
  H   H1221     1.0  0.81074  0.00591  0.85431  1.0000
  C   C1526     1.0  0.77209  0.15555  0.96090  1.0000
  H   H1222     1.0  0.97519  0.30215  0.66498  1.0000
  H   H1223     1.0  0.67972  0.03984  0.77437  1.0000
  H   H1224     1.0  0.96927  0.19277  0.70362  1.0000
  C   C1527     1.0  0.86192  0.16885  0.91593  1.0000
  H   H1225     1.0  0.84364  0.41256  0.58098  1.0000
  H   H1226     1.0  0.84241  0.14676  0.90379  1.0000
  H   H1227     1.0  0.96517  0.46027  0.62749  1.0000
  C   C1528     1.0  0.67881  0.08086  0.72417  1.0000
  C   C1529     1.0  0.84932  0.15418  0.92293  1.0000
  C   C1530     1.0  0.80512  0.13856  0.95034  1.0000
  P   P51       1.0  0.83007  0.12958  0.96311  1.0000
  C   C1531     1.0  0.96620  0.26969  0.80902  1.0000
  C   C1532     1.0  0.91251  0.46247  0.52017  1.0000
  C   C1533     1.0  0.88281  0.43372  0.52643  1.0000
  H   H1228     1.0  0.72349  0.01967  0.97490  1.0000
  H   H1229     1.0  0.98084  0.38916  0.70000  1.0000
  C   C1534     1.0  0.69956  0.08256  0.72434  1.0000
  H   H1230     1.0  0.73658  0.02525  0.81942  1.0000
  C   C1535     1.0  0.75448  0.05088  0.66414  1.0000
  C   C1536     1.0  0.84593  0.14902  0.95434  1.0000
  C   C1537     1.0  0.93326  0.46333  0.52221  1.0000
  C   C1538     1.0  0.92293  0.48227  0.63575  1.0000
  H   H1231     1.0  0.84296  0.21986  0.94168  1.0000
  C   C1539     1.0  0.76399  0.06783  0.65724  1.0000
  C   C1540     1.0  0.72758  0.02700  0.79833  1.0000
  C   C1541     1.0  0.87122  0.17845  0.94001  1.0000
  C   C1542     1.0  0.96006  0.27047  0.84037  1.0000
  H   H1232     1.0  0.88343  0.47753  0.53197  1.0000
  C   C1543     1.0  0.72538  0.02681  0.74135  1.0000
  C   C1544     1.0  0.66473  0.00797  0.83842  1.0000
  C   C1545     1.0  0.73998  0.01343  0.90007  1.0000
  C   C1546     1.0  0.98146  0.41745  0.56148  1.0000
  C   C1547     1.0  0.89514  0.36485  0.51741  1.0000
  C   C1548     1.0  0.99371  0.25885  0.85677  1.0000
  H   H1233     1.0  0.97141  0.33350  0.56513  1.0000
  C   C1549     1.0  0.98824  0.40068  0.54365  1.0000
  H   H1234     1.0  0.88093  0.18985  0.93451  1.0000
  C   C1550     1.0  0.80222  0.19787  0.96513  1.0000
  C   C1551     1.0  0.83273  0.21317  0.95717  1.0000
  H   H1235     1.0  0.93915  0.37684  0.53166  1.0000
  H   H1236     1.0  0.83946  0.41158  0.52299  1.0000
  C   C1552     1.0  0.90218  0.23187  0.98415  1.0000
  H   H1237     1.0  0.96207  0.33234  0.75236  1.0000
  C   C1553     1.0  0.98972  0.46901  0.65499  1.0000
  H   H1238     1.0  0.97746  0.39109  0.53534  1.0000
  H   H1239     1.0  0.76143  0.16304  0.97718  1.0000
  C   C1554     1.0  0.77606  0.00352  0.69769  1.0000
  C   C1555     1.0  0.89948  0.47802  0.53302  1.0000
  C   C1556     1.0  0.97377  0.26490  0.86426  1.0000
  C   C1557     1.0  0.99006  0.21504  0.70198  1.0000
  S   S207      1.0  0.99307  0.34601  0.64474  1.0000
  H   H1240     1.0  0.95680  0.48005  0.53869  1.0000
  H   H1241     1.0  0.85720  0.25950  0.97638  1.0000
  H   H1242     1.0  0.79573  0.15191  0.99492  1.0000
  C   C1558     1.0  0.97155  0.32904  0.51497  1.0000
  C   C1559     1.0  0.99607  0.23225  0.71592  1.0000
  H   H1243     1.0  0.96042  0.31851  0.51585  1.0000
  C   C1560     1.0  0.99481  0.20814  0.86515  1.0000
  C   C1561     1.0  0.80638  0.19617  0.99733  1.0000
  H   H1244     1.0  0.66518  0.02228  0.82700  1.0000
  P   P52       1.0  0.90247  0.44149  0.50176  1.0000
  C   C1562     1.0  0.99506  0.43014  0.57249  1.0000
  H   H1245     1.0  0.75056  0.99418  0.95841  1.0000
  C   C1563     1.0  0.80490  0.99387  0.84168  1.0000
  H   H1246     1.0  0.81016  0.06102  0.99820  1.0000
  Fe  Fe105     1.0  0.78513  0.91043  0.16125  1.0000
  S   S208      1.0  0.75919  0.90760  0.12921  1.0000
  S   S209      1.0  0.78911  0.93967  0.18617  1.0000
  Fe  Fe106     1.0  0.80056  0.86557  0.15451  1.0000
  S   S210      1.0  0.77493  0.85972  0.12255  1.0000
  S   S211      1.0  0.82922  0.84575  0.16805  1.0000
  Fe  Fe107     1.0  0.78068  0.88844  0.09866  1.0000
  S   S212      1.0  0.78896  0.89475  0.04799  1.0000
  Fe  Fe108     1.0  0.75532  0.87948  0.15646  1.0000
  S   S213      1.0  0.72255  0.87788  0.17127  1.0000
  S   S214      1.0  0.80703  0.89341  0.12920  1.0000
  S   S215      1.0  0.78059  0.88322  0.18990  1.0000
  H   H1247     1.0  0.88075  0.82195  0.06436  1.0000
  Fe  Fe109     1.0  0.94444  0.73225  0.16898  1.0000
  S   S216      1.0  0.95042  0.70613  0.13702  1.0000
  H   H1248     1.0  0.81212  0.92718  0.06626  1.0000
  Fe  Fe110     1.0  0.90103  0.74069  0.14485  1.0000
  S   S217      1.0  0.90492  0.71379  0.11264  1.0000
  S   S218      1.0  0.86967  0.75733  0.13831  1.0000
  Fe  Fe111     1.0  0.92082  0.69739  0.15332  1.0000
  S   S219      1.0  0.92230  0.66418  0.16600  1.0000
  Fe  Fe112     1.0  0.93407  0.72500  0.10004  1.0000
  S   S220      1.0  0.94803  0.72857  0.05199  1.0000
  S   S221      1.0  0.91489  0.72322  0.18643  1.0000
  S   S222      1.0  0.93010  0.75222  0.13083  1.0000
  Fe  Fe113     1.0  0.90962  0.54739  0.33170  1.0000
  S   S223      1.0  0.93843  0.54577  0.35847  1.0000
  S   S224      1.0  0.89242  0.52016  0.32929  1.0000
  Fe  Fe114     1.0  0.91053  0.59164  0.31467  1.0000
  S   S225      1.0  0.93889  0.59303  0.34188  1.0000
  S   S226      1.0  0.89685  0.62049  0.29120  1.0000
  Fe  Fe115     1.0  0.94888  0.56385  0.31892  1.0000
  C   C1564     1.0  0.73285  0.94368  0.19247  1.0000
  Fe  Fe116     1.0  0.92584  0.57492  0.37950  1.0000
  S   S227      1.0  0.93405  0.58129  0.43018  1.0000
  S   S228      1.0  0.92114  0.56310  0.28970  1.0000
  S   S229      1.0  0.89622  0.57594  0.35468  1.0000
  C   C1565     1.0  0.99239  0.68803  0.38675  1.0000
  H   H1249     1.0  0.83505  0.94857  0.09222  1.0000
  C   C1566     1.0  0.87099  0.61777  0.46783  1.0000
  C   C1567     1.0  0.99401  0.73910  0.18662  1.0000
  H   H1250     1.0  0.93449  0.50538  0.33609  1.0000
  C   C1568     1.0  0.91651  0.65283  0.20227  1.0000
  C   C1569     1.0  0.90557  0.66333  0.22607  1.0000
  C   C1570     1.0  0.89993  0.65328  0.25326  1.0000
  C   C1571     1.0  0.90556  0.63274  0.25747  1.0000
  C   C1572     1.0  0.91710  0.62241  0.23414  1.0000
  C   C1573     1.0  0.92236  0.63236  0.20665  1.0000
  H   H1251     1.0  0.90081  0.67903  0.22305  1.0000
  H   H1252     1.0  0.89081  0.66143  0.27089  1.0000
  H   H1253     1.0  0.92127  0.60658  0.23672  1.0000
  H   H1254     1.0  0.93060  0.62402  0.18829  1.0000
  C   C1574     1.0  0.90297  0.56976  0.46667  1.0000
  C   C1575     1.0  0.92327  0.57257  0.46486  1.0000
  C   C1576     1.0  0.80203  0.94915  0.03143  1.0000
  H   H1255     1.0  0.89378  0.57127  0.44574  1.0000
  H   H1256     1.0  0.91695  0.50134  0.27272  1.0000
  C   C1577     1.0  0.94259  0.49779  0.20369  1.0000
  C   C1578     1.0  0.93506  0.72532  0.01649  1.0000
  C   C1579     1.0  0.69915  0.96791  0.21294  1.0000
  H   H1257     1.0  0.90897  0.71498  0.03764  1.0000
  H   H1258     1.0  0.68804  0.97223  0.29308  1.0000
  C   C1580     1.0  0.84039  0.82138  0.15804  1.0000
  C   C1581     1.0  0.83057  0.80803  0.13995  1.0000
  C   C1582     1.0  0.83987  0.78863  0.13384  1.0000
  C   C1583     1.0  0.85918  0.78236  0.14537  1.0000
  C   C1584     1.0  0.86925  0.79592  0.16259  1.0000
  C   C1585     1.0  0.85986  0.81522  0.16900  1.0000
  H   H1259     1.0  0.81565  0.81250  0.13129  1.0000
  H   H1260     1.0  0.83194  0.77831  0.12044  1.0000
  H   H1261     1.0  0.88406  0.79138  0.17164  1.0000
  H   H1262     1.0  0.86764  0.82541  0.18293  1.0000
  C   C1586     1.0  0.71077  0.87518  0.20847  1.0000
  C   C1587     1.0  0.72092  0.86598  0.23421  1.0000
  C   C1588     1.0  0.71063  0.86316  0.26255  1.0000
  C   C1589     1.0  0.69011  0.86959  0.26574  1.0000
  C   C1590     1.0  0.81353  0.94202  0.05724  1.0000
  C   C1591     1.0  0.69027  0.88172  0.21176  1.0000
  H   H1263     1.0  0.73659  0.86061  0.23203  1.0000
  H   H1264     1.0  0.71859  0.85572  0.28203  1.0000
  H   H1265     1.0  0.67884  0.96735  0.34891  1.0000
  H   H1266     1.0  0.90455  0.96259  0.05994  1.0000
  C   C1592     1.0  0.68003  0.87909  0.24021  1.0000
  C   C1593     1.0  0.92732  0.49520  0.22533  1.0000
  C   C1594     1.0  0.84862  0.84771  0.01298  1.0000
  C   C1595     1.0  0.99192  0.70430  0.27231  1.0000
  H   H1267     1.0  0.75245  0.87614  0.03271  1.0000
  H   H1268     1.0  0.66423  0.88396  0.24211  1.0000
  C   C1596     1.0  0.78618  0.96235  0.13198  1.0000
  C   C1597     1.0  0.78677  0.96224  0.16480  1.0000
  C   C1598     1.0  0.78576  0.98046  0.18110  1.0000
  H   H1269     1.0  0.78690  0.94841  0.11920  1.0000
  H   H1270     1.0  0.78628  0.98044  0.20647  1.0000
  P   P53       1.0  0.97631  0.50277  0.44489  1.0000
  C   C1599     1.0  0.72819  0.95477  0.36588  1.0000
  C   C1600     1.0  0.95779  0.50965  0.21143  1.0000
  C   C1601     1.0  0.91848  0.51893  0.47308  1.0000
  H   H1271     1.0  0.68371  0.94149  0.20898  1.0000
  H   H1272     1.0  0.74592  0.93431  0.18437  1.0000
  H   H1273     1.0  0.99273  0.63447  0.35339  1.0000
  H   H1274     1.0  0.95495  0.59696  0.26413  1.0000
  C   C1602     1.0  0.95794  0.51879  0.24093  1.0000
  C   C1603     1.0  0.90501  0.49587  0.33255  1.0000
  C   C1604     1.0  0.93221  0.66526  0.07317  1.0000
  C   C1605     1.0  0.80163  0.79464  0.06613  1.0000
  C   C1606     1.0  0.67371  0.92536  0.28757  1.0000
  H   H1275     1.0  0.67796  0.92714  0.36892  1.0000
  C   C1607     1.0  0.98429  0.56072  0.42310  1.0000
  C   C1608     1.0  0.68505  0.89675  0.38341  1.0000
  H   H1276     1.0  0.69505  0.98255  0.48025  1.0000
  H   H1277     1.0  0.74855  0.96955  0.19665  1.0000
  C   C1609     1.0  0.98364  0.60822  0.25937  1.0000
  C   C1610     1.0  0.93475  0.69506  0.31931  1.0000
  C   C1611     1.0  0.81630  0.80486  0.05206  1.0000
  C   C1612     1.0  0.73067  0.96963  0.38810  1.0000
  H   H1278     1.0  0.98161  0.75268  0.14427  1.0000
  H   H1279     1.0  0.82285  0.86762  0.02755  1.0000
  C   C1613     1.0  0.82653  0.95405  0.07180  1.0000
  H   H1280     1.0  0.96701  0.69586  0.35725  1.0000
  H   H1281     1.0  0.96937  0.51188  0.19454  1.0000
  C   C1614     1.0  0.82823  0.97320  0.06033  1.0000
  P   P54       1.0  0.70698  0.93513  0.32114  1.0000
  C   C1615     1.0  0.72747  0.93060  0.29361  1.0000
  C   C1616     1.0  0.70990  0.95440  0.34997  1.0000
  H   H1282     1.0  0.94962  0.65650  0.11362  1.0000
  H   H1283     1.0  0.81561  0.82091  0.05445  1.0000
  P   P55       1.0  0.99179  0.66104  0.09701  1.0000
  C   C1617     1.0  0.78518  0.98053  0.11561  1.0000
  C   C1618     1.0  0.97806  0.68396  0.36442  1.0000
  C   C1619     1.0  0.72723  0.91508  0.27157  1.0000
  C   C1620     1.0  0.74335  0.91062  0.25114  1.0000
  C   C1621     1.0  0.75965  0.92182  0.25207  1.0000
  C   C1622     1.0  0.75963  0.93785  0.27283  1.0000
  C   C1623     1.0  0.74348  0.94244  0.29326  1.0000
  C   C1624     1.0  0.70402  0.91323  0.34444  1.0000
  H   H1284     1.0  0.92125  0.72472  0.25651  1.0000
  H   H1285     1.0  0.67227  0.89694  0.39900  1.0000
  H   H1286     1.0  0.91581  0.72271  0.31397  1.0000
  C   C1625     1.0  0.71373  0.87864  0.35846  1.0000
  C   C1626     1.0  0.71702  0.89563  0.34121  1.0000
  C   C1627     1.0  0.97350  0.64767  0.19839  1.0000
  C   C1628     1.0  0.71466  0.93566  0.19596  1.0000
  C   C1629     1.0  0.69362  0.96808  0.35878  1.0000
  H   H1287     1.0  0.96962  0.61832  0.18135  1.0000
  C   C1630     1.0  0.68825  0.91377  0.36614  1.0000
  C   C1631     1.0  0.71751  0.97599  0.21022  1.0000
  H   H1288     1.0  0.78965  0.80278  0.07938  1.0000
  H   H1289     1.0  0.98073  0.62504  0.12745  1.0000
  H   H1290     1.0  0.71471  0.90619  0.27043  1.0000
  H   H1291     1.0  0.74317  0.89860  0.23424  1.0000
  H   H1292     1.0  0.77212  0.91833  0.23618  1.0000
  H   H1293     1.0  0.77213  0.94677  0.27266  1.0000
  H   H1294     1.0  0.74356  0.95531  0.30834  1.0000
  H   H1295     1.0  0.85664  0.83836  0.10276  1.0000
  C   C1632     1.0  0.98101  0.63649  0.14526  1.0000
  H   H1296     1.0  0.69468  0.86577  0.39178  1.0000
  H   H1297     1.0  0.72323  0.86485  0.35479  1.0000
  H   H1298     1.0  0.72948  0.89468  0.32509  1.0000
  C   C1633     1.0  0.92866  0.63246  0.39673  1.0000
  C   C1634     1.0  0.90879  0.63507  0.38655  1.0000
  H   H1299     1.0  0.93249  0.62436  0.41824  1.0000
  H   H1300     1.0  0.89719  0.62900  0.39996  1.0000
  P   P56       1.0  0.85426  0.76013  0.01307  1.0000
  H   H1301     1.0  0.89187  0.52359  0.44467  1.0000
  C   C1635     1.0  0.96798  0.63919  0.29915  1.0000
  H   H1302     1.0  0.98411  0.70833  0.01225  1.0000
  C   C1636     1.0  0.96840  0.66526  0.07553  1.0000
  C   C1637     1.0  0.89174  0.61802  0.46859  1.0000
  C   C1638     1.0  0.90394  0.64494  0.35835  1.0000
  C   C1639     1.0  0.98161  0.71908  0.29075  1.0000
  C   C1640     1.0  0.86805  0.83177  0.05607  1.0000
  H   H1303     1.0  0.94705  0.51443  0.49528  1.0000
  H   H1304     1.0  0.98764  0.49626  0.32440  1.0000
  C   C1641     1.0  0.95607  0.62444  0.28955  1.0000
  C   C1642     1.0  0.91636  0.71794  0.01583  1.0000
  H   H1305     1.0  0.88864  0.64635  0.34982  1.0000
  C   C1643     1.0  0.94371  0.63960  0.37854  1.0000
  H   H1306     1.0  0.97539  0.57363  0.41351  1.0000
  H   H1307     1.0  0.71702  0.95609  0.45338  1.0000
  S   S230      1.0  0.97062  0.73428  0.20258  1.0000
  C   C1644     1.0  0.91892  0.65207  0.34011  1.0000
  H   H1308     1.0  0.94598  0.50481  0.39493  1.0000
  H   H1309     1.0  0.81891  0.74727  0.04573  1.0000
  C   C1645     1.0  0.94719  0.67998  0.30409  1.0000
  C   C1646     1.0  0.96399  0.60882  0.27020  1.0000
  C   C1647     1.0  0.92847  0.71227  0.26980  1.0000
  H   H1310     1.0  0.66682  0.92265  0.43889  1.0000
  C   C1648     1.0  0.85451  0.84103  0.07777  1.0000
  C   C1649     1.0  0.83828  0.85393  0.06729  1.0000
  C   C1650     1.0  0.83539  0.85733  0.03511  1.0000
  C   C1651     1.0  0.71469  0.98383  0.39540  1.0000
  C   C1652     1.0  0.86523  0.83516  0.02383  1.0000
  H   H1311     1.0  0.91816  0.67536  0.02973  1.0000
  H   H1312     1.0  0.74496  0.97010  0.39972  1.0000
  H   H1313     1.0  0.78523  0.98039  0.09023  1.0000
  C   C1653     1.0  0.70126  0.95452  0.45627  1.0000
  C   C1654     1.0  0.81668  0.98045  0.03465  1.0000
  C   C1655     1.0  0.93497  0.57067  0.49229  1.0000
  H   H1314     1.0  0.68220  0.88870  0.19200  1.0000
  H   H1315     1.0  0.74178  0.83136  0.49733  1.0000
  C   C1656     1.0  0.98729  0.52589  0.43889  1.0000
  C   C1657     1.0  0.67301  0.93569  0.44801  1.0000
  H   H1316     1.0  0.96053  0.54212  0.41934  1.0000
  H   H1317     1.0  0.83823  0.98256  0.07167  1.0000
  C   C1658     1.0  0.69335  0.93766  0.44447  1.0000
  C   C1659     1.0  0.94058  0.69721  0.25442  1.0000
  C   C1660     1.0  0.97465  0.63264  0.17570  1.0000
  C   C1661     1.0  0.93893  0.64955  0.35007  1.0000
  H   H1318     1.0  0.82788  0.86127  0.08417  1.0000
  C   C1662     1.0  0.89680  0.98236  0.09886  1.0000
  H   H1319     1.0  0.95900  0.63685  0.38654  1.0000
  C   C1663     1.0  0.99176  0.58032  0.34520  1.0000
  H   H1320     1.0  0.67807  0.91005  0.29440  1.0000
  H   H1321     1.0  0.93187  0.69414  0.34428  1.0000
  H   H1322     1.0  0.74785  0.97794  0.25720  1.0000
  H   H1323     1.0  0.92595  0.77165  0.00966  1.0000
  H   H1324     1.0  0.94369  0.52228  0.28613  1.0000
  C   C1664     1.0  0.98737  0.63910  0.28685  1.0000
  H   H1325     1.0  0.80655  0.84334  0.00296  1.0000
  C   C1665     1.0  0.83203  0.79436  0.03559  1.0000
  C   C1666     1.0  0.90070  0.50466  0.16154  1.0000
  S   S231      1.0  0.67773  0.86475  0.30161  1.0000
  C   C1667     1.0  0.81834  0.76334  0.04707  1.0000
  C   C1668     1.0  0.83329  0.77351  0.03322  1.0000
  S   S232      1.0  0.97939  0.55724  0.29722  1.0000
  C   C1669     1.0  0.94331  0.51553  0.26302  1.0000
  C   C1670     1.0  0.85525  0.73393  0.02274  1.0000
  C   C1671     1.0  0.66830  0.96755  0.47509  1.0000
  C   C1672     1.0  0.67923  0.96026  0.28696  1.0000
  C   C1673     1.0  0.80332  0.96856  0.02017  1.0000
  H   H1326     1.0  0.96947  0.52825  0.24696  1.0000
  H   H1327     1.0  0.92690  0.78216  0.06541  1.0000
  H   H1328     1.0  0.71365  0.92007  0.19059  1.0000
  C   C1674     1.0  0.91233  0.77307  0.02345  1.0000
  C   C1675     1.0  0.87957  0.50712  0.24721  1.0000
  C   C1676     1.0  0.85612  0.69342  0.03857  1.0000
  C   C1677     1.0  0.86266  0.70695  0.06016  1.0000
  C   C1678     1.0  0.86228  0.72711  0.05233  1.0000
  C   C1679     1.0  0.87697  0.76883  0.02840  1.0000
  C   C1680     1.0  0.87763  0.77520  0.05983  1.0000
  C   C1681     1.0  0.89551  0.78016  0.07300  1.0000
  C   C1682     1.0  0.68878  0.96946  0.47143  1.0000
  H   H1329     1.0  0.94264  0.69793  0.22917  1.0000
  H   H1330     1.0  0.98985  0.59579  0.24508  1.0000
  H   H1331     1.0  0.96753  0.72659  0.28245  1.0000
  H   H1332     1.0  0.97769  0.67834  0.20811  1.0000
  C   C1683     1.0  0.80261  0.77390  0.06354  1.0000
  H   H1333     1.0  0.85892  0.52726  0.27358  1.0000
  C   C1684     1.0  0.93216  0.67233  0.04235  1.0000
  C   C1685     1.0  0.92552  0.71118  0.30222  1.0000
  C   C1686     1.0  0.84885  0.70011  0.00925  1.0000
  C   C1687     1.0  0.97796  0.66466  0.35205  1.0000
  H   H1334     1.0  0.98179  0.67630  0.03371  1.0000
  C   C1688     1.0  0.95010  0.67610  0.02814  1.0000
  H   H1335     1.0  0.94990  0.68222  0.00457  1.0000
  C   C1689     1.0  0.93915  0.51368  0.47330  1.0000
  H   H1336     1.0  0.85653  0.67780  0.04473  1.0000
  H   H1337     1.0  0.86793  0.70186  0.08316  1.0000
  H   H1338     1.0  0.86730  0.73729  0.06965  1.0000
  H   H1339     1.0  0.86454  0.77560  0.07473  1.0000
  H   H1340     1.0  0.89594  0.78430  0.09763  1.0000
  C   C1690     1.0  0.69782  0.94776  0.20631  1.0000
  H   H1341     1.0  0.74055  0.94354  0.36107  1.0000
  H   H1342     1.0  0.71378  0.97631  0.01280  1.0000
  C   C1691     1.0  0.68483  0.94073  0.29742  1.0000
  H   H1343     1.0  0.97923  0.70333  0.08272  1.0000
  H   H1344     1.0  0.99225  0.70289  0.39648  1.0000
  H   H1345     1.0  0.68356  0.99352  0.38729  1.0000
  C   C1692     1.0  0.73432  0.96370  0.19965  1.0000
  H   H1346     1.0  0.91485  0.65894  0.31771  1.0000
  H   H1347     1.0  0.88907  0.51866  0.24181  1.0000
  H   H1348     1.0  0.94073  0.62478  0.29737  1.0000
  C   C1693     1.0  0.93846  0.50831  0.41704  1.0000
  H   H1349     1.0  0.90076  0.61201  0.44905  1.0000
  H   H1350     1.0  0.95884  0.66953  0.25895  1.0000
  H   H1351     1.0  0.97731  0.57933  0.35554  1.0000
  C   C1694     1.0  0.98976  0.72459  0.31925  1.0000
  C   C1695     1.0  0.69766  0.87915  0.37934  1.0000
  H   H1352     1.0  0.95068  0.57279  0.49112  1.0000
  H   H1353     1.0  0.70292  0.92615  0.43240  1.0000
  C   C1696     1.0  0.97595  0.54267  0.42623  1.0000
  C   C1697     1.0  0.84820  0.72030  0.00146  1.0000
  H   H1354     1.0  0.96742  0.64489  0.22132  1.0000
  C   C1698     1.0  0.94934  0.50816  0.44529  1.0000
  C   C1699     1.0  0.77809  0.88780  0.01231  1.0000
  C   C1700     1.0  0.91779  0.51362  0.41692  1.0000
  C   C1701     1.0  0.90781  0.51898  0.44491  1.0000
  C   C1702     1.0  0.88682  0.98941  0.04501  1.0000
  C   C1703     1.0  0.91289  0.77899  0.05488  1.0000
  H   H1355     1.0  0.84340  0.80243  0.02508  1.0000
  C   C1704     1.0  0.97923  0.66644  0.19094  1.0000
  C   C1705     1.0  0.75362  0.99206  0.25313  1.0000
  C   C1706     1.0  0.94985  0.68111  0.27145  1.0000
  H   H1356     1.0  0.79134  0.76597  0.07476  1.0000
  C   C1707     1.0  0.96811  0.67278  0.04474  1.0000
  P   P57       1.0  0.95820  0.65860  0.32594  1.0000
  C   C1708     1.0  0.95022  0.66165  0.08964  1.0000
  H   H1357     1.0  0.91826  0.66290  0.08468  1.0000
  H   H1358     1.0  0.68581  0.97712  0.22001  1.0000
  C   C1709     1.0  0.76010  0.87911  0.01113  1.0000
  H   H1359     1.0  0.75682  0.95355  0.00417  1.0000
  C   C1710     1.0  0.89449  0.76797  0.01023  1.0000
  C   C1711     1.0  0.98644  0.65543  0.13741  1.0000
  H   H1360     1.0  0.82590  0.99328  0.16710  1.0000
  H   H1361     1.0  0.79216  0.93938  0.02076  1.0000
  C   C1712     1.0  0.99261  0.64959  0.36210  1.0000
  H   H1362     1.0  0.90953  0.51403  0.39497  1.0000
  C   C1713     1.0  0.99513  0.74854  0.15757  1.0000
  C   C1714     1.0  0.84953  0.49770  0.27200  1.0000
  H   H1363     1.0  0.78022  0.98439  0.28072  1.0000
  H   H1364     1.0  0.88110  0.49719  0.08916  1.0000
  H   H1365     1.0  0.91710  0.62528  0.49483  1.0000
  C   C1715     1.0  0.98583  0.67029  0.16061  1.0000
  H   H1366     1.0  0.73415  0.99226  0.15414  1.0000
  C   C1716     1.0  0.86224  0.51217  0.26484  1.0000
  H   H1367     1.0  0.98181  0.73627  0.33329  1.0000
  H   H1368     1.0  0.98404  0.52367  0.36240  1.0000
  H   H1369     1.0  0.87609  0.82794  0.00769  1.0000
  H   H1370     1.0  0.90449  0.97251  0.11611  1.0000
  H   H1371     1.0  0.85206  0.88793  0.00816  1.0000
  H   H1372     1.0  0.67836  0.98561  0.02772  1.0000
  H   H1373     1.0  0.86394  0.61172  0.44754  1.0000
  C   C1717     1.0  0.99521  0.62356  0.26719  1.0000
  H   H1374     1.0  0.98578  0.70063  0.24974  1.0000
  C   C1718     1.0  0.69613  0.98286  0.38107  1.0000
  C   C1719     1.0  0.99507  0.70168  0.08793  1.0000
  H   H1375     1.0  0.83627  0.50164  0.28606  1.0000
  C   C1720     1.0  0.92814  0.50369  0.25534  1.0000
  C   C1721     1.0  0.68230  0.98300  0.00324  1.0000
  H   H1376     1.0  0.98953  0.68515  0.15509  1.0000
  H   H1377     1.0  0.89526  0.52334  0.12071  1.0000
  C   C1722     1.0  0.89681  0.97675  0.06723  1.0000
  H   H1378     1.0  0.90642  0.51640  0.17521  1.0000
  H   H1379     1.0  0.88683  0.98504  0.02048  1.0000
  C   C1723     1.0  0.89424  0.50870  0.13072  1.0000
  H   H1380     1.0  0.91078  0.52355  0.49468  1.0000
  H   H1381     1.0  0.87831  0.56526  0.49754  1.0000
  C   C1724     1.0  0.89421  0.56643  0.49607  1.0000
  C   C1725     1.0  0.90100  0.62531  0.49498  1.0000
  C   C1726     1.0  0.85942  0.62511  0.49339  1.0000
  H   H1382     1.0  0.84333  0.62489  0.49282  1.0000
  H   H1383     1.0  0.99493  0.64260  0.03332  1.0000
  C   C1727     1.0  0.88620  0.49400  0.11298  1.0000
  Fe  Fe117     1.0  0.76660  0.87903  0.87161  1.0000
  S   S233      1.0  0.79978  0.87915  0.86925  1.0000
  S   S234      1.0  0.75044  0.87344  0.91713  1.0000
  Fe  Fe118     1.0  0.76115  0.88572  0.80039  1.0000
  S   S235      1.0  0.79459  0.88602  0.79339  1.0000
  S   S236      1.0  0.74076  0.89320  0.75746  1.0000
  Fe  Fe119     1.0  0.79853  0.85961  0.82663  1.0000
  S   S237      1.0  0.81587  0.82824  0.82330  1.0000
  Fe  Fe120     1.0  0.79320  0.90554  0.83677  1.0000
  S   S238      1.0  0.80882  0.93325  0.84848  1.0000
  S   S239      1.0  0.76511  0.85821  0.83051  1.0000
  S   S240      1.0  0.75992  0.90659  0.84208  1.0000
  H   H1384     1.0  0.68028  0.83923  0.57870  1.0000
  Fe  Fe121     1.0  0.91974  0.75437  0.83052  1.0000
  S   S241      1.0  0.90230  0.72782  0.83324  1.0000
  S   S242      1.0  0.90640  0.78678  0.82216  1.0000
  Fe  Fe122     1.0  0.95980  0.72891  0.84555  1.0000
  S   S243      1.0  0.94437  0.70094  0.85035  1.0000
  C   C1728     1.0  0.70900  0.87936  0.58039  1.0000
  Fe  Fe123     1.0  0.92764  0.71047  0.80624  1.0000
  S   S244      1.0  0.92872  0.69120  0.76085  1.0000
  Fe  Fe124     1.0  0.92076  0.72029  0.87685  1.0000
  S   S245      1.0  0.90587  0.71170  0.92218  1.0000
  S   S246      1.0  0.94399  0.73796  0.80042  1.0000
  S   S247      1.0  0.93720  0.74749  0.87527  1.0000
  Fe  Fe125     1.0  0.95523  0.56623  0.62523  1.0000
  S   S248      1.0  0.94892  0.56066  0.67602  1.0000
  H   H1385     1.0  0.73775  0.86814  0.98098  1.0000
  Fe  Fe126     1.0  0.91309  0.56370  0.60498  1.0000
  S   S249      1.0  0.90281  0.55813  0.65459  1.0000
  S   S250      1.0  0.89410  0.56324  0.56070  1.0000
  Fe  Fe127     1.0  0.92171  0.58260  0.66965  1.0000
  S   S251      1.0  0.91238  0.60402  0.71099  1.0000
  Fe  Fe128     1.0  0.93088  0.53675  0.65780  1.0000
  S   S252      1.0  0.93564  0.50666  0.68284  1.0000
  S   S253      1.0  0.92938  0.58976  0.61960  1.0000
  S   S254      1.0  0.93961  0.54079  0.60758  1.0000
  C   C1729     1.0  0.84228  0.91298  0.97918  1.0000
  H   H1386     1.0  0.93679  0.66223  0.57132  1.0000
  H   H1387     1.0  0.72161  0.99011  0.81843  1.0000
  H   H1388     1.0  0.73361  0.94150  0.65117  1.0000
  H   H1389     1.0  0.87389  0.74550  0.90266  1.0000
  C   C1730     1.0  0.88950  0.84015  0.90680  1.0000
  H   H1390     1.0  0.79534  0.96018  0.92432  1.0000
  C   C1731     1.0  0.90579  0.56532  0.52368  1.0000
  C   C1732     1.0  0.70413  0.94555  0.89128  1.0000
  H   H1391     1.0  0.93549  0.56545  0.54245  1.0000
  C   C1733     1.0  0.91705  0.71746  0.95832  1.0000
  C   C1734     1.0  0.84901  0.76838  0.90537  1.0000
  C   C1735     1.0  0.93541  0.72544  0.95909  1.0000
  C   C1736     1.0  0.78670  0.98214  0.79763  1.0000
  H   H1392     1.0  0.94295  0.72831  0.93741  1.0000
  C   C1737     1.0  0.92536  0.66628  0.74845  1.0000
  C   C1738     1.0  0.93223  0.65970  0.71847  1.0000
  C   C1739     1.0  0.92898  0.64057  0.70692  1.0000
  C   C1740     1.0  0.91844  0.62779  0.72497  1.0000
  C   C1741     1.0  0.91167  0.63436  0.75495  1.0000
  C   C1742     1.0  0.91531  0.65328  0.76676  1.0000
  H   H1393     1.0  0.94004  0.66953  0.70399  1.0000
  H   H1394     1.0  0.93423  0.63588  0.68379  1.0000
  H   H1395     1.0  0.90348  0.62471  0.76920  1.0000
  H   H1396     1.0  0.91000  0.65791  0.78981  1.0000
  C   C1743     1.0  0.94163  0.64693  0.56516  1.0000
  C   C1744     1.0  0.84128  0.81733  0.82479  1.0000
  C   C1745     1.0  0.85761  0.82861  0.82398  1.0000
  C   C1746     1.0  0.87737  0.81902  0.82355  1.0000
  C   C1747     1.0  0.88115  0.79807  0.82443  1.0000
  C   C1748     1.0  0.86482  0.78682  0.82600  1.0000
  C   C1749     1.0  0.84508  0.79640  0.82592  1.0000
  H   H1397     1.0  0.85504  0.84470  0.82304  1.0000
  H   H1398     1.0  0.88984  0.82792  0.82228  1.0000
  H   H1399     1.0  0.86744  0.77073  0.82656  1.0000
  H   H1400     1.0  0.83257  0.78758  0.82657  1.0000
  C   C1750     1.0  0.76161  0.87847  0.95362  1.0000
  P   P58       1.0  0.68391  0.95767  0.73600  1.0000
  C   C1751     1.0  0.75712  0.98287  0.87958  1.0000
  P   P59       1.0  0.78821  0.97849  0.98746  1.0000
  H   H1401     1.0  0.78743  0.88994  0.93357  1.0000
  C   C1752     1.0  0.71644  0.88692  0.74677  1.0000
  C   C1753     1.0  0.70610  0.87384  0.76445  1.0000
  C   C1754     1.0  0.68694  0.86930  0.75478  1.0000
  C   C1755     1.0  0.67534  0.92533  0.77332  1.0000
  C   C1756     1.0  0.68818  0.89084  0.70974  1.0000
  C   C1757     1.0  0.70726  0.89543  0.71945  1.0000
  H   H1402     1.0  0.71288  0.86712  0.78548  1.0000
  C   C1758     1.0  0.75899  0.92947  0.93386  1.0000
  H   H1403     1.0  0.68138  0.89751  0.68873  1.0000
  H   H1404     1.0  0.71486  0.90576  0.70572  1.0000
  C   C1759     1.0  0.79081  0.96228  0.80807  1.0000
  C   C1760     1.0  0.80240  0.95805  0.83506  1.0000
  C   C1761     1.0  0.80942  0.97397  0.85178  1.0000
  H   H1405     1.0  0.78551  0.95020  0.79477  1.0000
  H   H1406     1.0  0.81849  0.97090  0.87257  1.0000
  H   H1407     1.0  0.88301  0.79240  0.92629  1.0000
  C   C1762     1.0  0.68935  0.88423  0.56958  1.0000
  C   C1763     1.0  0.73971  0.97342  0.88280  1.0000
  H   H1408     1.0  0.75453  0.83289  0.61737  1.0000
  C   C1764     1.0  0.85403  0.68656  0.69479  1.0000
  C   C1765     1.0  0.84973  0.66749  0.70349  1.0000
  C   C1766     1.0  0.84420  0.66381  0.73442  1.0000
  C   C1767     1.0  0.84323  0.67911  0.75678  1.0000
  C   C1768     1.0  0.84814  0.69815  0.74844  1.0000
  C   C1769     1.0  0.85312  0.70189  0.71710  1.0000
  P   P60       1.0  0.84804  0.71754  0.77789  1.0000
  C   C1770     1.0  0.82295  0.72949  0.78425  1.0000
  C   C1771     1.0  0.85844  0.70603  0.81370  1.0000
  C   C1772     1.0  0.87423  0.69062  0.81195  1.0000
  C   C1773     1.0  0.88271  0.68196  0.83936  1.0000
  C   C1774     1.0  0.87563  0.68860  0.86875  1.0000
  C   C1775     1.0  0.85994  0.70381  0.87082  1.0000
  C   C1776     1.0  0.85128  0.71242  0.84350  1.0000
  C   C1777     1.0  0.81974  0.74651  0.80344  1.0000
  C   C1778     1.0  0.80047  0.75608  0.80774  1.0000
  C   C1779     1.0  0.78415  0.74859  0.79325  1.0000
  C   C1780     1.0  0.78712  0.73155  0.77441  1.0000
  C   C1781     1.0  0.80643  0.72204  0.76984  1.0000
  C   C1782     1.0  0.86498  0.73514  0.76503  1.0000
  C   C1783     1.0  0.85856  0.75546  0.76038  1.0000
  C   C1784     1.0  0.87233  0.76881  0.75241  1.0000
  C   C1785     1.0  0.89245  0.76194  0.74795  1.0000
  C   C1786     1.0  0.89870  0.74161  0.75054  1.0000
  C   C1787     1.0  0.88504  0.72831  0.75903  1.0000
  H   H1409     1.0  0.85833  0.68940  0.67082  1.0000
  H   H1410     1.0  0.85075  0.65553  0.68633  1.0000
  H   H1411     1.0  0.84093  0.64900  0.74119  1.0000
  H   H1412     1.0  0.83906  0.67597  0.78071  1.0000
  H   H1413     1.0  0.85664  0.71653  0.70995  1.0000
  H   H1414     1.0  0.88028  0.68543  0.78947  1.0000
  H   H1415     1.0  0.89515  0.67043  0.83791  1.0000
  H   H1416     1.0  0.88261  0.68227  0.88997  1.0000
  H   H1417     1.0  0.85478  0.70915  0.89374  1.0000
  H   H1418     1.0  0.83922  0.72411  0.84610  1.0000
  H   H1419     1.0  0.83223  0.75258  0.81474  1.0000
  H   H1420     1.0  0.79821  0.76943  0.82211  1.0000
  H   H1421     1.0  0.76922  0.75606  0.79656  1.0000
  H   H1422     1.0  0.77444  0.72576  0.76318  1.0000
  H   H1423     1.0  0.80834  0.70895  0.75498  1.0000
  H   H1424     1.0  0.84311  0.76132  0.76307  1.0000
  H   H1425     1.0  0.86751  0.78461  0.75050  1.0000
  H   H1426     1.0  0.90320  0.77239  0.74280  1.0000
  H   H1427     1.0  0.91424  0.73614  0.74667  1.0000
  H   H1428     1.0  0.89027  0.71269  0.76129  1.0000
  H   H1429     1.0  0.71536  0.88893  0.87293  1.0000
  C   C1788     1.0  0.67976  0.98202  0.87327  1.0000
  H   H1430     1.0  0.87195  0.67005  0.58824  1.0000
  C   C1789     1.0  0.84594  0.89255  0.98550  1.0000
  H   H1431     1.0  0.87387  0.86637  0.92709  1.0000
  H   H1432     1.0  0.84797  0.77041  0.88019  1.0000
  P   P61       1.0  0.84434  0.85197  0.97126  1.0000
  H   H1433     1.0  0.77944  0.93409  0.89649  1.0000
  H   H1434     1.0  0.75231  0.91777  0.92145  1.0000
  H   H1435     1.0  0.73007  0.99089  0.66146  1.0000
  C   C1790     1.0  0.79001  0.98673  0.70071  1.0000
  H   H1436     1.0  0.83090  0.87472  0.91543  1.0000
  C   C1791     1.0  0.88694  0.70971  0.54902  1.0000
  P   P62       1.0  0.69963  0.97198  0.89926  1.0000
  C   C1792     1.0  0.98712  0.62691  0.64558  1.0000
  S   S255      1.0  0.98460  0.57089  0.60299  1.0000
  C   C1793     1.0  0.82180  0.84188  0.95785  1.0000
  H   H1437     1.0  0.70612  0.93624  0.94015  1.0000
  H   H1438     1.0  0.70337  0.94923  0.84069  1.0000
  H   H1439     1.0  0.74975  0.96338  0.81881  1.0000
  C   C1794     1.0  0.88240  0.61354  0.59000  1.0000
  C   C1795     1.0  0.87613  0.60501  0.61773  1.0000
  C   C1796     1.0  0.87921  0.61400  0.64669  1.0000
  C   C1797     1.0  0.88863  0.63150  0.64794  1.0000
  H   H1440     1.0  0.98433  0.61498  0.56084  1.0000
  C   C1798     1.0  0.88104  0.80855  0.92680  1.0000
  H   H1441     1.0  0.70718  0.98911  0.61652  1.0000
  C   C1799     1.0  0.98905  0.61060  0.74746  1.0000
  C   C1800     1.0  0.70920  0.91844  0.85339  1.0000
  H   H1442     1.0  0.77601  0.86758  0.69227  1.0000
  C   C1801     1.0  0.93438  0.61369  0.55084  1.0000
  H   H1443     1.0  0.94416  0.60715  0.78337  1.0000
  C   C1802     1.0  0.70683  0.93161  0.91582  1.0000
  C   C1803     1.0  0.96860  0.62034  0.55965  1.0000
  C   C1804     1.0  0.83724  0.77730  0.95786  1.0000
  C   C1805     1.0  0.95764  0.60267  0.77010  1.0000
  H   H1444     1.0  0.86954  0.59101  0.61676  1.0000
  H   H1445     1.0  0.87499  0.60700  0.66829  1.0000
  H   H1446     1.0  0.89159  0.63802  0.67056  1.0000
  H   H1447     1.0  0.68742  0.98979  0.69060  1.0000
  H   H1448     1.0  0.72285  0.97021  0.95719  1.0000
  C   C1806     1.0  0.77979  0.88677  0.95499  1.0000
  H   H1449     1.0  0.83161  0.83874  0.90920  1.0000
  C   C1807     1.0  0.86506  0.75186  0.95058  1.0000
  C   C1808     1.0  0.78348  0.95335  0.93595  1.0000
  C   C1809     1.0  0.76716  0.84888  0.65462  1.0000
  C   C1810     1.0  0.90709  0.49428  0.54747  1.0000
  C   C1811     1.0  0.75181  0.87460  0.98181  1.0000
  C   C1812     1.0  0.66329  0.97119  0.86805  1.0000
  C   C1813     1.0  0.67249  0.98142  0.94848  1.0000
  C   C1814     1.0  0.67176  0.97181  0.54959  1.0000
  H   H1450     1.0  0.96910  0.63085  0.77576  1.0000
  C   C1815     1.0  0.77713  0.95906  0.96642  1.0000
  H   H1451     1.0  0.89323  0.70774  0.98650  1.0000
  H   H1452     1.0  0.89700  0.50626  0.55745  1.0000
  C   C1816     1.0  0.92770  0.63372  0.55666  1.0000
  C   C1817     1.0  0.72135  0.97753  0.80271  1.0000
  C   C1818     1.0  0.68443  0.90153  0.55195  1.0000
  C   C1819     1.0  0.73572  0.86008  0.62873  1.0000
  C   C1820     1.0  0.76499  0.86562  0.67418  1.0000
  H   H1453     1.0  0.73899  0.88844  0.58058  1.0000
  H   H1454     1.0  0.67775  0.87466  0.57419  1.0000
  C   C1821     1.0  0.70446  0.93362  0.63818  1.0000
  H   H1455     1.0  0.97884  0.56406  0.72597  1.0000
  H   H1456     1.0  0.83149  0.93521  0.94505  1.0000
  C   C1822     1.0  0.68449  0.93377  0.64723  1.0000
  H   H1457     1.0  0.67889  0.83787  0.69522  1.0000
  C   C1823     1.0  0.78408  0.96887  0.71224  1.0000
  C   C1824     1.0  0.76419  0.96780  0.72098  1.0000
  C   C1825     1.0  0.98099  0.68636  0.74755  1.0000
  C   C1826     1.0  0.76171  0.94964  0.98049  1.0000
  H   H1458     1.0  0.82452  0.79064  0.91531  1.0000
  C   C1827     1.0  0.90176  0.69982  0.53000  1.0000
  H   H1459     1.0  0.69527  0.92702  0.53010  1.0000
  C   C1828     1.0  0.71869  0.90927  0.55514  1.0000
  P   P63       1.0  0.71613  0.85620  0.60087  1.0000
  H   H1460     1.0  0.84526  0.92374  0.99705  1.0000
  C   C1829     1.0  0.73717  0.96237  0.80322  1.0000
  C   C1830     1.0  0.72496  0.83717  0.57277  1.0000
  C   C1831     1.0  0.75026  0.98465  0.71849  1.0000
  C   C1832     1.0  0.86359  0.75438  0.91802  1.0000
  H   H1461     1.0  0.95978  0.59146  0.54801  1.0000
  H   H1462     1.0  0.80011  0.82802  0.88965  1.0000
  C   C1833     1.0  0.95475  0.60705  0.55211  1.0000
  C   C1834     1.0  0.90748  0.71385  0.98682  1.0000
  C   C1835     1.0  0.98671  0.50637  0.50804  1.0000
  C   C1836     1.0  0.97196  0.61606  0.76581  1.0000
  H   H1463     1.0  0.79501  0.95600  0.71513  1.0000
  H   H1464     1.0  0.75978  0.95404  0.73052  1.0000
  C   C1837     1.0  0.66299  0.91145  0.78447  1.0000
  H   H1465     1.0  0.97297  0.62643  0.63350  1.0000
  H   H1466     1.0  0.74016  0.95782  0.87656  1.0000
  C   C1838     1.0  0.82382  0.98200  0.95552  1.0000
  C   C1839     1.0  0.83403  0.88520  0.93350  1.0000
  C   C1840     1.0  0.71814  0.94143  0.65827  1.0000
  C   C1841     1.0  0.73734  0.82735  0.52076  1.0000
  C   C1842     1.0  0.92637  0.56663  0.52144  1.0000
  C   C1843     1.0  0.89203  0.81931  0.90629  1.0000
  C   C1844     1.0  0.80182  0.83091  0.91455  1.0000
  C   C1845     1.0  0.69204  0.94843  0.69758  1.0000
  P   P64       1.0  0.90121  0.64152  0.55561  1.0000
  H   H1467     1.0  0.74881  0.93382  0.78445  1.0000
  H   H1468     1.0  0.84363  0.68964  0.99260  1.0000
  C   C1846     1.0  0.72058  0.94450  0.76340  1.0000
  C   C1847     1.0  0.83450  0.91947  0.95004  1.0000
  C   C1848     1.0  0.83602  0.99059  0.93388  1.0000
  C   C1849     1.0  0.70533  0.93879  0.86000  1.0000
  H   H1469     1.0  0.72272  0.95514  0.70261  1.0000
  H   H1470     1.0  0.67908  0.85919  0.76867  1.0000
  H   H1471     1.0  0.71054  0.91326  0.82926  1.0000
  H   H1472     1.0  0.73507  0.98391  0.72646  1.0000
  H   H1473     1.0  0.90236  0.81149  0.88972  1.0000
  C   C1850     1.0  0.86722  0.81859  0.94736  1.0000
  C   C1851     1.0  0.86435  0.83951  0.94775  1.0000
  C   C1852     1.0  0.89166  0.63127  0.59102  1.0000
  C   C1853     1.0  0.99140  0.59169  0.73336  1.0000
  S   S256      1.0  0.99334  0.72142  0.85409  1.0000
  H   H1474     1.0  0.98628  0.66594  0.70913  1.0000
  H   H1475     1.0  0.97969  0.50054  0.70988  1.0000
  H   H1476     1.0  0.77057  0.97459  0.87075  1.0000
  C   C1854     1.0  0.67781  0.87780  0.72743  1.0000
  H   H1477     1.0  0.98782  0.54917  0.66164  1.0000
  H   H1478     1.0  0.82465  0.91062  0.90444  1.0000
  C   C1855     1.0  0.83057  0.90559  0.92713  1.0000
  H   H1479     1.0  0.74144  0.92702  0.97566  1.0000
  H   H1480     1.0  0.78002  0.83792  0.65741  1.0000
  C   C1856     1.0  0.73669  0.94577  0.78378  1.0000
  C   C1857     1.0  0.87578  0.85025  0.92752  1.0000
  C   C1858     1.0  0.78593  0.82913  0.93508  1.0000
  H   H1481     1.0  0.66509  0.98317  0.62719  1.0000
  H   H1482     1.0  0.94859  0.57388  0.75815  1.0000
  C   C1859     1.0  0.99070  0.70428  0.96293  1.0000
  H   H1483     1.0  0.86461  0.70653  0.58442  1.0000
  C   C1860     1.0  0.83581  0.77979  0.92524  1.0000
  C   C1861     1.0  0.71064  0.91128  0.90910  1.0000
  H   H1484     1.0  0.92369  0.60316  0.54591  1.0000
  C   C1862     1.0  0.70225  0.97775  0.99484  1.0000
  C   C1863     1.0  0.84138  0.87845  0.96290  1.0000
  C   C1864     1.0  0.69909  0.91396  0.54451  1.0000
  C   C1865     1.0  0.98377  0.52215  0.74561  1.0000
  C   C1866     1.0  0.98488  0.50445  0.62047  1.0000
  C   C1867     1.0  0.99510  0.49933  0.53650  1.0000
  H   H1485     1.0  0.91885  0.49578  0.62258  1.0000
  H   H1486     1.0  0.97327  0.69799  0.73319  1.0000
  H   H1487     1.0  0.89794  0.84844  0.89066  1.0000
  C   C1868     1.0  0.70522  0.97636  0.78218  1.0000
  C   C1869     1.0  0.71192  0.94902  0.68767  1.0000
  H   H1488     1.0  0.72070  0.81267  0.60411  1.0000
  C   C1870     1.0  0.78802  0.83326  0.96701  1.0000
  H   H1489     1.0  0.98238  0.51863  0.60838  1.0000
  C   C1871     1.0  0.81970  0.83712  0.92585  1.0000
  C   C1872     1.0  0.74838  0.87970  0.67088  1.0000
  C   C1873     1.0  0.77440  0.93861  0.91983  1.0000
  C   C1874     1.0  0.70479  0.95981  0.76219  1.0000
  H   H1490     1.0  0.70922  0.92761  0.61551  1.0000
  C   C1875     1.0  0.99058  0.50731  0.72409  1.0000
  H   H1491     1.0  0.74669  0.89247  0.68648  1.0000
  C   C1876     1.0  0.96013  0.58389  0.75591  1.0000
  C   C1877     1.0  0.80581  0.83964  0.97838  1.0000
  H   H1492     1.0  0.72038  0.93147  0.74861  1.0000
  C   C1878     1.0  0.89506  0.64000  0.62027  1.0000
  H   H1493     1.0  0.97280  0.65044  0.57294  1.0000
  C   C1879     1.0  0.85211  0.76350  0.97087  1.0000
  H   H1494     1.0  0.77180  0.82509  0.92609  1.0000
  H   H1495     1.0  0.80159  0.89857  0.98488  1.0000
  C   C1880     1.0  0.71190  0.90470  0.87795  1.0000
  H   H1496     1.0  0.90972  0.70815  0.51325  1.0000
  H   H1497     1.0  0.84212  0.72518  0.97889  1.0000
  C   C1881     1.0  0.68011  0.83926  0.60418  1.0000
  H   H1498     1.0  0.89480  0.76279  0.98623  1.0000
  H   H1499     1.0  0.90306  0.65309  0.62179  1.0000
  H   H1500     1.0  0.85848  0.81008  0.96263  1.0000
  C   C1882     1.0  0.69536  0.84709  0.62137  1.0000
  H   H1501     1.0  0.73184  0.78652  0.56551  1.0000
  C   C1883     1.0  0.66744  0.98483  0.98009  1.0000
  C   C1884     1.0  0.70733  0.97434  0.96331  1.0000
  H   H1502     1.0  0.77550  0.83233  0.98278  1.0000
  C   C1885     1.0  0.89603  0.66827  0.55414  1.0000
  C   C1886     1.0  0.73372  0.87695  0.64835  1.0000
  C   C1887     1.0  0.67003  0.98182  0.73060  1.0000
  C   C1888     1.0  0.88070  0.67821  0.57242  1.0000
  C   C1889     1.0  0.69479  0.84653  0.65439  1.0000
  C   C1890     1.0  0.75261  0.84609  0.63194  1.0000
  C   C1891     1.0  0.67926  0.83826  0.66976  1.0000
  H   H1503     1.0  0.68495  0.95921  0.59213  1.0000
  C   C1892     1.0  0.67454  0.97078  0.58215  1.0000
  C   C1893     1.0  0.87635  0.69890  0.57009  1.0000
  C   C1894     1.0  0.72363  0.89208  0.57308  1.0000
  C   C1895     1.0  0.69250  0.97613  0.93987  1.0000
  H   H1504     1.0  0.88063  0.60581  0.56801  1.0000
  H   H1505     1.0  0.73012  0.91881  0.54913  1.0000
  H   H1506     1.0  0.82676  0.78628  0.97263  1.0000
  H   H1507     1.0  0.66903  0.89958  0.79998  1.0000
  C   C1896     1.0  0.99218  0.67428  0.79878  1.0000
  H   H1508     1.0  0.74240  0.79575  0.51208  1.0000
  H   H1509     1.0  0.68028  0.96101  0.53487  1.0000
  H   H1510     1.0  0.97684  0.70335  0.79042  1.0000
  H   H1511     1.0  0.73067  0.85768  0.53539  1.0000
  H   H1512     1.0  0.72057  0.88766  0.64687  1.0000
  C   C1897     1.0  0.73101  0.84227  0.54250  1.0000
  H   H1513     1.0  0.98760  0.73801  0.78721  1.0000
  H   H1514     1.0  0.97679  0.69815  0.95762  1.0000
  C   C1898     1.0  0.88954  0.63221  0.52112  1.0000
  H   H1515     1.0  0.71306  0.90053  0.92804  1.0000
  H   H1516     1.0  0.77823  0.98526  0.77631  1.0000
  C   C1899     1.0  0.73173  0.80209  0.55914  1.0000
  C   C1900     1.0  0.78782  0.89163  0.98415  1.0000
  C   C1901     1.0  0.73768  0.80728  0.52906  1.0000
  C   C1902     1.0  0.94430  0.72942  0.98802  1.0000
  C   C1903     1.0  0.98287  0.68939  0.77986  1.0000
  C   C1904     1.0  0.72539  0.81695  0.58094  1.0000
  H   H1517     1.0  0.97347  0.63050  0.69110  1.0000
  H   H1518     1.0  0.99212  0.54281  0.78071  1.0000
  C   C1905     1.0  0.98747  0.62912  0.67825  1.0000
  H   H1519     1.0  0.87628  0.74072  0.95984  1.0000
  H   H1520     1.0  0.66924  0.90509  0.54360  1.0000
  H   H1521     1.0  0.82959  0.96850  0.96759  1.0000
  C   C1906     1.0  0.67830  0.94112  0.67675  1.0000
  C   C1907     1.0  0.90616  0.67914  0.53232  1.0000
  C   C1908     1.0  0.86864  0.63244  0.51988  1.0000
  C   C1909     1.0  0.75280  0.93480  0.96432  1.0000
  H   H1522     1.0  0.70623  0.85230  0.66859  1.0000
  H   H1523     1.0  0.69080  0.92382  0.78060  1.0000
  H   H1524     1.0  0.69318  0.98834  0.78212  1.0000
  H   H1525     1.0  0.96785  0.52672  0.74749  1.0000
  H   H1526     1.0  0.85101  0.98369  0.92925  1.0000
  C   C1910     1.0  0.96206  0.64026  0.56637  1.0000
  H   H1527     1.0  0.93352  0.50766  0.56071  1.0000
  C   C1911     1.0  0.80420  0.99062  0.96111  1.0000
  C   C1912     1.0  0.97709  0.57837  0.73773  1.0000
  H   H1528     1.0  0.80555  0.98771  0.69473  1.0000
  H   H1529     1.0  0.85949  0.63798  0.53959  1.0000
  H   H1530     1.0  0.88349  0.72573  0.54714  1.0000
  H   H1531     1.0  0.95850  0.73562  0.98829  1.0000
  C   C1913     1.0  0.72213  0.98406  0.89409  1.0000
  C   C1914     1.0  0.98824  0.66809  0.73408  1.0000
  H   H1532     1.0  0.91741  0.67160  0.51701  1.0000
  H   H1533     1.0  0.98168  0.52211  0.50569  1.0000
  H   H1534     1.0  0.67369  0.92820  0.63139  1.0000
  C   C1915     1.0  0.66785  0.94029  0.75220  1.0000
  C   C1916     1.0  0.92774  0.49505  0.54939  1.0000
  H   H1535     1.0  0.98314  0.76550  0.74854  1.0000
  C   C1917     1.0  0.66339  0.98427  0.60189  1.0000
  C   C1918     1.0  0.66435  0.83146  0.61970  1.0000
  C   C1919     1.0  0.66392  0.83097  0.65249  1.0000
  H   H1536     1.0  0.99350  0.67679  0.82386  1.0000
  C   C1920     1.0  0.99486  0.70991  0.99368  1.0000
