data_image0
_chemical_formula_structural       FeS2FeS2FeSFeS3CHSHCHFeS2FeS2Fe2S3H2FeS2FeS2FeSFeS3FeS2FeS2FeSFeS2C6H5C5HCH2C6H4C6H5CH2C6H4C6H4C6H4C6HC7PC18H20C2H2CHC4HCHCHC3HC2HC3HC2H2CH3C2HCHCH2C3H2C6PC3HC14H6CH10CHC6PC9H12C2HCH2C4H3C5PC21H17C2H2C2HCHC2H2C3PH4C2HCH8CHCH2C3PH3CHCH2C3H2CPC2PCHC5HC4HCHC3H2C2HC2HCH2CH2CHCH2CHSHSH7C2H3C2H5CHCH5C2H2CPH2CHC2HC4HC2H2C2H2C3HC2H2C2H2C3H2C7H2C2H2CHCHC2HCH5C3H2CHCHCH3FeS2FeS2HFeSHSFeS2FeS2Fe2S3FeS2FeSFeH3CH3CSH2FeS2FeS2FeSFeS3C4HC2H3C6H4C6H4C6H4C6SH3C6H4C6H4PH2C2H2CHCHC4H3C4HC2HC8HCH2C4H2CH2CHCHC3PC11FeHPH5CHC2H5CHC5H6C4HC9HC4PHFeC2H8CH2S2HC2HC4HPHCHC2HC2HC2HCHCH6PC3H2C6HC4HP2C4H3C4HC4HC2HC8H2C2H3C2H4C3HC2H2C3HCH4C3H2C2HCHSC2HC2HC2HCHCHCHCHCH3CHCHCH2C2H2CHC2H3C2H2C4HSH2C4HCHCH3CH3C2HCHCH5CFeCSHCSHFeS2HFePSHCH6C3HC4SCHCHSC3HC3H2CSC6H5CH3CHC4PHCH7CHCFeC3HC2HSCH2CHCHC3HC2H3C3H2CHSC5SH2C3HC3H2CHFeC3FeH3C2H2CHC3SCHSCH3CHC2SC4FeS2FeS2FeSFeCSH2CFeS2FeSFeCS2C3HSHSH2C4H2FeHC2HC3HC7H7C2H2SHCHC4H3C6H2CHC6H5C3H4C2H2FeH3CHCHC7H4C3SHCSC5PC18H21C2SCHCHC10H2C3HC2H6SCH3CH2C2H3CHCHPFeC4H2C2H3C2H2CSCPSH2C3H6SFeC5HSC2HFeC2SHC4HSC2H2C3SHC2FeH2CH2C2HC6HC2H6C2H2C3HFeCHSC2H2C2HCHC2HCHC3FeCPC2HC2H3C5FeH2CHFeC6H2CHC3H5C2HC2HCHCH2CHCSC2HC2H3CH3C2HCHC2HC2HCHPC2HCHCPC4H2CHSHSCPC4SHC2H4PHPCHCSH2C4SC3H2CHC2HCPC3H2CHCH4C3HC3H2C4HPHSHC4H2CHCH2CH2CH2C2HC2FeH2PH3SHC3H2CHCHCH3C3HCFeCHCHC4SCH3SHSHC2HC3H2C3HC2HCSCHCH4SCH2SH3C2SHSCSHSC6H3C4H9C3HCH2CHC2HCH2CH3C3H4C2HC5SHC2HC2SCFeCHCHCHSCSCHC3HC3HC4SC3SC3HCHC2HFePC3HCHCHCHFeCSHSC4HFeC2HPC3H3C13SH9PH2CH3C2HCHC4PC17HCFeH2FeH5C2H3CHCH3C5H7CHCHC2HC3H3CFeHCHFeH6C6H2SHC6H3CSH2C2H2FeCH2C2H2CSHC2HC3H4CH4C4H2C2HFeC3H2SHPHCH3C2HCH2C2HC4SPC10HC6H2FeH2CH5C4H2SCH2PC7H2C2H3CH2C2HC2HCHCH2C2PC3HC5H2C3HC3HC3H3SHCH2CH3CSCH2C2HC2H2C3HPFeHCH3CHSHC2H2CH2FeS2FeS2FeSFeS3FeS2FeS2FeSFeS3FeCSFeSCFeHFeS2FeS2HCH4C2HC6SHFeS2FeSHFeSH2SC2H2C4H5C2H2CHCHC2HCH2C3HCSH2C5H2CH3CHC4HCH4C6H4C6H4C5HC5H3C6H4PH2C7H2CH5C4HCHCHC3H3CH2C4HC2H2C2FeHC2HPC2H2C6HCHC2HPCH4C2HC6PC18H21CH2CHC2HC2HC5HC3SH4CH2CH2C2HC2H2CH2C2HCHC2HC3PC3HC3HC6H3C2HCPHCH3CPCHC5H3CHC5SC2H2CHCHC2HCPC2H2CHC4HC2HC3HC2H2CH3CHC2HCHC2H8CH2C2H2C7HCHCHSCHC2H2SHC3SC3HCSHCPHSC3H2C2H2CHSH3C2H2C3H5C2SHC2FeC5FeSFeC3FeSHFeS2FeSFeS3H4C3HC2HFeS2FeHFeS3C5H3C6HCSC2HCH2C6H4C2HC8H4C6H5CH2C2H2C2HC2H2CHSHCH2CFeSHCHC2H3C2H2SH2C2HCH3C2HCH2C2PC4H4C3HC3PHS2HCHC2H2CPCHCH3CHC2HC4HPC6HC10H4PH9CH7C5H2C2HCH5C2SC6HC5H3CHC2SHC2H3C3HCHFeCHC3H2CFeH4C2SC4HC2HCHC2H2C2FeS2FeS2FeSFeS3PH3CHFeS2FeS2FeSFeS3CSC2HFe2SCSFeSFeHSC3PH5C6H2C6H5C3H2C6H4C6H4CH4C2HCHC8H2C6PC18H12CH7SH2CHC2H2CHC3H3CH3C7HPH2C4HCPHCH2CHCH3C3HC2HC2HC6HC2SHSHCHSCH3CHC3HC2H2C6SH5PC3HCH2CHSH2CHC3HC4H2CHCHCHC3HC4FeH2CHC4HCHC3HC3H6C3H3C3H3CH4C3H2C2H2C2HC3H3C9H2C3PC5H3C2HCHC3HFeH3CHCH2CHC2SC2HC2H3C3H3CHC2HCHCHCH2CHCHCH2CHC3H2FeSCFeHFeSCFeS2FeS2FeSFeS3FeSCSH2SFeCSFeHSHS3CHCHC6HFeH2C6H5CSC3HSH2C6H4C4H4CHCH4SHCHCH3C4SCHSCHC6FeC2H5C6PHC10FeHSH6CH3CH2CHFeCH5CHSCPC15H14C3HC5H2CH2CH2C2HC6PC4SC13H2CH3CHCH11CHC2HSC2H3CH2SCHC2HC2HC3HSCHCHCHCH2CH2PCHC4HC2HCHC2FeH2C3H3CH3CFeS2FeS2FeSFeS3HFeSCFeS2FeSFeS3HFeS2FeS2FeSFeS3FeSCFeS2FeSFeCS2HC8H4C6PH3C6H4C6H5C9H4C6H4C4HCH2C8H4CPHC6PC18H20C2H3CH2C4H5CHC12H9C5HCPCH3C3H3CH4C6PHCHC4HCH6CH2C6HC2HCSHC4HCH5C7HCH5SHCH2C4H3CHPCHC5HCPH2CHCHC2H3C4H3SC7H2CH2C2HC3HC2H2CHC2HCHC2H2CH3C3H3C3HSPCHC2HCHCH2C2HC4HC3H6C2HCHCHC2H2C2HC3PH3CHC3H2SC2HC3HCHCH2C3HCH4C2H2CHC2H2C2HCH2C9H5C8HC2H2CHC5H4CHCH3CH4CHCH2CHCHFeS2FeS2Fe2S4FeS2FeS2FeSFeS3HFeS2FeSCFeSFeS3FeS2FeS2Fe2S3HC6H4C2HCH2CSHC7H4C6H4C5H3CHC6H4C6H4C4HCH2CH5C3H3CHCHSHC4H2C2HCH2C3H2CHC5H2C2HCH2CH3C5H3C2HC2HC6PC7HC6HCH5CH4CHCH3CH3CHCH2CHCH3CHC3H2CHC2PH2CHCHCH5C3H4C10HCH2CH3C2HC2HPC3PCH2CHC8HCH6CH2C3H6C2HCHC6PC18H20C6PC18H19CHC3HC5PC2H2CH4C2H2C2HCHCHC2HC3HC2HCHC2HCHPCHC2HC2SHCHC2SC2H3C2HC2H2FeHC2HC2H3C7H4C3H2C3HCPHC3H5CHCH2C2HCH4CHCH2CH3FeHCHC7HC6HCPHC4HCHC2H2CH2CSH3CH5CHC3FeS2FeS2FeSFeS3FeS2FeS2FeSFeS3HC2SC2H2CHCH2CFeH2C2HSFeCSH7C3H2CHCH2SHCHC8HCSHC6H4CHCHC2FeHCHC5H3CFeC6H4C2HC3HC2HC6H4CHC10H2CH7C4PC7SC8H2C2H6C6HC3HC3H4C11HC2HCSCPHCHC3FeC2H7SC2HCH2SCH2C2HC4H2CH3C2H3SCHCHC2H4C3HCHC3H2CHFeCH2C3HC2PC2PHC2HCHC2HC2PH2CHCSHCSCHPC4H2C2H2CH2C4H4SC2HCH3CH2C2HC4HCHC3HFeH2CH3PCHSCSCHC2H2SC2H4C2H2CPHC2HC3H3C3SC2H2CHC5HC3H2C3FeC3FeC2H2CH2C3H3C3HC2HCPHCSC4HFeHC2H2PCSCHC2SCHCH3CSCH2CH2C2H2C4SH4FeS2FeSFeHFeCS2CSHFeSCFe2SCS2FeSC3HC6H3C6H9CHCHCHCHCHSCHPHCSCHCSC2H2CH3FeCFeH2C2HC3HC3SCPCHCH3C2HCH2CH2CH2C2HCH2FeH2CH2C4H3CHSH4C9H2SH3C6H2C2HC6H3CSCH4C3HCHCHCHCHSCHCFeC2FeHSCHC2SH3PC9PC8H3C7HCH9CH11SHC3H3CSH2C5HC3HC2H3C7HCHC2HCHSH3SHC2H2C3HCHCFeH3CHCPCHC2H2C3H2C2HC4H2CH2C2HC2HCHC2H2C3HCSH4C3HC3HC2H2CHCHCH5CSFeS2CSHFeHFeSCSC2SFeS2FeS2FeSFeS3FeS2FeS2FeSFeS3HC2HCH2C3HC3H4CH4C2HC7H4C6FeH3C6H4C2H2C3HCHCHC2HC5H3C3FeH3CHCSH2C7H2CSH4CHC3HSFeCH3CHCHC2HC3HSCHC4H7CH2C3H2C4HC5SH3CHCH3C3HC4PHC4SHC2HFeHC3H3C3HC5HC6HCH4CHCHCHCHC4HCHCHC3HPC2HPCP2H2C7HC2H3CHCHCH2CH6CHCH3SC2HSC2HC6PC18H20C10H8CHC5SHC3HCH2SC3HC2HFeHCHCH4C2FeC2HC2HCHC2H2FeS2FeSCFeSFeS2HFeS2FeSHCFeSCSFeSHFeS2FeSFeS3C7SCHCH2C6H5PH2CHCH2CHC3H2CHCHC6H4C6H4C9H3CHPC6HFeCHCH5CHCHCH2C3HCHPC8HC3H4C2H2C6PC18H21C4PHCH3CH3CHCHCHC2HCHCHCHCH3C3HC3SH2CH3CS2H3C3PH2C2HC3H3C3H2CHCH2C4HC6HC6H4C2H5C2PC3H4C5H5SHPC2HCHCHSCH3CH2C2HC4SCFeS2FeS2FeCFeS3FeS2FeS2FeSFeS3FeS2FeSCFeSFeCSHFeS2FeS2FeSFeS3CHC5H3CHC6H2C2HCHCH3C8H4C6H4C4H2C6H4C6H9CH3C7H3CHC4H3C2H2C2HC2HC3HPH4C3HC3H3C3HC2HCH5C2SHSHCH3CHC3HCHCHC4PCHC3HCH2C2HCH2SC4H3CHC2HC2H2C3H2CHCH2CHCPC3H3C3HC3HCHC2HCHPCHCHC5HCHC2HC3H3C3H3C4H3C3HSC3H4CPCH2PC2H6C5HC2H4CHC3HCHC4H2C2HC2HCH3CH2C2HC7SH3CPC2HC3HC6HC2HCH3C3HCH6CHCPHCH3CHCHC3H2CHC2H3CHCHC3H2CHCH3C3HFeSCSFeSFeS3CHSFeSFeS2FeSFeS3CFeS2FeS2FeSFeS3FeS2Fe2S2HC7H4C2HC3H3C6H4C2H2C6H4C6H4C4H2C3H2CSC4HPCHC2HC14H2CH7C5PC6H11C9PC18H20C6PC16H18C6PC18H20C2HCH2C3HFeC2HCHCHCH2C4H3C2H5CH2C2HC8HFeC2FeH2C3H2CH3SC2H2C2SH2C2HC3HC3HC2HC4SC2HC3HC2HCHP2H2CH2CH3CHCH5C2H2C3HCHCH4SHCHCHSHC2H2CH2C2H2CHCH3C3HCH2CH2
_chemical_formula_sum              "Fe256 S512 C3840 H3072 P128"
_cell_length_a       82.3473
_cell_length_b       82.3803
_cell_length_c       82.2855
_cell_angle_alpha    74.8677
_cell_angle_beta     74.6112
_cell_angle_gamma    74.8712

_space_group_name_H-M_alt    "P 1"
_space_group_IT_number       1

loop_
  _space_group_symop_operation_xyz
  'x, y, z'

loop_
  _atom_site_type_symbol
  _atom_site_label
  _atom_site_symmetry_multiplicity
  _atom_site_fract_x
  _atom_site_fract_y
  _atom_site_fract_z
  _atom_site_occupancy
  Fe  Fe1       1.0  0.15624  0.13307  0.08737  1.0000
  S   S1        1.0  0.17530  0.14694  0.06793  1.0000
  S   S2        1.0  0.16688  0.10565  0.09814  1.0000
  Fe  Fe2       1.0  0.12767  0.16465  0.08538  1.0000
  S   S3        1.0  0.14462  0.18098  0.06573  1.0000
  S   S4        1.0  0.10003  0.17631  0.09472  1.0000
  Fe  Fe3       1.0  0.15405  0.15797  0.05334  1.0000
  S   S5        1.0  0.15855  0.15734  0.02510  1.0000
  Fe  Fe4       1.0  0.16373  0.16808  0.08274  1.0000
  S   S6        1.0  0.18072  0.18106  0.09044  1.0000
  S   S7        1.0  0.13578  0.14248  0.07196  1.0000
  S   S8        1.0  0.14606  0.15337  0.10315  1.0000
  C   C1        1.0  0.23499  0.19826  0.31457  1.0000
  H   H1        1.0  0.13178  0.00637  0.12823  1.0000
  S   S9        1.0  0.09828  0.13905  0.00290  1.0000
  H   H2        1.0  0.09863  0.15312  0.03112  1.0000
  C   C2        1.0  0.10472  0.99012  0.22515  1.0000
  H   H3        1.0  0.08642  0.10617  0.18658  1.0000
  Fe  Fe5       1.0  0.10507  0.04366  0.21533  1.0000
  S   S10       1.0  0.13104  0.03178  0.22154  1.0000
  S   S11       1.0  0.08162  0.03996  0.23616  1.0000
  Fe  Fe6       1.0  0.11989  0.05484  0.17767  1.0000
  S   S12       1.0  0.14695  0.04372  0.18089  1.0000
  S   S13       1.0  0.11252  0.06667  0.15207  1.0000
  Fe  Fe7       1.0  0.13668  0.02098  0.19790  1.0000
  Fe  Fe8       1.0  0.13902  0.05577  0.20414  1.0000
  S   S14       1.0  0.15873  0.06657  0.21082  1.0000
  S   S15       1.0  0.11013  0.03126  0.19287  1.0000
  S   S16       1.0  0.11241  0.06851  0.19979  1.0000
  H   H4        1.0  0.14474  0.20391  0.30927  1.0000
  H   H5        1.0  0.12191  0.16046  0.04002  1.0000
  Fe  Fe9       1.0  0.15683  0.19352  0.18942  1.0000
  S   S17       1.0  0.17731  0.18218  0.20508  1.0000
  S   S18       1.0  0.16399  0.20575  0.16112  1.0000
  Fe  Fe10      1.0  0.12785  0.18865  0.22060  1.0000
  S   S19       1.0  0.14613  0.17690  0.23847  1.0000
  S   S20       1.0  0.09934  0.19347  0.23244  1.0000
  Fe  Fe11      1.0  0.16097  0.19784  0.22460  1.0000
  S   S21       1.0  0.16813  0.21538  0.23869  1.0000
  Fe  Fe12      1.0  0.16091  0.16226  0.21767  1.0000
  S   S22       1.0  0.17331  0.13397  0.22419  1.0000
  S   S23       1.0  0.14142  0.21057  0.20797  1.0000
  S   S24       1.0  0.14157  0.17269  0.20081  1.0000
  Fe  Fe13      1.0  0.02386  0.12322  0.21041  1.0000
  S   S25       1.0  0.00801  0.14962  0.21063  1.0000
  S   S26       1.0  0.01790  0.10209  0.23307  1.0000
  Fe  Fe14      1.0  0.04470  0.13438  0.17521  1.0000
  S   S27       1.0  0.03021  0.16182  0.17230  1.0000
  S   S28       1.0  0.06776  0.12324  0.15700  1.0000
  Fe  Fe15      1.0  0.03282  0.15878  0.19948  1.0000
  S   S29       1.0  0.03663  0.18008  0.20987  1.0000
  Fe  Fe16      1.0  0.00676  0.15010  0.18368  1.0000
  S   S30       1.0  0.04879  0.13218  0.20163  1.0000
  S   S31       1.0  0.02117  0.12284  0.18421  1.0000
  C   C3        1.0  0.05504  0.18244  0.21561  1.0000
  C   C4        1.0  0.05236  0.19445  0.22581  1.0000
  C   C5        1.0  0.06612  0.19747  0.23072  1.0000
  C   C6        1.0  0.08296  0.18891  0.22515  1.0000
  C   C7        1.0  0.08592  0.17689  0.21474  1.0000
  C   C8        1.0  0.07189  0.17344  0.21019  1.0000
  H   H6        1.0  0.03947  0.20148  0.23003  1.0000
  H   H7        1.0  0.06369  0.20671  0.23876  1.0000
  H   H8        1.0  0.09890  0.17016  0.21041  1.0000
  H   H9        1.0  0.07414  0.16404  0.20238  1.0000
  H   H10       1.0  0.00886  0.11872  0.26655  1.0000
  C   C9        1.0  0.14241  0.21691  0.10623  1.0000
  C   C10       1.0  0.11281  0.18786  0.27499  1.0000
  C   C11       1.0  0.18302  0.22031  0.24838  1.0000
  C   C12       1.0  0.19993  0.21090  0.24785  1.0000
  C   C13       1.0  0.21123  0.21553  0.25540  1.0000
  H   H11       1.0  0.02773  0.14699  0.27049  1.0000
  C   C14       1.0  0.07639  0.00810  0.17687  1.0000
  H   H12       1.0  0.20438  0.20014  0.24145  1.0000
  H   H13       1.0  0.22427  0.20817  0.25470  1.0000
  C   C15       1.0  0.06411  0.05737  0.23488  1.0000
  C   C16       1.0  0.06406  0.07069  0.22028  1.0000
  C   C17       1.0  0.04984  0.08449  0.21962  1.0000
  C   C18       1.0  0.03571  0.08494  0.23356  1.0000
  C   C19       1.0  0.03573  0.07154  0.24805  1.0000
  C   C20       1.0  0.04991  0.05780  0.24872  1.0000
  H   H14       1.0  0.07489  0.07032  0.20947  1.0000
  H   H15       1.0  0.04981  0.09469  0.20827  1.0000
  H   H16       1.0  0.02483  0.07186  0.25883  1.0000
  H   H17       1.0  0.04995  0.04751  0.26001  1.0000
  C   C21       1.0  0.16137  0.08627  0.21388  1.0000
  C   C22       1.0  0.15078  0.10244  0.20930  1.0000
  C   C23       1.0  0.15424  0.11746  0.21201  1.0000
  C   C24       1.0  0.16818  0.11625  0.21945  1.0000
  C   C25       1.0  0.17859  0.10010  0.22387  1.0000
  C   C26       1.0  0.17528  0.08534  0.22106  1.0000
  H   H18       1.0  0.14005  0.10341  0.20360  1.0000
  H   H19       1.0  0.14611  0.12988  0.20851  1.0000
  H   H20       1.0  0.18935  0.09896  0.22959  1.0000
  H   H21       1.0  0.18356  0.07303  0.22462  1.0000
  H   H22       1.0  0.08300  0.10033  0.21814  1.0000
  C   C27       1.0  0.03916  0.02582  0.23521  1.0000
  H   H23       1.0  0.15098  0.20768  0.27385  1.0000
  H   H24       1.0  0.13032  0.00579  0.17249  1.0000
  C   C28       1.0  0.09097  0.16167  0.11205  1.0000
  C   C29       1.0  0.10070  0.14529  0.11713  1.0000
  C   C30       1.0  0.09333  0.13348  0.13083  1.0000
  C   C31       1.0  0.07628  0.13802  0.13946  1.0000
  C   C32       1.0  0.06646  0.15431  0.13424  1.0000
  C   C33       1.0  0.07384  0.16618  0.12056  1.0000
  H   H25       1.0  0.11381  0.14161  0.11041  1.0000
  H   H26       1.0  0.10090  0.12089  0.13489  1.0000
  H   H27       1.0  0.05322  0.15778  0.14067  1.0000
  H   H28       1.0  0.06629  0.17880  0.11655  1.0000
  C   C34       1.0  0.15156  0.09530  0.11318  1.0000
  C   C35       1.0  0.13428  0.09986  0.11195  1.0000
  C   C36       1.0  0.12237  0.09075  0.12376  1.0000
  C   C37       1.0  0.12763  0.07759  0.13712  1.0000
  C   C38       1.0  0.14485  0.07336  0.13846  1.0000
  C   C39       1.0  0.15685  0.08201  0.12638  1.0000
  H   H29       1.0  0.13016  0.11029  0.10185  1.0000
  H   H30       1.0  0.10899  0.09421  0.12291  1.0000
  H   H31       1.0  0.14896  0.06363  0.14888  1.0000
  H   H32       1.0  0.17015  0.07874  0.12756  1.0000
  C   C40       1.0  0.17676  0.18520  0.11141  1.0000
  C   C41       1.0  0.18660  0.19543  0.11401  1.0000
  C   C42       1.0  0.18290  0.20091  0.12959  1.0000
  C   C43       1.0  0.16959  0.19589  0.14309  1.0000
  C   C44       1.0  0.16007  0.18500  0.14091  1.0000
  C   C45       1.0  0.16363  0.17969  0.12505  1.0000
  H   H33       1.0  0.19670  0.19980  0.10362  1.0000
  H   H34       1.0  0.19016  0.20947  0.13103  1.0000
  H   H35       1.0  0.14946  0.18138  0.15109  1.0000
  H   H36       1.0  0.15582  0.17193  0.12321  1.0000
  C   C46       1.0  0.14175  0.15208  0.01915  1.0000
  C   C47       1.0  0.14536  0.14488  0.00458  1.0000
  C   C48       1.0  0.13214  0.14077  0.99948  1.0000
  C   C49       1.0  0.11523  0.14390  0.00891  1.0000
  C   C50       1.0  0.11168  0.15075  0.02370  1.0000
  C   C51       1.0  0.12487  0.15485  0.02880  1.0000
  H   H37       1.0  0.15843  0.14241  0.99732  1.0000
  C   C52       1.0  0.19459  0.19559  0.29660  1.0000
  C   C53       1.0  0.14206  0.11927  0.14427  1.0000
  C   C54       1.0  0.13588  0.10607  0.15700  1.0000
  C   C55       1.0  0.14614  0.09553  0.16832  1.0000
  C   C56       1.0  0.16277  0.09780  0.16661  1.0000
  C   C57       1.0  0.16935  0.11064  0.15348  1.0000
  C   C58       1.0  0.15870  0.12163  0.14255  1.0000
  P   P1        1.0  0.19124  0.11296  0.15049  1.0000
  C   C59       1.0  0.19243  0.12818  0.16214  1.0000
  C   C60       1.0  0.20419  0.09244  0.15844  1.0000
  C   C61       1.0  0.20350  0.08694  0.17624  1.0000
  C   C62       1.0  0.21355  0.07127  0.18272  1.0000
  C   C63       1.0  0.22438  0.06092  0.17149  1.0000
  C   C64       1.0  0.22512  0.06625  0.15377  1.0000
  C   C65       1.0  0.21509  0.08196  0.14724  1.0000
  C   C66       1.0  0.20808  0.12734  0.16647  1.0000
  C   C67       1.0  0.21015  0.14050  0.17303  1.0000
  C   C68       1.0  0.19674  0.15468  0.17507  1.0000
  C   C69       1.0  0.18105  0.15547  0.17109  1.0000
  C   C70       1.0  0.17884  0.14227  0.16465  1.0000
  C   C71       1.0  0.19905  0.12110  0.12782  1.0000
  C   C72       1.0  0.20525  0.13646  0.12227  1.0000
  C   C73       1.0  0.20996  0.14339  0.10471  1.0000
  C   C74       1.0  0.20863  0.13507  0.09251  1.0000
  C   C75       1.0  0.20256  0.11980  0.09787  1.0000
  C   C76       1.0  0.19759  0.11293  0.11544  1.0000
  H   H38       1.0  0.13411  0.12734  0.13542  1.0000
  H   H39       1.0  0.12327  0.10375  0.15790  1.0000
  H   H40       1.0  0.14130  0.08541  0.17831  1.0000
  H   H41       1.0  0.17040  0.08934  0.17550  1.0000
  H   H42       1.0  0.16337  0.13178  0.13244  1.0000
  H   H43       1.0  0.19507  0.09475  0.18517  1.0000
  H   H44       1.0  0.21274  0.06711  0.19650  1.0000
  H   H45       1.0  0.23207  0.04873  0.17656  1.0000
  H   H46       1.0  0.23351  0.05822  0.14508  1.0000
  H   H47       1.0  0.21600  0.08585  0.13350  1.0000
  H   H48       1.0  0.21891  0.11686  0.16420  1.0000
  H   H49       1.0  0.22228  0.13994  0.17617  1.0000
  H   H50       1.0  0.19863  0.16520  0.17944  1.0000
  H   H51       1.0  0.17078  0.16659  0.17255  1.0000
  H   H52       1.0  0.16680  0.14344  0.16103  1.0000
  H   H53       1.0  0.20592  0.14360  0.13130  1.0000
  H   H54       1.0  0.21394  0.15564  0.10054  1.0000
  H   H55       1.0  0.21171  0.14083  0.07893  1.0000
  H   H56       1.0  0.20092  0.11374  0.08839  1.0000
  H   H57       1.0  0.19203  0.10158  0.11936  1.0000
  C   C77       1.0  0.09801  0.11861  0.21761  1.0000
  C   C78       1.0  0.05162  0.01401  0.20942  1.0000
  H   H58       1.0  0.17887  0.07176  0.08723  1.0000
  H   H59       1.0  0.13315  0.21864  0.13265  1.0000
  C   C79       1.0  0.18593  0.18409  0.29432  1.0000
  H   H60       1.0  0.13007  0.02940  0.14343  1.0000
  C   C80       1.0  0.05190  0.13079  0.27536  1.0000
  C   C81       1.0  0.04573  0.14278  0.24697  1.0000
  C   C82       1.0  0.14249  0.02223  0.13793  1.0000
  C   C83       1.0  0.18869  0.04427  0.17514  1.0000
  H   H61       1.0  0.18238  0.18929  0.00020  1.0000
  C   C84       1.0  0.07513  0.19503  0.16124  1.0000
  H   H62       1.0  0.19403  0.11877  0.27931  1.0000
  C   C85       1.0  0.04052  0.14072  0.26485  1.0000
  H   H63       1.0  0.00119  0.20367  0.20306  1.0000
  C   C86       1.0  0.17832  0.14232  0.28643  1.0000
  C   C87       1.0  0.99322  0.08008  0.21274  1.0000
  C   C88       1.0  0.08935  0.00655  0.14696  1.0000
  H   H64       1.0  0.15526  0.21805  0.10606  1.0000
  C   C89       1.0  0.09991  0.21637  0.17383  1.0000
  C   C90       1.0  0.09095  0.19648  0.14977  1.0000
  H   H65       1.0  0.00222  0.19348  0.23386  1.0000
  C   C91       1.0  0.09764  0.16568  0.15156  1.0000
  C   C92       1.0  0.10948  0.21328  0.10682  1.0000
  C   C93       1.0  0.12893  0.08472  0.99453  1.0000
  H   H66       1.0  0.12436  0.16547  0.29111  1.0000
  C   C94       1.0  0.11541  0.18427  0.98581  1.0000
  C   C95       1.0  0.07052  0.17907  0.16758  1.0000
  H   H67       1.0  0.11009  0.18666  0.99871  1.0000
  H   H68       1.0  0.11966  0.20961  0.08083  1.0000
  C   C96       1.0  0.18487  0.05019  0.10763  1.0000
  H   H69       1.0  0.11943  0.99103  0.15637  1.0000
  H   H70       1.0  0.02163  0.05030  0.23206  1.0000
  H   H71       1.0  0.07788  0.15212  0.16754  1.0000
  C   C97       1.0  0.18626  0.01280  0.17012  1.0000
  C   C98       1.0  0.17373  0.01661  0.13274  1.0000
  H   H72       1.0  0.21221  0.01271  0.10180  1.0000
  C   C99       1.0  0.15950  0.99996  0.12257  1.0000
  H   H73       1.0  0.21613  0.99631  0.15522  1.0000
  C   C100      1.0  0.05138  0.23582  0.12274  1.0000
  H   H74       1.0  0.20034  0.13163  0.24804  1.0000
  H   H75       1.0  0.10296  0.12767  0.16799  1.0000
  C   C101      1.0  0.26299  0.19962  0.29583  1.0000
  C   C102      1.0  0.10228  0.18166  0.14507  1.0000
  C   C103      1.0  0.99252  0.19559  0.21143  1.0000
  H   H76       1.0  0.19339  0.17332  0.28854  1.0000
  H   H77       1.0  0.14903  0.21287  0.08026  1.0000
  C   C104      1.0  0.07561  0.14188  0.09123  1.0000
  C   C105      1.0  0.09169  0.13142  0.08677  1.0000
  C   C106      1.0  0.09429  0.11375  0.09344  1.0000
  C   C107      1.0  0.08072  0.10650  0.10448  1.0000
  C   C108      1.0  0.06451  0.11695  0.10921  1.0000
  C   C109      1.0  0.06207  0.13473  0.10238  1.0000
  P   P2        1.0  0.04636  0.10715  0.12093  1.0000
  C   C110      1.0  0.04843  0.09431  0.14211  1.0000
  C   C111      1.0  0.02730  0.12373  0.12450  1.0000
  C   C112      1.0  0.07673  0.23144  0.13453  1.0000
  H   H78       1.0  0.10242  0.18226  0.27459  1.0000
  C   C113      1.0  0.18886  0.13224  0.27478  1.0000
  C   C114      1.0  0.10235  0.22492  0.15645  1.0000
  C   C115      1.0  0.02639  0.13486  0.13519  1.0000
  C   C116      1.0  0.03355  0.09045  0.15416  1.0000
  C   C117      1.0  0.03459  0.08118  0.17084  1.0000
  C   C118      1.0  0.05046  0.07575  0.17572  1.0000
  C   C119      1.0  0.06529  0.07954  0.16389  1.0000
  C   C120      1.0  0.06435  0.08872  0.14713  1.0000
  C   C121      1.0  0.04388  0.09437  0.10726  1.0000
  C   C122      1.0  0.03831  0.07880  0.11429  1.0000
  C   C123      1.0  0.03629  0.06919  0.10348  1.0000
  C   C124      1.0  0.03990  0.07502  0.08561  1.0000
  C   C125      1.0  0.04552  0.09047  0.07851  1.0000
  C   C126      1.0  0.04742  0.10016  0.08927  1.0000
  H   H79       1.0  0.07378  0.15565  0.08629  1.0000
  H   H80       1.0  0.10211  0.13711  0.07824  1.0000
  H   H81       1.0  0.10684  0.10571  0.09000  1.0000
  H   H82       1.0  0.08281  0.09273  0.10918  1.0000
  H   H83       1.0  0.04975  0.14322  0.10543  1.0000
  H   H84       1.0  0.18682  0.99648  0.11845  1.0000
  C   C127      1.0  0.06227  0.13486  0.23957  1.0000
  H   H85       1.0  0.19209  0.21914  0.30465  1.0000
  H   H86       1.0  0.03702  0.13353  0.14122  1.0000
  H   H87       1.0  0.02105  0.09493  0.15077  1.0000
  H   H88       1.0  0.02303  0.07867  0.18011  1.0000
  H   H89       1.0  0.05127  0.06903  0.18880  1.0000
  H   H90       1.0  0.07746  0.07603  0.16791  1.0000
  H   H91       1.0  0.07595  0.09220  0.13867  1.0000
  H   H92       1.0  0.03543  0.07406  0.12808  1.0000
  H   H93       1.0  0.03184  0.05725  0.10898  1.0000
  H   H94       1.0  0.03832  0.06759  0.07725  1.0000
  C   C128      1.0  0.17762  0.23425  0.25689  1.0000
  H   H95       1.0  0.04834  0.09502  0.06465  1.0000
  C   C129      1.0  0.11677  0.06307  0.24671  1.0000
  C   C130      1.0  0.10340  0.05527  0.25724  1.0000
  C   C131      1.0  0.08730  0.06536  0.26262  1.0000
  C   C132      1.0  0.08467  0.08329  0.25785  1.0000
  C   C133      1.0  0.09821  0.09123  0.24759  1.0000
  C   C134      1.0  0.11400  0.08091  0.24143  1.0000
  P   P3        1.0  0.09511  0.11432  0.24071  1.0000
  C   C135      1.0  0.07365  0.12459  0.25002  1.0000
  C   C136      1.0  0.09239  0.11295  0.19231  1.0000
  C   C137      1.0  0.06845  0.12282  0.26797  1.0000
  C   C138      1.0  0.10981  0.12314  0.24718  1.0000
  C   C139      1.0  0.12508  0.11288  0.25190  1.0000
  C   C140      1.0  0.13636  0.12016  0.25643  1.0000
  C   C141      1.0  0.13241  0.13764  0.25660  1.0000
  C   C142      1.0  0.11715  0.14790  0.25222  1.0000
  C   C143      1.0  0.10594  0.14074  0.24743  1.0000
  H   H96       1.0  0.12923  0.05535  0.24228  1.0000
  H   H97       1.0  0.10531  0.04137  0.26067  1.0000
  H   H98       1.0  0.07672  0.05923  0.27006  1.0000
  H   H99       1.0  0.07194  0.09075  0.26176  1.0000
  H   H100      1.0  0.12422  0.08661  0.23242  1.0000
  H   H101      1.0  0.99344  0.13798  0.24480  1.0000
  H   H102      1.0  0.07721  0.11523  0.27621  1.0000
  H   H103      1.0  0.12865  0.09935  0.25193  1.0000
  H   H104      1.0  0.14847  0.11233  0.25928  1.0000
  H   H105      1.0  0.14141  0.14325  0.25976  1.0000
  H   H106      1.0  0.11415  0.16152  0.25213  1.0000
  H   H107      1.0  0.09436  0.14903  0.24372  1.0000
  C   C144      1.0  0.01324  0.12550  0.11707  1.0000
  C   C145      1.0  0.10177  0.12510  0.18180  1.0000
  H   H108      1.0  0.18143  0.00505  0.19781  1.0000
  C   C146      1.0  0.17559  0.16697  0.26290  1.0000
  H   H109      1.0  0.08517  0.01120  0.21687  1.0000
  H   H110      1.0  0.11339  0.13786  0.21237  1.0000
  C   C147      1.0  0.21451  0.06254  0.10403  1.0000
  C   C148      1.0  0.09048  0.10970  0.21016  1.0000
  C   C149      1.0  0.17107  0.15964  0.28045  1.0000
  C   C150      1.0  0.21850  0.00437  0.11190  1.0000
  H   H111      1.0  0.09738  0.02946  0.13067  1.0000
  H   H112      1.0  0.11666  0.14343  0.18088  1.0000
  H   H113      1.0  0.05730  0.00194  0.23464  1.0000
  C   C151      1.0  0.24553  0.19988  0.29806  1.0000
  C   C152      1.0  0.13676  0.05572  0.01042  1.0000
  C   C153      1.0  0.12746  0.06085  0.02579  1.0000
  C   C154      1.0  0.11820  0.07783  0.02552  1.0000
  C   C155      1.0  0.11943  0.08984  0.00983  1.0000
  P   P4        1.0  0.10695  0.08477  0.04539  1.0000
  C   C156      1.0  0.08957  0.10289  0.04157  1.0000
  C   C157      1.0  0.09630  0.06896  0.06117  1.0000
  C   C158      1.0  0.09201  0.05579  0.05625  1.0000
  C   C159      1.0  0.08342  0.04387  0.06863  1.0000
  C   C160      1.0  0.07877  0.04523  0.08593  1.0000
  C   C161      1.0  0.08242  0.05869  0.09081  1.0000
  C   C162      1.0  0.09093  0.07064  0.07844  1.0000
  C   C163      1.0  0.08597  0.11654  0.05008  1.0000
  C   C164      1.0  0.07205  0.13021  0.04761  1.0000
  C   C165      1.0  0.06163  0.13034  0.03663  1.0000
  C   C166      1.0  0.06501  0.11669  0.02827  1.0000
  C   C167      1.0  0.07886  0.10293  0.03082  1.0000
  C   C168      1.0  0.12290  0.09055  0.05298  1.0000
  C   C169      1.0  0.12959  0.10515  0.04384  1.0000
  C   C170      1.0  0.14227  0.10962  0.04921  1.0000
  C   C171      1.0  0.14831  0.09963  0.06376  1.0000
  C   C172      1.0  0.14190  0.08496  0.07283  1.0000
  C   C173      1.0  0.12946  0.08022  0.06730  1.0000
  C   C174      1.0  0.10937  0.13399  0.18908  1.0000
  C   C175      1.0  0.07883  0.02503  0.17334  1.0000
  C   C176      1.0  0.12965  0.21752  0.12127  1.0000
  H   H114      1.0  0.12754  0.05161  0.03785  1.0000
  H   H115      1.0  0.11317  0.10321  0.00935  1.0000
  H   H116      1.0  0.09506  0.05481  0.04286  1.0000
  H   H117      1.0  0.08026  0.03364  0.06479  1.0000
  H   H118      1.0  0.01112  0.15639  0.14638  1.0000
  H   H119      1.0  0.05822  0.17807  0.17624  1.0000
  H   H120      1.0  0.09330  0.08125  0.08230  1.0000
  H   H121      1.0  0.09403  0.11680  0.05838  1.0000
  H   H122      1.0  0.06963  0.14094  0.05383  1.0000
  H   H123      1.0  0.05122  0.14122  0.03423  1.0000
  H   H124      1.0  0.05722  0.11704  0.01939  1.0000
  H   H125      1.0  0.08140  0.09254  0.02412  1.0000
  H   H126      1.0  0.12504  0.11306  0.03252  1.0000
  H   H127      1.0  0.14739  0.12092  0.04213  1.0000
  H   H128      1.0  0.15800  0.10331  0.06794  1.0000
  H   H129      1.0  0.14661  0.07730  0.08417  1.0000
  H   H130      1.0  0.12514  0.06849  0.07418  1.0000
  C   C177      1.0  0.16788  0.18690  0.29891  1.0000
  C   C178      1.0  0.99791  0.14959  0.13062  1.0000
  H   H131      1.0  0.22587  0.06748  0.10271  1.0000
  H   H132      1.0  0.20485  0.08282  0.08419  1.0000
  C   C179      1.0  0.12240  0.21222  0.09197  1.0000
  C   C180      1.0  0.10747  0.13080  0.20696  1.0000
  H   H133      1.0  0.06614  0.13703  0.22569  1.0000
  C   C181      1.0  0.11290  0.21619  0.12154  1.0000
  H   H134      1.0  0.24008  0.20167  0.28693  1.0000
  C   C182      1.0  0.15755  0.02570  0.13977  1.0000
  C   C183      1.0  0.08173  0.16440  0.16276  1.0000
  H   H135      1.0  0.01343  0.11697  0.10900  1.0000
  H   H136      1.0  0.11454  0.18239  0.13620  1.0000
  C   C184      1.0  0.23330  0.99205  0.10755  1.0000
  C   C185      1.0  0.03030  0.04077  0.20850  1.0000
  C   C186      1.0  0.20588  0.22958  0.26376  1.0000
  P   P5        1.0  0.15648  0.17270  0.29499  1.0000
  H   H137      1.0  0.18373  0.03296  0.20223  1.0000
  H   H138      1.0  0.07530  0.03223  0.18349  1.0000
  H   H139      1.0  0.10622  0.15438  0.14751  1.0000
  H   H140      1.0  0.07209  0.03601  0.09550  1.0000
  C   C187      1.0  0.18621  0.15690  0.25132  1.0000
  C   C188      1.0  0.12537  0.17838  0.28436  1.0000
  H   H141      1.0  0.20845  0.19376  0.29238  1.0000
  C   C189      1.0  0.14346  0.00932  0.12936  1.0000
  H   H142      1.0  0.99417  0.11391  0.29746  1.0000
  H   H143      1.0  0.12899  0.22403  0.25741  1.0000
  H   H144      1.0  0.18444  0.00078  0.16853  1.0000
  H   H145      1.0  0.04195  0.02879  0.18676  1.0000
  H   H146      1.0  0.10303  0.21560  0.19919  1.0000
  H   H147      1.0  0.17073  0.18044  0.25808  1.0000
  H   H148      1.0  0.10460  0.21145  0.25770  1.0000
  H   H149      1.0  0.05157  0.11223  0.08351  1.0000
  C   C190      1.0  0.18534  0.20994  0.30349  1.0000
  H   H150      1.0  0.03704  0.15068  0.23876  1.0000
  C   C191      1.0  0.02953  0.03995  0.22586  1.0000
  H   H151      1.0  0.06626  0.20627  0.16519  1.0000
  H   H152      1.0  0.07844  0.06003  0.10413  1.0000
  C   C192      1.0  0.18810  0.06484  0.09519  1.0000
  C   C193      1.0  0.19080  0.04187  0.15843  1.0000
  C   C194      1.0  0.22054  0.99521  0.14189  1.0000
  P   P6        1.0  0.09602  0.21742  0.14069  1.0000
  H   H153      1.0  0.15657  0.03560  0.14656  1.0000
  H   H154      1.0  0.18922  0.16252  0.23770  1.0000
  H   H155      1.0  0.23833  0.99095  0.09421  1.0000
  C   C195      1.0  0.14758  0.15946  0.31506  1.0000
  H   H156      1.0  0.14362  0.04254  0.01060  1.0000
  C   C196      1.0  0.19259  0.13948  0.25719  1.0000
  H   H157      1.0  0.17315  0.04593  0.10891  1.0000
  H   H158      1.0  0.22070  0.04113  0.12438  1.0000
  C   C197      1.0  0.20278  0.07112  0.09351  1.0000
  C   C198      1.0  0.10483  0.22232  0.18585  1.0000
  C   C199      1.0  0.04995  0.01275  0.22712  1.0000
  H   H159      1.0  0.18845  0.05677  0.17725  1.0000
  H   H160      1.0  0.19246  0.05268  0.14783  1.0000
  C   C200      1.0  0.06636  0.22519  0.12748  1.0000
  P   P7        1.0  0.06692  0.99816  0.19841  1.0000
  C   C201      1.0  0.19653  0.04155  0.11836  1.0000
  C   C202      1.0  0.21150  0.04770  0.11631  1.0000
  P   P8        1.0  0.19296  0.02233  0.13427  1.0000
  C   C203      1.0  0.08217  0.99875  0.16367  1.0000
  H   H161      1.0  0.04794  0.12935  0.28921  1.0000
  C   C204      1.0  0.04128  0.02784  0.20029  1.0000
  C   C205      1.0  0.18998  0.02593  0.15575  1.0000
  C   C206      1.0  0.17461  0.00372  0.12405  1.0000
  C   C207      1.0  0.21190  0.00598  0.12914  1.0000
  C   C208      1.0  0.13237  0.99195  0.17544  1.0000
  H   H162      1.0  0.00514  0.08303  0.21332  1.0000
  C   C209      1.0  0.18588  0.03085  0.18928  1.0000
  C   C210      1.0  0.18456  0.01515  0.18677  1.0000
  C   C211      1.0  0.12766  0.21148  0.26535  1.0000
  C   C212      1.0  0.13887  0.21408  0.09164  1.0000
  H   H163      1.0  0.09700  0.21132  0.10683  1.0000
  C   C213      1.0  0.14185  0.14486  0.31488  1.0000
  H   H164      1.0  0.09439  0.20502  0.17824  1.0000
  C   C214      1.0  0.13915  0.18546  0.28444  1.0000
  C   C215      1.0  0.15868  0.20132  0.30594  1.0000
  C   C216      1.0  0.13737  0.06763  0.99477  1.0000
  H   H165      1.0  0.02259  0.05156  0.20136  1.0000
  H   H166      1.0  0.08825  0.04573  0.15414  1.0000
  C   C217      1.0  0.09141  0.02353  0.14348  1.0000
  C   C218      1.0  0.08624  0.03272  0.15669  1.0000
  H   H167      1.0  0.13493  0.13514  0.98834  1.0000
  C   C219      1.0  0.11399  0.20438  0.26545  1.0000
  C   C220      1.0  0.14018  0.20209  0.27476  1.0000
  H   H168      1.0  0.14288  0.14127  0.30283  1.0000
  C   C221      1.0  0.18094  0.19350  0.98692  1.0000
  H   H169      1.0  0.99236  0.12704  0.16894  1.0000
  H   H170      1.0  0.17114  0.17156  0.98778  1.0000
  C   C222      1.0  0.99856  0.13837  0.12022  1.0000
  H   H171      1.0  0.17583  0.13652  0.29999  1.0000
  H   H172      1.0  0.27103  0.20127  0.28299  1.0000
  C   C223      1.0  0.16740  0.21279  0.30818  1.0000
  H   H173      1.0  0.04350  0.23085  0.11732  1.0000
  C   C224      1.0  0.01182  0.14784  0.13808  1.0000
  H   H174      1.0  0.30345  0.22406  0.31477  1.0000
  H   H175      1.0  0.03862  0.02519  0.24866  1.0000
  C   C225      1.0  0.99311  0.18978  0.22884  1.0000
  H   H176      1.0  0.06976  0.21203  0.12572  1.0000
  S   S32       1.0  0.15001  0.99305  0.19886  1.0000
  H   H177      1.0  0.16023  0.22417  0.31310  1.0000
  S   S33       1.0  0.22086  0.23456  0.27330  1.0000
  H   H178      1.0  0.14102  0.18395  0.98699  1.0000
  H   H179      1.0  0.26274  0.22886  0.25387  1.0000
  H   H180      1.0  0.29055  0.23330  0.25666  1.0000
  H   H181      1.0  0.04762  0.99561  0.17407  1.0000
  H   H182      1.0  0.99199  0.09666  0.18791  1.0000
  H   H183      1.0  0.09390  0.99914  0.13693  1.0000
  H   H184      1.0  0.22146  0.19866  0.31595  1.0000
  C   C226      1.0  0.09087  0.99775  0.21704  1.0000
  C   C227      1.0  0.99563  0.12523  0.27054  1.0000
  H   H185      1.0  0.16018  0.98974  0.11623  1.0000
  H   H186      1.0  0.10961  0.99771  0.23099  1.0000
  H   H187      1.0  0.28353  0.19746  0.30835  1.0000
  C   C228      1.0  0.08461  0.98814  0.20916  1.0000
  C   C229      1.0  0.27000  0.19749  0.31014  1.0000
  H   H188      1.0  0.45488  0.22915  0.37446  1.0000
  H   H189      1.0  0.31628  0.23058  0.33529  1.0000
  H   H190      1.0  0.33112  0.22492  0.43033  1.0000
  H   H191      1.0  0.22669  0.23273  0.38795  1.0000
  H   H192      1.0  0.13041  0.12346  0.33001  1.0000
  C   C230      1.0  0.23346  0.22115  0.38320  1.0000
  H   H193      1.0  0.35819  0.22600  0.40829  1.0000
  C   C231      1.0  0.17348  0.22466  0.34554  1.0000
  H   H194      1.0  0.25761  0.17938  0.36690  1.0000
  H   H195      1.0  0.25305  0.21574  0.39778  1.0000
  H   H196      1.0  0.15059  0.17463  0.33163  1.0000
  H   H197      1.0  0.19371  0.18457  0.36215  1.0000
  H   H198      1.0  0.35355  0.19806  0.60474  1.0000
  C   C232      1.0  0.48547  0.21037  0.34341  1.0000
  C   C233      1.0  0.42447  0.22837  0.64117  1.0000
  H   H199      1.0  0.16472  0.20141  0.35944  1.0000
  H   H200      1.0  0.32645  0.21971  0.38774  1.0000
  C   C234      1.0  0.22720  0.13630  0.37182  1.0000
  P   P9        1.0  0.22812  0.19378  0.35036  1.0000
  H   H201      1.0  0.21565  0.22367  0.36756  1.0000
  H   H202      1.0  0.22700  0.12280  0.37692  1.0000
  C   C235      1.0  0.14624  0.16358  0.33097  1.0000
  H   H203      1.0  0.26526  0.19444  0.33746  1.0000
  C   C236      1.0  0.28020  0.21165  0.42150  1.0000
  C   C237      1.0  0.28646  0.20378  0.40730  1.0000
  H   H204      1.0  0.27539  0.20435  0.43410  1.0000
  C   C238      1.0  0.13919  0.15335  0.34636  1.0000
  C   C239      1.0  0.22269  0.14770  0.38300  1.0000
  C   C240      1.0  0.36020  0.22966  0.35576  1.0000
  C   C241      1.0  0.23606  0.20101  0.36522  1.0000
  H   H205      1.0  0.28658  0.19028  0.40890  1.0000
  C   C242      1.0  0.29258  0.21334  0.39106  1.0000
  C   C243      1.0  0.22300  0.16511  0.37644  1.0000
  H   H206      1.0  0.29738  0.20713  0.38013  1.0000
  H   H207      1.0  0.47182  0.21104  0.34840  1.0000
  C   C244      1.0  0.20418  0.22290  0.33993  1.0000
  C   C245      1.0  0.22789  0.17124  0.35862  1.0000
  H   H208      1.0  0.31688  0.23009  0.48802  1.0000
  H   H209      1.0  0.42529  0.22518  0.62896  1.0000
  C   C246      1.0  0.17577  0.20738  0.35395  1.0000
  C   C247      1.0  0.25705  0.19651  0.38280  1.0000
  C   C248      1.0  0.13346  0.13892  0.34602  1.0000
  H   H210      1.0  0.21896  0.14304  0.39677  1.0000
  C   C249      1.0  0.25086  0.19119  0.37120  1.0000
  C   C250      1.0  0.25951  0.19583  0.32669  1.0000
  H   H211      1.0  0.35808  0.21313  0.38089  1.0000
  H   H212      1.0  0.13812  0.15664  0.35857  1.0000
  C   C251      1.0  0.34555  0.21085  0.60306  1.0000
  C   C252      1.0  0.24187  0.19629  0.32904  1.0000
  H   H213      1.0  0.21936  0.17381  0.38527  1.0000
  H   H214      1.0  0.12796  0.13104  0.35795  1.0000
  C   C253      1.0  0.23228  0.15973  0.34745  1.0000
  C   C254      1.0  0.23196  0.14232  0.35406  1.0000
  C   C255      1.0  0.29032  0.23265  0.48789  1.0000
  H   H215      1.0  0.37414  0.22703  0.35300  1.0000
  H   H216      1.0  0.29109  0.21893  0.49048  1.0000
  C   C256      1.0  0.20663  0.20562  0.34851  1.0000
  C   C257      1.0  0.22729  0.21595  0.37151  1.0000
  C   C258      1.0  0.35818  0.23326  0.45184  1.0000
  C   C259      1.0  0.32897  0.21333  0.60024  1.0000
  C   C260      1.0  0.19228  0.19787  0.35549  1.0000
  C   C261      1.0  0.24835  0.21152  0.38879  1.0000
  C   C262      1.0  0.35113  0.22179  0.37146  1.0000
  H   H217      1.0  0.26855  0.18897  0.38720  1.0000
  H   H218      1.0  0.49021  0.18376  0.34186  1.0000
  C   C263      1.0  0.35185  0.22489  0.60357  1.0000
  C   C264      1.0  0.37378  0.23461  0.45455  1.0000
  H   H219      1.0  0.32407  0.20248  0.59982  1.0000
  H   H220      1.0  0.23544  0.13348  0.34539  1.0000
  C   C265      1.0  0.31873  0.22986  0.59782  1.0000
  H   H221      1.0  0.23596  0.16409  0.33365  1.0000
  C   C266      1.0  0.27755  0.22919  0.32952  1.0000
  H   H222      1.0  0.16068  0.23211  0.34457  1.0000
  C   C267      1.0  0.13482  0.13467  0.33029  1.0000
  C   C268      1.0  0.29532  0.22758  0.32656  1.0000
  H   H223      1.0  0.42367  0.23054  0.37892  1.0000
  C   C269      1.0  0.33312  0.22562  0.37529  1.0000
  H   H224      1.0  0.21502  0.22915  0.33465  1.0000
  H   H225      1.0  0.35813  0.22545  0.44311  1.0000
  H   H226      1.0  0.30593  0.23193  0.59546  1.0000
  H   H227      1.0  0.38582  0.22774  0.44802  1.0000
  H   H228      1.0  0.27575  0.23504  0.43057  1.0000
  C   C270      1.0  0.28039  0.22895  0.41953  1.0000
  C   C271      1.0  0.30253  0.23155  0.33822  1.0000
  C   C272      1.0  0.29274  0.23077  0.38902  1.0000
  H   H229      1.0  0.27207  0.22703  0.31992  1.0000
  H   H230      1.0  0.36480  0.22287  0.60549  1.0000
  C   C273      1.0  0.26694  0.23412  0.34447  1.0000
  H   H231      1.0  0.35061  0.23625  0.63492  1.0000
  C   C274      1.0  0.18770  0.23240  0.33852  1.0000
  H   H232      1.0  0.25310  0.23555  0.34666  1.0000
  C   C275      1.0  0.44818  0.23628  0.36426  1.0000
  H   H233      1.0  0.44158  0.14883  0.71497  1.0000
  H   H234      1.0  0.14131  0.17766  0.75812  1.0000
  H   H235      1.0  0.17888  0.08324  0.74978  1.0000
  Fe  Fe17      1.0  0.02728  0.11332  0.85892  1.0000
  S   S34       1.0  0.02659  0.12779  0.83185  1.0000
  S   S35       1.0  0.03258  0.08460  0.86772  1.0000
  Fe  Fe18      1.0  0.02057  0.14570  0.87270  1.0000
  S   S36       1.0  0.01978  0.16309  0.84671  1.0000
  S   S37       1.0  0.01352  0.15576  0.89711  1.0000
  H   H236      1.0  0.99464  0.21961  0.88160  1.0000
  Fe  Fe19      1.0  0.04258  0.14359  0.83693  1.0000
  S   S38       1.0  0.06675  0.14694  0.81664  1.0000
  H   H237      1.0  0.02399  0.20322  0.83496  1.0000
  S   S39       1.0  0.04473  0.12776  0.86328  1.0000
  Fe  Fe20      1.0  0.13269  0.03752  0.87967  1.0000
  S   S40       1.0  0.15958  0.02326  0.87121  1.0000
  S   S41       1.0  0.11927  0.03984  0.90690  1.0000
  Fe  Fe21      1.0  0.12558  0.04553  0.84388  1.0000
  S   S42       1.0  0.15191  0.03228  0.83234  1.0000
  S   S43       1.0  0.10691  0.05747  0.82665  1.0000
  Fe  Fe22      1.0  0.14803  0.01173  0.85615  1.0000
  Fe  Fe23      1.0  0.16080  0.04539  0.84819  1.0000
  S   S44       1.0  0.18382  0.05817  0.83743  1.0000
  S   S45       1.0  0.12100  0.02421  0.86653  1.0000
  S   S46       1.0  0.13467  0.06031  0.85787  1.0000
  Fe  Fe24      1.0  0.07875  0.12648  0.95568  1.0000
  S   S47       1.0  0.09986  0.12557  0.93201  1.0000
  S   S48       1.0  0.05158  0.12352  0.95909  1.0000
  Fe  Fe25      1.0  0.10526  0.14835  0.93814  1.0000
  S   S49       1.0  0.10880  0.17212  0.91784  1.0000
  Fe  Fe26      1.0  0.11669  0.11030  0.95057  1.0000
  H   H238      1.0  0.36798  0.23252  0.65626  1.0000
  H   H239      1.0  0.39196  0.18200  0.71363  1.0000
  H   H240      1.0  0.19710  0.15822  0.96217  1.0000
  C   C276      1.0  0.13829  0.13313  0.87332  1.0000
  H   H241      1.0  0.07814  0.21219  0.84645  1.0000
  H   H242      1.0  0.11935  0.10027  0.89806  1.0000
  H   H243      1.0  0.06162  0.07893  0.88685  1.0000
  C   C277      1.0  0.39847  0.21883  0.72493  1.0000
  S   S50       1.0  0.13797  0.08756  0.94527  1.0000
  H   H244      1.0  0.13320  0.00207  0.83169  1.0000
  H   H245      1.0  0.04688  0.17178  0.95140  1.0000
  Fe  Fe27      1.0  0.14325  0.18470  0.81281  1.0000
  S   S51       1.0  0.15865  0.19799  0.82197  1.0000
  S   S52       1.0  0.11493  0.19644  0.81476  1.0000
  Fe  Fe28      1.0  0.17409  0.15694  0.80327  1.0000
  S   S53       1.0  0.19202  0.16810  0.81136  1.0000
  S   S54       1.0  0.18552  0.13319  0.79193  1.0000
  Fe  Fe29      1.0  0.17058  0.17158  0.83423  1.0000
  S   S55       1.0  0.17684  0.16438  0.86045  1.0000
  Fe  Fe30      1.0  0.17893  0.19376  0.79820  1.0000
  S   S56       1.0  0.19290  0.21595  0.78620  1.0000
  S   S57       1.0  0.15350  0.15841  0.82726  1.0000
  S   S58       1.0  0.16254  0.18244  0.78795  1.0000
  C   C278      1.0  0.06773  0.07767  0.96766  1.0000
  C   C279      1.0  0.39439  0.22859  0.73759  1.0000
  C   C280      1.0  0.20830  0.21070  0.75315  1.0000
  C   C281      1.0  0.20801  0.21850  0.76642  1.0000
  H   H246      1.0  0.11937  0.99198  0.81380  1.0000
  C   C282      1.0  0.04210  0.04015  0.80734  1.0000
  C   C283      1.0  0.17452  0.18345  0.97982  1.0000
  H   H247      1.0  0.19905  0.20289  0.75492  1.0000
  H   H248      1.0  0.16351  0.11384  0.96940  1.0000
  H   H249      1.0  0.20175  0.04268  0.91987  1.0000
  C   C284      1.0  0.12766  0.16942  0.90194  1.0000
  C   C285      1.0  0.14218  0.15691  0.90541  1.0000
  C   C286      1.0  0.15737  0.15554  0.89265  1.0000
  C   C287      1.0  0.15784  0.16621  0.87629  1.0000
  C   C288      1.0  0.14322  0.17845  0.87274  1.0000
  C   C289      1.0  0.12826  0.18029  0.88567  1.0000
  H   H250      1.0  0.14180  0.14854  0.91797  1.0000
  H   H251      1.0  0.16873  0.14616  0.89537  1.0000
  H   H252      1.0  0.14353  0.18679  0.86015  1.0000
  H   H253      1.0  0.11712  0.19009  0.88304  1.0000
  C   C290      1.0  0.12519  0.05429  0.91559  1.0000
  C   C291      1.0  0.14198  0.05171  0.91791  1.0000
  C   C292      1.0  0.14584  0.06195  0.92707  1.0000
  C   C293      1.0  0.13300  0.07494  0.93369  1.0000
  C   C294      1.0  0.11631  0.07768  0.93110  1.0000
  C   C295      1.0  0.11247  0.06737  0.92205  1.0000
  H   H254      1.0  0.15182  0.04147  0.91315  1.0000
  H   H255      1.0  0.15877  0.05979  0.92904  1.0000
  H   H256      1.0  0.10626  0.08752  0.93629  1.0000
  H   H257      1.0  0.09956  0.06944  0.92016  1.0000
  C   C296      1.0  0.18154  0.07920  0.82455  1.0000
  C   C297      1.0  0.17296  0.09369  0.83168  1.0000
  C   C298      1.0  0.17421  0.11036  0.82191  1.0000
  C   C299      1.0  0.18329  0.11266  0.80475  1.0000
  C   C300      1.0  0.19128  0.09820  0.79751  1.0000
  C   C301      1.0  0.19085  0.08160  0.80749  1.0000
  H   H258      1.0  0.16607  0.09204  0.84496  1.0000
  H   H259      1.0  0.16839  0.12138  0.82776  1.0000
  H   H260      1.0  0.19820  0.09981  0.78424  1.0000
  H   H261      1.0  0.19781  0.07054  0.80198  1.0000
  C   C302      1.0  0.02479  0.14454  0.91350  1.0000
  C   C303      1.0  0.01537  0.14072  0.93038  1.0000
  C   C304      1.0  0.02382  0.13364  0.94411  1.0000
  C   C305      1.0  0.04173  0.13117  0.94121  1.0000
  C   C306      1.0  0.05124  0.13505  0.92436  1.0000
  C   C307      1.0  0.04281  0.14128  0.91043  1.0000
  S   S59       1.0  0.24758  0.22620  0.71534  1.0000
  H   H262      1.0  0.01640  0.13069  0.95709  1.0000
  H   H263      1.0  0.06503  0.13352  0.92210  1.0000
  H   H264      1.0  0.05018  0.14443  0.89748  1.0000
  C   C308      1.0  0.05285  0.07630  0.85606  1.0000
  C   C309      1.0  0.06255  0.06050  0.86288  1.0000
  C   C310      1.0  0.07931  0.05458  0.85402  1.0000
  C   C311      1.0  0.08601  0.06417  0.83802  1.0000
  C   C312      1.0  0.07591  0.07943  0.83086  1.0000
  C   C313      1.0  0.05955  0.08569  0.84001  1.0000
  H   H265      1.0  0.05729  0.05315  0.87522  1.0000
  H   H266      1.0  0.08693  0.04258  0.85947  1.0000
  H   H267      1.0  0.08094  0.08668  0.81840  1.0000
  H   H268      1.0  0.05213  0.09776  0.83455  1.0000
  C   C314      1.0  0.07983  0.16067  0.81689  1.0000
  C   C315      1.0  0.07274  0.17714  0.82021  1.0000
  C   C316      1.0  0.08360  0.18813  0.81936  1.0000
  C   C317      1.0  0.10157  0.18260  0.81539  1.0000
  C   C318      1.0  0.10864  0.16616  0.81198  1.0000
  C   C319      1.0  0.09776  0.15532  0.81261  1.0000
  H   H269      1.0  0.05892  0.18146  0.82301  1.0000
  H   H270      1.0  0.07809  0.20093  0.82172  1.0000
  H   H271      1.0  0.12245  0.16181  0.80877  1.0000
  H   H272      1.0  0.10324  0.14265  0.80997  1.0000
  P   P10       1.0  0.05706  0.19744  0.87894  1.0000
  H   H273      1.0  0.08354  0.05170  0.90543  1.0000
  H   H274      1.0  0.04998  0.09220  0.95162  1.0000
  C   C320      1.0  0.06244  0.22805  0.88323  1.0000
  C   C321      1.0  0.03912  0.18252  0.91093  1.0000
  H   H275      1.0  0.07681  0.09840  0.86348  1.0000
  H   H276      1.0  0.10940  0.05054  0.79299  1.0000
  C   C322      1.0  0.17025  0.22764  0.73577  1.0000
  H   H277      1.0  0.02847  0.06505  0.84446  1.0000
  C   C323      1.0  0.21544  0.11539  0.82905  1.0000
  H   H278      1.0  0.09040  0.11876  0.87020  1.0000
  C   C324      1.0  0.11264  0.09735  0.84139  1.0000
  C   C325      1.0  0.12128  0.10609  0.84766  1.0000
  C   C326      1.0  0.13136  0.11720  0.83620  1.0000
  C   C327      1.0  0.11449  0.09929  0.82372  1.0000
  H   H279      1.0  0.10513  0.08838  0.85014  1.0000
  H   H280      1.0  0.12044  0.10391  0.86135  1.0000
  H   H281      1.0  0.13802  0.12400  0.84108  1.0000
  C   C328      1.0  0.35030  0.21888  0.68999  1.0000
  C   C329      1.0  0.06688  0.08751  0.90726  1.0000
  C   C330      1.0  0.18524  0.07531  0.88965  1.0000
  C   C331      1.0  0.09040  0.03501  0.80513  1.0000
  H   H282      1.0  0.25118  0.18693  0.73974  1.0000
  C   C332      1.0  0.08282  0.11044  0.89764  1.0000
  C   C333      1.0  0.05637  0.05435  0.91711  1.0000
  H   H283      1.0  0.10820  0.09196  0.81913  1.0000
  C   C334      1.0  0.19937  0.12108  0.85689  1.0000
  C   C335      1.0  0.02336  0.20522  0.84765  1.0000
  C   C336      1.0  0.23217  0.22384  0.73494  1.0000
  C   C337      1.0  0.21988  0.22892  0.76390  1.0000
  C   C338      1.0  0.21940  0.17248  0.72336  1.0000
  C   C339      1.0  0.26115  0.12176  0.75473  1.0000
  C   C340      1.0  0.07255  0.00768  0.84289  1.0000
  C   C341      1.0  0.15713  0.09511  0.76706  1.0000
  H   H284      1.0  0.03194  0.02661  0.91738  1.0000
  C   C342      1.0  0.03760  0.20284  0.87078  1.0000
  H   H285      1.0  0.21632  0.12077  0.90938  1.0000
  H   H286      1.0  0.09481  0.18940  0.86928  1.0000
  C   C343      1.0  0.23989  0.16045  0.78308  1.0000
  C   C344      1.0  0.27835  0.18555  0.73367  1.0000
  C   C345      1.0  0.29568  0.15935  0.74681  1.0000
  C   C346      1.0  0.17137  0.08216  0.76284  1.0000
  H   H287      1.0  0.25134  0.08212  0.77082  1.0000
  H   H288      1.0  0.18485  0.17275  0.75689  1.0000
  C   C347      1.0  0.23550  0.12287  0.77749  1.0000
  H   H289      1.0  0.14473  0.07788  0.80979  1.0000
  H   H290      1.0  0.27269  0.09683  0.74851  1.0000
  C   C348      1.0  0.22855  0.16308  0.75070  1.0000
  H   H291      1.0  0.07252  0.18425  0.93560  1.0000
  C   C349      1.0  0.06298  0.18408  0.92880  1.0000
  H   H292      1.0  0.36774  0.18502  0.67017  1.0000
  C   C350      1.0  0.18029  0.17198  0.92054  1.0000
  C   C351      1.0  0.16702  0.18190  0.93076  1.0000
  C   C352      1.0  0.15646  0.19642  0.92271  1.0000
  P   P11       1.0  0.16325  0.17599  0.95402  1.0000
  C   C353      1.0  0.17298  0.15358  0.96032  1.0000
  C   C354      1.0  0.17215  0.18886  0.96278  1.0000
  C   C355      1.0  0.17648  0.20442  0.95291  1.0000
  C   C356      1.0  0.18964  0.14867  0.96369  1.0000
  C   C357      1.0  0.18519  0.20898  0.97704  1.0000
  C   C358      1.0  0.18724  0.11877  0.97156  1.0000
  C   C359      1.0  0.17088  0.12353  0.96774  1.0000
  C   C360      1.0  0.16391  0.14085  0.96192  1.0000
  C   C361      1.0  0.14026  0.17876  0.96264  1.0000
  C   C362      1.0  0.12933  0.17669  0.95311  1.0000
  C   C363      1.0  0.11164  0.17859  0.95984  1.0000
  Fe  Fe31      1.0  0.10101  0.13337  0.97667  1.0000
  H   H293      1.0  0.05448  0.22550  0.89603  1.0000
  P   P12       1.0  0.06653  0.01457  0.82221  1.0000
  H   H294      1.0  0.15826  0.21583  0.76124  1.0000
  H   H295      1.0  0.43823  0.20072  0.68626  1.0000
  H   H296      1.0  0.05048  0.19615  0.84616  1.0000
  H   H297      1.0  0.18866  0.16078  0.92635  1.0000
  H   H298      1.0  0.14612  0.20425  0.93033  1.0000
  C   C364      1.0  0.03834  0.20099  0.85411  1.0000
  H   H299      1.0  0.00410  0.11673  0.90860  1.0000
  C   C365      1.0  0.02441  0.06413  0.81997  1.0000
  C   C366      1.0  0.04489  0.04292  0.83503  1.0000
  H   H300      1.0  0.99721  0.08847  0.96097  1.0000
  H   H301      1.0  0.15127  0.14438  0.95906  1.0000
  H   H302      1.0  0.13439  0.17340  0.94054  1.0000
  H   H303      1.0  0.10332  0.17705  0.95239  1.0000
  H   H304      1.0  0.17071  0.21704  0.73007  1.0000
  C   C367      1.0  0.18259  0.17625  0.90258  1.0000
  H   H305      1.0  0.12521  0.99110  0.89176  1.0000
  C   C368      1.0  0.24384  0.14869  0.79799  1.0000
  C   C369      1.0  0.24016  0.15408  0.81359  1.0000
  C   C370      1.0  0.23281  0.17128  0.81434  1.0000
  C   C371      1.0  0.22936  0.18312  0.79944  1.0000
  C   C372      1.0  0.23293  0.17773  0.78387  1.0000
  H   H306      1.0  0.24296  0.14494  0.82513  1.0000
  H   H307      1.0  0.22967  0.17544  0.82647  1.0000
  H   H308      1.0  0.22362  0.19646  0.79998  1.0000
  H   H309      1.0  0.23034  0.18706  0.77242  1.0000
  H   H310      1.0  0.05107  0.03876  0.84593  1.0000
  H   H311      1.0  0.12441  0.03281  0.77106  1.0000
  C   C373      1.0  0.02603  0.09767  0.91531  1.0000
  C   C374      1.0  0.08498  0.05103  0.96003  1.0000
  C   C375      1.0  0.07358  0.03107  0.90296  1.0000
  C   C376      1.0  0.04323  0.03199  0.91500  1.0000
  H   H312      1.0  0.08421  0.04272  0.81480  1.0000
  C   C377      1.0  0.43381  0.16125  0.71052  1.0000
  C   C378      1.0  0.06792  0.08730  0.89003  1.0000
  C   C379      1.0  0.20884  0.12660  0.84045  1.0000
  C   C380      1.0  0.36523  0.22157  0.69300  1.0000
  C   C381      1.0  0.17180  0.19049  0.89471  1.0000
  C   C382      1.0  0.23181  0.23173  0.74817  1.0000
  C   C383      1.0  0.07668  0.05378  0.94646  1.0000
  C   C384      1.0  0.02220  0.08173  0.94485  1.0000
  C   C385      1.0  0.06401  0.06868  0.94321  1.0000
  H   H313      1.0  0.10747  0.99763  0.86115  1.0000
  C   C386      1.0  0.38202  0.19764  0.67981  1.0000
  C   C387      1.0  0.14958  0.13462  0.77439  1.0000
  C   C388      1.0  0.17593  0.06783  0.77550  1.0000
  C   C389      1.0  0.13309  0.18263  0.97905  1.0000
  P   P13       1.0  0.05495  0.07369  0.92429  1.0000
  H   H314      1.0  0.07356  0.14453  0.85572  1.0000
  Fe  Fe32      1.0  0.00398  0.14584  0.84393  1.0000
  C   C390      1.0  0.18401  0.04757  0.88559  1.0000
  C   C391      1.0  0.19668  0.13133  0.96938  1.0000
  H   H315      1.0  0.22226  0.11983  0.81613  1.0000
  H   H316      1.0  0.06449  0.08719  0.97558  1.0000
  H   H317      1.0  0.22063  0.20710  0.72734  1.0000
  H   H318      1.0  0.19239  0.16824  0.89469  1.0000
  H   H319      1.0  0.06011  0.01231  0.90207  1.0000
  H   H320      1.0  0.36402  0.23204  0.69914  1.0000
  H   H321      1.0  0.30587  0.18104  0.73022  1.0000
  H   H322      1.0  0.15017  0.21139  0.89863  1.0000
  C   C392      1.0  0.12524  0.12441  0.88272  1.0000
  H   H323      1.0  0.13520  0.14661  0.86749  1.0000
  H   H324      1.0  0.11196  0.13120  0.88400  1.0000
  S   S60       1.0  0.12397  0.13314  0.95472  1.0000
  S   S61       1.0  0.08275  0.15051  0.96041  1.0000
  H   H325      1.0  0.24986  0.13541  0.79761  1.0000
  C   C393      1.0  0.15876  0.20058  0.90476  1.0000
  C   C394      1.0  0.11938  0.14515  0.77376  1.0000
  H   H326      1.0  0.33959  0.20412  0.67904  1.0000
  C   C395      1.0  0.06509  0.99568  0.87356  1.0000
  C   C396      1.0  0.19598  0.04904  0.90886  1.0000
  C   C397      1.0  0.05908  0.02395  0.90631  1.0000
  C   C398      1.0  0.03217  0.05798  0.83418  1.0000
  H   H327      1.0  0.08085  0.04463  0.93811  1.0000
  P   P14       1.0  0.18187  0.09838  0.88257  1.0000
  H   H328      1.0  0.39675  0.22253  0.75035  1.0000
  C   C399      1.0  0.05947  0.08047  0.95407  1.0000
  H   H329      1.0  0.21976  0.23494  0.77416  1.0000
  C   C400      1.0  0.39554  0.22661  0.70830  1.0000
  C   C401      1.0  0.12942  0.10711  0.89067  1.0000
  H   H330      1.0  0.02710  0.07204  0.95510  1.0000
  C   C402      1.0  0.18301  0.21442  0.96003  1.0000
  C   C403      1.0  0.13338  0.11904  0.81843  1.0000
  H   H331      1.0  0.22453  0.13011  0.78508  1.0000
  C   C404      1.0  0.21280  0.09855  0.83423  1.0000
  C   C405      1.0  0.40585  0.18002  0.70962  1.0000
  H   H332      1.0  0.02947  0.05320  0.92708  1.0000
  C   C406      1.0  0.12494  0.11002  0.81208  1.0000
  H   H333      1.0  0.22727  0.09891  0.78899  1.0000
  C   C407      1.0  0.10707  0.01523  0.78028  1.0000
  H   H334      1.0  0.17424  0.07158  0.87007  1.0000
  H   H335      1.0  0.14174  0.12725  0.80979  1.0000
  H   H336      1.0  0.06645  0.11811  0.79423  1.0000
  H   H337      1.0  0.09210  0.12387  0.79968  1.0000
  H   H338      1.0  0.16987  0.05541  0.80223  1.0000
  H   H339      1.0  0.19412  0.02544  0.90339  1.0000
  P   P15       1.0  0.40080  0.21414  0.69177  1.0000
  C   C408      1.0  0.07656  0.09839  0.87673  1.0000
  C   C409      1.0  0.18043  0.06547  0.88085  1.0000
  C   C410      1.0  0.15202  0.07933  0.79662  1.0000
  H   H340      1.0  0.20783  0.16219  0.77335  1.0000
  H   H341      1.0  0.16546  0.15341  0.76488  1.0000
  C   C411      1.0  0.23689  0.10521  0.77958  1.0000
  C   C412      1.0  0.00685  0.21443  0.87391  1.0000
  C   C413      1.0  0.14667  0.09871  0.88958  1.0000
  C   C414      1.0  0.15549  0.12474  0.87208  1.0000
  C   C415      1.0  0.07913  0.11155  0.78856  1.0000
  C   C416      1.0  0.09372  0.11491  0.79157  1.0000
  H   H342      1.0  0.40395  0.20527  0.72822  1.0000
  C   C417      1.0  0.04856  0.17711  0.93769  1.0000
  C   C418      1.0  0.16622  0.06641  0.79234  1.0000
  C   C419      1.0  0.19292  0.06697  0.90381  1.0000
  C   C420      1.0  0.09271  0.01076  0.79259  1.0000
  H   H343      1.0  0.14959  0.08557  0.89645  1.0000
  P   P16       1.0  0.12892  0.11048  0.78935  1.0000
  P   P17       1.0  0.24543  0.15409  0.76261  1.0000
  C   C421      1.0  0.19815  0.17109  0.75010  1.0000
  C   C422      1.0  0.21125  0.16523  0.75940  1.0000
  C   C423      1.0  0.24799  0.13116  0.76551  1.0000
  C   C424      1.0  0.41467  0.22031  0.65631  1.0000
  H   H344      1.0  0.15929  0.10824  0.91409  1.0000
  H   H345      1.0  0.16362  0.12119  0.93577  1.0000
  H   H346      1.0  0.16524  0.13207  0.86523  1.0000
  C   C425      1.0  0.15989  0.10753  0.88043  1.0000
  C   C426      1.0  0.11026  0.10645  0.78461  1.0000
  C   C427      1.0  0.08090  0.09934  0.77886  1.0000
  C   C428      1.0  0.14745  0.09387  0.78402  1.0000
  H   H347      1.0  0.06955  0.09646  0.77688  1.0000
  C   C429      1.0  0.22044  0.21323  0.73753  1.0000
  C   C430      1.0  0.23254  0.16641  0.73261  1.0000
  C   C431      1.0  0.20219  0.17486  0.73211  1.0000
  C   C432      1.0  0.26354  0.17887  0.74149  1.0000
  H   H348      1.0  0.19200  0.17950  0.72498  1.0000
  C   C433      1.0  0.03283  0.08519  0.92844  1.0000
  C   C434      1.0  0.02940  0.05524  0.80652  1.0000
  H   H349      1.0  0.28196  0.14015  0.76326  1.0000
  C   C435      1.0  0.08263  0.23536  0.85007  1.0000
  C   C436      1.0  0.09730  0.09065  0.77203  1.0000
  C   C437      1.0  0.29444  0.17576  0.73623  1.0000
  C   C438      1.0  0.11195  0.09419  0.77485  1.0000
  C   C439      1.0  0.41310  0.22482  0.67208  1.0000
  C   C440      1.0  0.17427  0.11830  0.92524  1.0000
  C   C441      1.0  0.17181  0.11098  0.91279  1.0000
  C   C442      1.0  0.13292  0.13147  0.77788  1.0000
  H   H350      1.0  0.16016  0.12443  0.77794  1.0000
  H   H351      1.0  0.18701  0.05783  0.77232  1.0000
  C   C443      1.0  0.25042  0.09578  0.76930  1.0000
  C   C444      1.0  0.26472  0.16218  0.75167  1.0000
  H   H352      1.0  0.24579  0.16426  0.72561  1.0000
  H   H353      1.0  0.22256  0.17528  0.70941  1.0000
  H   H354      1.0  0.27724  0.19845  0.72578  1.0000
  C   C445      1.0  0.06641  0.16686  0.86701  1.0000
  C   C446      1.0  0.38126  0.21092  0.68799  1.0000
  H   H355      1.0  0.30811  0.15191  0.74909  1.0000
  H   H356      1.0  0.12447  0.08710  0.76968  1.0000
  H   H357      1.0  0.09866  0.08097  0.76475  1.0000
  H   H358      1.0  0.10632  0.14333  0.77662  1.0000
  C   C447      1.0  0.16316  0.22697  0.75329  1.0000
  C   C448      1.0  0.19026  0.12197  0.92394  1.0000
  C   C449      1.0  0.18530  0.10746  0.89881  1.0000
  H   H359      1.0  0.19211  0.12780  0.93348  1.0000
  C   C450      1.0  0.08401  0.10996  0.88052  1.0000
  C   C451      1.0  0.26247  0.10408  0.75678  1.0000
  H   H360      1.0  0.27023  0.12806  0.74458  1.0000
  H   H361      1.0  0.21221  0.10756  0.88747  1.0000
  C   C452      1.0  0.08949  0.00622  0.84437  1.0000
  C   C453      1.0  0.19163  0.03933  0.89966  1.0000
  C   C454      1.0  0.15262  0.15115  0.76705  1.0000
  H   H362      1.0  0.15364  0.10609  0.75711  1.0000
  C   C455      1.0  0.28086  0.15264  0.75467  1.0000
  H   H363      1.0  0.11179  0.17231  0.76406  1.0000
  H   H364      1.0  0.19653  0.07420  0.91105  1.0000
  H   H365      1.0  0.19418  0.13004  0.86544  1.0000
  H   H366      1.0  0.08811  0.11974  0.90066  1.0000
  C   C456      1.0  0.12244  0.16172  0.76657  1.0000
  C   C457      1.0  0.13904  0.16475  0.76327  1.0000
  C   C458      1.0  0.07222  0.04624  0.90828  1.0000
  H   H367      1.0  0.11511  0.16752  0.85456  1.0000
  H   H368      1.0  0.10469  0.14465  0.84815  1.0000
  C   C459      1.0  0.09572  0.15415  0.85486  1.0000
  C   C460      1.0  0.10161  0.16695  0.85853  1.0000
  H   H369      1.0  0.02350  0.06013  0.79543  1.0000
  C   C461      1.0  0.20389  0.11805  0.91032  1.0000
  H   H370      1.0  0.02112  0.21264  0.89290  1.0000
  S   S62       1.0  0.00318  0.12987  0.87059  1.0000
  C   C462      1.0  0.07815  0.15408  0.85917  1.0000
  C   C463      1.0  0.08995  0.17964  0.86651  1.0000
  H   H371      1.0  0.03281  0.00867  0.82110  1.0000
  C   C464      1.0  0.19608  0.10441  0.86203  1.0000
  C   C465      1.0  0.20149  0.11067  0.89786  1.0000
  H   H372      1.0  0.33798  0.22719  0.69378  1.0000
  C   C466      1.0  0.07222  0.18004  0.87026  1.0000
  C   C467      1.0  0.06582  0.21665  0.87214  1.0000
  H   H373      1.0  0.05281  0.16669  0.87009  1.0000
  C   C468      1.0  0.02186  0.21028  0.88036  1.0000
  H   H374      1.0  0.21054  0.13976  0.83646  1.0000
  C   C469      1.0  0.20320  0.09305  0.85065  1.0000
  H   H375      1.0  0.18099  0.04014  0.87818  1.0000
  C   C470      1.0  0.05338  0.18991  0.90198  1.0000
  H   H376      1.0  0.03017  0.18098  0.90417  1.0000
  C   C471      1.0  0.11312  0.02954  0.78040  1.0000
  H   H377      1.0  0.08590  0.02502  0.89608  1.0000
  C   C472      1.0  0.04186  0.04711  0.92046  1.0000
  H   H378      1.0  0.21754  0.08991  0.82531  1.0000
  H   H379      1.0  0.07343  0.09997  0.92413  1.0000
  H   H380      1.0  0.03377  0.10053  0.90245  1.0000
  C   C473      1.0  0.06549  0.19031  0.91100  1.0000
  H   H381      1.0  0.20095  0.08014  0.85398  1.0000
  C   C474      1.0  0.03660  0.17641  0.92875  1.0000
  H   H382      1.0  0.02570  0.17052  0.93554  1.0000
  C   C475      1.0  0.07435  0.09922  0.91099  1.0000
  H   H383      1.0  0.99593  0.21468  0.85273  1.0000
  H   H384      1.0  0.11366  0.00740  0.77080  1.0000
  C   C476      1.0  0.43179  0.19057  0.69426  1.0000
  C   C477      1.0  0.41587  0.16400  0.71534  1.0000
  H   H385      1.0  0.17475  0.20894  0.93978  1.0000
  H   H386      1.0  0.18624  0.22646  0.95240  1.0000
  C   C478      1.0  0.09422  0.99926  0.86027  1.0000
  H   H387      1.0  0.45569  0.17243  0.69636  1.0000
  C   C479      1.0  0.00758  0.21173  0.85763  1.0000
  C   C480      1.0  0.35121  0.20581  0.68168  1.0000
  H   H388      1.0  0.40972  0.15371  0.72356  1.0000
  H   H389      1.0  0.17329  0.19344  0.88081  1.0000
  H   H390      1.0  0.04605  0.03351  0.79672  1.0000
  C   C481      1.0  0.06038  0.00238  0.85762  1.0000
  C   C482      1.0  0.41375  0.19338  0.69892  1.0000
  H   H391      1.0  0.20936  0.12765  0.97235  1.0000
  H   H392      1.0  0.00147  0.14339  0.93287  1.0000
  C   C483      1.0  0.08448  0.02042  0.80538  1.0000
  C   C484      1.0  0.44176  0.17454  0.70002  1.0000
  C   C485      1.0  0.04973  0.03372  0.82173  1.0000
  C   C486      1.0  0.10468  0.03951  0.79273  1.0000
  H   H393      1.0  0.08834  0.99970  0.79203  1.0000
  S   S63       1.0  0.09508  0.10920  0.97392  1.0000
  H   H394      1.0  0.09526  0.03989  0.96194  1.0000
  H   H395      1.0  0.40818  0.21080  0.65555  1.0000
  C   C487      1.0  0.36706  0.19516  0.67663  1.0000
  C   C488      1.0  0.00523  0.09095  0.94820  1.0000
  C   C489      1.0  0.07564  0.22062  0.85537  1.0000
  C   C490      1.0  0.00906  0.10682  0.91870  1.0000
  H   H396      1.0  0.07709  0.19507  0.90426  1.0000
  C   C491      1.0  0.99868  0.10354  0.93514  1.0000
  H   H397      1.0  0.99504  0.12791  0.81924  1.0000
  C   C492      1.0  0.10469  0.18216  0.97625  1.0000
  H   H398      1.0  0.39417  0.18918  0.67589  1.0000
  H   H399      1.0  0.08584  0.98858  0.88712  1.0000
  H   H400      1.0  0.08738  0.06116  0.98073  1.0000
  C   C493      1.0  0.08059  0.06303  0.97056  1.0000
  H   H401      1.0  0.19257  0.10537  0.97621  1.0000
  H   H402      1.0  0.09919  0.01015  0.83329  1.0000
  H   H403      1.0  0.04730  0.00322  0.85668  1.0000
  C   C494      1.0  0.05975  0.99638  0.81961  1.0000
  C   C495      1.0  0.08205  0.99406  0.87487  1.0000
  H   H404      1.0  0.01467  0.07591  0.81932  1.0000
  C   C496      1.0  0.04245  0.99704  0.81992  1.0000
  H   H405      1.0  0.05568  0.99142  0.88480  1.0000
  C   C497      1.0  0.13500  0.98847  0.83226  1.0000
  H   H406      1.0  0.09106  0.18295  0.98169  1.0000
  H   H407      1.0  0.12650  0.98689  0.92230  1.0000
  H   H408      1.0  0.12978  0.09401  0.98242  1.0000
  H   H409      1.0  0.19007  0.21680  0.98262  1.0000
  H   H410      1.0  0.14448  0.06375  0.98278  1.0000
  C   C498      1.0  0.27381  0.46090  0.30173  1.0000
  Fe  Fe33      1.0  0.24552  0.39937  0.29073  1.0000
  C   C499      1.0  0.28603  0.46753  0.30569  1.0000
  S   S64       1.0  0.23413  0.39086  0.27292  1.0000
  H   H411      1.0  0.32281  0.24933  0.27289  1.0000
  C   C500      1.0  0.19105  0.28246  0.24584  1.0000
  S   S65       1.0  0.26386  0.41758  0.28137  1.0000
  H   H412      1.0  0.27702  0.26997  0.19651  1.0000
  Fe  Fe34      1.0  0.22815  0.29053  0.28828  1.0000
  S   S66       1.0  0.24439  0.27124  0.27258  1.0000
  S   S67       1.0  0.22009  0.31793  0.27436  1.0000
  H   H413      1.0  0.23123  0.29634  0.16302  1.0000
  Fe  Fe35      1.0  0.25843  0.26122  0.29427  1.0000
  P   P18       1.0  0.24704  0.28717  0.21913  1.0000
  S   S68       1.0  0.28741  0.25226  0.28753  1.0000
  H   H414      1.0  0.11638  0.24110  0.19000  1.0000
  C   C501      1.0  0.33565  0.45642  0.28333  1.0000
  H   H415      1.0  0.19465  0.26366  0.23058  1.0000
  H   H416      1.0  0.33754  0.36638  0.29134  1.0000
  H   H417      1.0  0.28206  0.26686  0.16649  1.0000
  H   H418      1.0  0.29955  0.46249  0.30145  1.0000
  H   H419      1.0  0.32223  0.30699  0.29442  1.0000
  H   H420      1.0  0.27772  0.34947  0.25453  1.0000
  C   C502      1.0  0.29979  0.34608  0.30252  1.0000
  C   C503      1.0  0.26984  0.27403  0.17233  1.0000
  C   C504      1.0  0.31584  0.31711  0.30150  1.0000
  H   H421      1.0  0.29355  0.35858  0.29645  1.0000
  C   C505      1.0  0.33064  0.26984  0.30014  1.0000
  C   C506      1.0  0.30329  0.25996  0.29268  1.0000
  C   C507      1.0  0.22498  0.28565  0.22940  1.0000
  C   C508      1.0  0.04657  0.25277  0.12502  1.0000
  S   S69       1.0  0.20861  0.27384  0.30126  1.0000
  C   C509      1.0  0.25635  0.25393  0.23807  1.0000
  H   H422      1.0  0.12079  0.25637  0.15941  1.0000
  C   C510      1.0  0.21544  0.29544  0.24175  1.0000
  H   H423      1.0  0.18261  0.33208  0.29729  1.0000
  S   S70       1.0  0.24074  0.45932  0.30216  1.0000
  C   C511      1.0  0.36438  0.33339  0.23915  1.0000
  C   C512      1.0  0.25626  0.46742  0.30711  1.0000
  C   C513      1.0  0.25053  0.30780  0.21986  1.0000
  H   H424      1.0  0.32996  0.44825  0.26297  1.0000
  C   C514      1.0  0.33049  0.33514  0.25842  1.0000
  C   C515      1.0  0.34419  0.33250  0.26664  1.0000
  C   C516      1.0  0.26691  0.27580  0.18939  1.0000
  H   H425      1.0  0.27409  0.32918  0.28370  1.0000
  H   H426      1.0  0.20530  0.39355  0.30642  1.0000
  C   C517      1.0  0.36107  0.33151  0.25703  1.0000
  S   S71       1.0  0.24123  0.24247  0.30782  1.0000
  C   C518      1.0  0.22510  0.33744  0.27490  1.0000
  C   C519      1.0  0.21898  0.35211  0.26337  1.0000
  C   C520      1.0  0.22213  0.36811  0.26298  1.0000
  C   C521      1.0  0.23145  0.36985  0.27415  1.0000
  C   C522      1.0  0.23805  0.35512  0.28556  1.0000
  C   C523      1.0  0.23471  0.33892  0.28605  1.0000
  H   H427      1.0  0.21162  0.35116  0.25466  1.0000
  H   H428      1.0  0.21707  0.37931  0.25406  1.0000
  H   H429      1.0  0.24540  0.35627  0.29418  1.0000
  H   H430      1.0  0.23938  0.32771  0.29512  1.0000
  H   H431      1.0  0.32246  0.30630  0.25422  1.0000
  C   C524      1.0  0.29709  0.35774  0.26220  1.0000
  H   H432      1.0  0.27271  0.40387  0.24540  1.0000
  H   H433      1.0  0.25573  0.35268  0.22244  1.0000
  H   H434      1.0  0.32345  0.33969  0.23386  1.0000
  C   C525      1.0  0.19858  0.29380  0.24995  1.0000
  H   H435      1.0  0.29891  0.39973  0.25683  1.0000
  C   C526      1.0  0.27979  0.39103  0.24965  1.0000
  C   C527      1.0  0.29902  0.32000  0.26834  1.0000
  C   C528      1.0  0.11474  0.24536  0.16346  1.0000
  C   C529      1.0  0.28258  0.36018  0.25521  1.0000
  P   P19       1.0  0.30854  0.33654  0.27046  1.0000
  H   H436      1.0  0.35335  0.33796  0.21697  1.0000
  C   C530      1.0  0.25252  0.33743  0.20624  1.0000
  H   H437      1.0  0.31442  0.37055  0.26744  1.0000
  H   H438      1.0  0.29985  0.26067  0.24223  1.0000
  H   H439      1.0  0.24871  0.31967  0.19339  1.0000
  H   H440      1.0  0.22091  0.30426  0.24526  1.0000
  H   H441      1.0  0.21487  0.36224  0.31365  1.0000
  H   H442      1.0  0.34203  0.33128  0.28042  1.0000
  H   H443      1.0  0.17803  0.28108  0.25230  1.0000
  C   C531      1.0  0.25698  0.28141  0.16284  1.0000
  H   H444      1.0  0.34640  0.25837  0.27900  1.0000
  C   C532      1.0  0.25454  0.34014  0.22160  1.0000
  Fe  Fe36      1.0  0.22600  0.25370  0.28687  1.0000
  C   C533      1.0  0.27412  0.30705  0.27450  1.0000
  C   C534      1.0  0.27396  0.37677  0.24904  1.0000
  C   C535      1.0  0.07174  0.24848  0.13685  1.0000
  H   H445      1.0  0.25227  0.34789  0.19508  1.0000
  C   C536      1.0  0.25472  0.32672  0.23603  1.0000
  C   C537      1.0  0.20040  0.27269  0.23355  1.0000
  H   H446      1.0  0.33951  0.46185  0.30586  1.0000
  S   S72       1.0  0.24356  0.28183  0.30885  1.0000
  C   C538      1.0  0.28778  0.25879  0.24085  1.0000
  H   H447      1.0  0.37157  0.32928  0.26351  1.0000
  H   H448      1.0  0.30893  0.28410  0.25148  1.0000
  C   C539      1.0  0.33390  0.33730  0.24043  1.0000
  H   H449      1.0  0.25590  0.32891  0.24805  1.0000
  C   C540      1.0  0.21729  0.27423  0.22539  1.0000
  H   H450      1.0  0.25249  0.30058  0.24664  1.0000
  C   C541      1.0  0.25049  0.32135  0.20535  1.0000
  C   C542      1.0  0.25104  0.28495  0.19707  1.0000
  C   C543      1.0  0.30317  0.37213  0.26224  1.0000
  H   H451      1.0  0.26240  0.37864  0.24426  1.0000
  C   C544      1.0  0.31376  0.27354  0.30997  1.0000
  C   C545      1.0  0.25277  0.31063  0.23517  1.0000
  H   H452      1.0  0.27800  0.28459  0.26412  1.0000
  H   H453      1.0  0.11173  0.24633  0.13809  1.0000
  H   H454      1.0  0.03494  0.26099  0.12136  1.0000
  C   C546      1.0  0.28173  0.31961  0.27630  1.0000
  C   C547      1.0  0.28383  0.29449  0.26523  1.0000
  C   C548      1.0  0.30793  0.33315  0.29311  1.0000
  H   H455      1.0  0.37748  0.33262  0.23175  1.0000
  H   H456      1.0  0.33984  0.46777  0.27499  1.0000
  C   C549      1.0  0.18540  0.32586  0.30988  1.0000
  H   H457      1.0  0.18438  0.24946  0.27110  1.0000
  S   S73       1.0  0.30667  0.39255  0.29311  1.0000
  C   C550      1.0  0.10967  0.23956  0.15141  1.0000
  C   C551      1.0  0.30123  0.29432  0.25796  1.0000
  C   C552      1.0  0.18888  0.23880  0.26456  1.0000
  C   C553      1.0  0.35079  0.33636  0.23084  1.0000
  C   C554      1.0  0.29448  0.38870  0.25611  1.0000
  S   S74       1.0  0.26069  0.38076  0.30903  1.0000
  H   H458      1.0  0.25924  0.27994  0.14966  1.0000
  H   H459      1.0  0.22443  0.26627  0.21617  1.0000
  C   C555      1.0  0.24121  0.29064  0.17037  1.0000
  C   C556      1.0  0.23824  0.29245  0.18741  1.0000
  C   C557      1.0  0.26697  0.24077  0.24739  1.0000
  H   H460      1.0  0.22595  0.29968  0.19306  1.0000
  C   C558      1.0  0.26114  0.26986  0.23049  1.0000
  C   C559      1.0  0.33354  0.26129  0.28669  1.0000
  C   C560      1.0  0.32430  0.43104  0.28740  1.0000
  H   H461      1.0  0.24414  0.25176  0.23749  1.0000
  H   H462      1.0  0.26070  0.30698  0.28031  1.0000
  C   C561      1.0  0.30886  0.30697  0.25955  1.0000
  H   H463      1.0  0.19506  0.34675  0.31178  1.0000
  Fe  Fe37      1.0  0.24855  0.43073  0.30300  1.0000
  C   C562      1.0  0.32011  0.25620  0.28317  1.0000
  C   C563      1.0  0.27719  0.27201  0.23153  1.0000
  C   C564      1.0  0.31652  0.37830  0.30923  1.0000
  Fe  Fe38      1.0  0.27787  0.39989  0.30134  1.0000
  H   H464      1.0  0.19147  0.30127  0.25963  1.0000
  H   H465      1.0  0.28138  0.28399  0.22547  1.0000
  H   H466      1.0  0.27798  0.45085  0.29439  1.0000
  C   C565      1.0  0.30005  0.26879  0.30609  1.0000
  C   C566      1.0  0.33005  0.44547  0.27657  1.0000
  H   H467      1.0  0.31980  0.42268  0.28216  1.0000
  H   H468      1.0  0.05296  0.27221  0.13394  1.0000
  C   C567      1.0  0.32416  0.42747  0.30501  1.0000
  H   H469      1.0  0.07927  0.25366  0.14239  1.0000
  C   C568      1.0  0.33160  0.36631  0.30476  1.0000
  C   C569      1.0  0.28259  0.24326  0.24893  1.0000
  C   C570      1.0  0.33551  0.45293  0.30093  1.0000
  S   S75       1.0  0.34887  0.27563  0.30321  1.0000
  C   C571      1.0  0.05673  0.25909  0.13209  1.0000
  H   H470      1.0  0.16459  0.24163  0.25753  1.0000
  S   S76       1.0  0.22856  0.41463  0.31020  1.0000
  C   C572      1.0  0.32985  0.43836  0.31194  1.0000
  H   H471      1.0  0.17701  0.30291  0.31089  1.0000
  H   H472      1.0  0.34972  0.34402  0.31410  1.0000
  H   H473      1.0  0.31944  0.41629  0.31317  1.0000
  C   C573      1.0  0.28083  0.48009  0.31574  1.0000
  H   H474      1.0  0.28714  0.27156  0.31369  1.0000
  C   C574      1.0  0.25105  0.48054  0.31651  1.0000
  C   C575      1.0  0.11230  0.23674  0.18067  1.0000
  S   S77       1.0  0.36681  0.30958  0.31646  1.0000
  C   C576      1.0  0.31945  0.25130  0.42156  1.0000
  C   C577      1.0  0.32660  0.44219  0.51814  1.0000
  C   C578      1.0  0.19421  0.30918  0.34152  1.0000
  C   C579      1.0  0.29237  0.34693  0.60983  1.0000
  Fe  Fe39      1.0  0.32882  0.33020  0.54413  1.0000
  S   S78       1.0  0.31018  0.32861  0.56948  1.0000
  S   S79       1.0  0.35705  0.33040  0.53945  1.0000
  Fe  Fe40      1.0  0.30178  0.33051  0.52449  1.0000
  S   S80       1.0  0.28074  0.32911  0.54828  1.0000
  S   S81       1.0  0.30001  0.33186  0.49722  1.0000
  Fe  Fe41      1.0  0.29182  0.34831  0.55473  1.0000
  S   S82       1.0  0.27467  0.37115  0.56515  1.0000
  Fe  Fe42      1.0  0.36696  0.27435  0.35801  1.0000
  C   C580      1.0  0.26388  0.35325  0.62781  1.0000
  S   S83       1.0  0.31123  0.35145  0.52985  1.0000
  H   H475      1.0  0.24305  0.36565  0.59331  1.0000
  H   H476      1.0  0.24302  0.45809  0.44499  1.0000
  C   C581      1.0  0.30496  0.23904  0.48625  1.0000
  Fe  Fe43      1.0  0.26747  0.30868  0.41506  1.0000
  S   S84       1.0  0.24000  0.31086  0.42942  1.0000
  S   S85       1.0  0.27966  0.32914  0.39598  1.0000
  Fe  Fe44      1.0  0.25146  0.29719  0.45249  1.0000
  S   S86       1.0  0.24316  0.30479  0.47848  1.0000
  Fe  Fe45      1.0  0.24309  0.28458  0.42407  1.0000
  C   C582      1.0  0.22693  0.33096  0.59558  1.0000
  S   S87       1.0  0.27865  0.29709  0.43840  1.0000
  S   S88       1.0  0.26978  0.28354  0.40813  1.0000
  C   C583      1.0  0.24857  0.44444  0.44785  1.0000
  C   C584      1.0  0.35005  0.25247  0.39647  1.0000
  C   C585      1.0  0.31606  0.36581  0.33941  1.0000
  H   H477      1.0  0.42336  0.26230  0.32849  1.0000
  S   S89       1.0  0.23042  0.38598  0.35392  1.0000
  H   H478      1.0  0.24039  0.27305  0.35471  1.0000
  S   S90       1.0  0.45206  0.30265  0.37691  1.0000
  H   H479      1.0  0.26329  0.23911  0.48744  1.0000
  H   H480      1.0  0.19195  0.25982  0.38241  1.0000
  C   C586      1.0  0.26525  0.43891  0.45082  1.0000
  C   C587      1.0  0.44346  0.30117  0.36000  1.0000
  C   C588      1.0  0.43014  0.29220  0.36412  1.0000
  C   C589      1.0  0.32501  0.24388  0.59836  1.0000
  H   H481      1.0  0.24423  0.27946  0.38161  1.0000
  H   H482      1.0  0.42635  0.28541  0.37719  1.0000
  Fe  Fe46      1.0  0.24493  0.39704  0.32799  1.0000
  H   H483      1.0  0.33534  0.43097  0.52354  1.0000
  C   C590      1.0  0.30827  0.47629  0.56768  1.0000
  C   C591      1.0  0.34257  0.25241  0.47143  1.0000
  H   H484      1.0  0.32905  0.32558  0.46601  1.0000
  C   C592      1.0  0.23064  0.27167  0.36644  1.0000
  C   C593      1.0  0.32090  0.31892  0.44621  1.0000
  C   C594      1.0  0.37818  0.25917  0.57419  1.0000
  H   H485      1.0  0.46853  0.39993  0.38172  1.0000
  C   C595      1.0  0.48817  0.28066  0.60942  1.0000
  C   C596      1.0  0.26579  0.34468  0.38431  1.0000
  C   C597      1.0  0.27276  0.35489  0.36890  1.0000
  C   C598      1.0  0.26192  0.36762  0.35942  1.0000
  C   C599      1.0  0.24410  0.37015  0.36549  1.0000
  C   C600      1.0  0.23710  0.35992  0.38087  1.0000
  C   C601      1.0  0.24796  0.34713  0.39026  1.0000
  H   H486      1.0  0.28654  0.35276  0.36422  1.0000
  H   H487      1.0  0.26735  0.37550  0.34750  1.0000
  H   H488      1.0  0.22328  0.36182  0.38545  1.0000
  H   H489      1.0  0.24253  0.33933  0.40214  1.0000
  H   H490      1.0  0.20096  0.41859  0.35355  1.0000
  H   H491      1.0  0.26248  0.30056  0.35830  1.0000
  H   H492      1.0  0.38690  0.34089  0.34122  1.0000
  C   C602      1.0  0.46303  0.36173  0.50147  1.0000
  C   C603      1.0  0.31838  0.26499  0.53824  1.0000
  H   H493      1.0  0.23753  0.48568  0.32062  1.0000
  H   H494      1.0  0.33858  0.27903  0.38791  1.0000
  S   S91       1.0  0.33746  0.33632  0.35134  1.0000
  H   H495      1.0  0.27263  0.44830  0.45021  1.0000
  C   C604      1.0  0.38773  0.44507  0.62168  1.0000
  H   H496      1.0  0.38111  0.24971  0.41429  1.0000
  C   C605      1.0  0.30719  0.27716  0.52879  1.0000
  C   C606      1.0  0.34802  0.23735  0.40866  1.0000
  C   C607      1.0  0.46233  0.33364  0.51994  1.0000
  C   C608      1.0  0.26582  0.30618  0.61727  1.0000
  H   H497      1.0  0.30004  0.28687  0.50426  1.0000
  H   H498      1.0  0.26076  0.31895  0.61975  1.0000
  H   H499      1.0  0.27919  0.31501  0.59142  1.0000
  C   C609      1.0  0.28383  0.32435  0.49269  1.0000
  C   C610      1.0  0.28256  0.32718  0.47550  1.0000
  C   C611      1.0  0.27027  0.32105  0.47114  1.0000
  C   C612      1.0  0.25875  0.31241  0.48397  1.0000
  C   C613      1.0  0.25958  0.31005  0.50129  1.0000
  C   C614      1.0  0.27220  0.31589  0.50566  1.0000
  H   H500      1.0  0.29099  0.33434  0.46549  1.0000
  H   H501      1.0  0.26947  0.32333  0.45784  1.0000
  C   C615      1.0  0.35838  0.41711  0.62696  1.0000
  H   H502      1.0  0.27296  0.31378  0.51899  1.0000
  C   C616      1.0  0.30387  0.38760  0.59606  1.0000
  C   C617      1.0  0.28587  0.39207  0.59928  1.0000
  C   C618      1.0  0.27688  0.38787  0.58911  1.0000
  C   C619      1.0  0.28587  0.37880  0.57605  1.0000
  C   C620      1.0  0.30387  0.37482  0.57255  1.0000
  C   C621      1.0  0.31283  0.37933  0.58244  1.0000
  H   H503      1.0  0.27891  0.39851  0.60972  1.0000
  H   H504      1.0  0.26296  0.39092  0.59188  1.0000
  H   H505      1.0  0.31091  0.36790  0.56245  1.0000
  H   H506      1.0  0.32674  0.37588  0.57988  1.0000
  H   H507      1.0  0.41284  0.47121  0.59268  1.0000
  C   C622      1.0  0.37267  0.31645  0.58544  1.0000
  C   C623      1.0  0.36210  0.32292  0.57314  1.0000
  C   C624      1.0  0.36898  0.32172  0.55583  1.0000
  H   H508      1.0  0.36390  0.30774  0.44170  1.0000
  H   H509      1.0  0.31704  0.25663  0.59624  1.0000
  H   H510      1.0  0.36740  0.31742  0.59875  1.0000
  H   H511      1.0  0.34878  0.32912  0.57695  1.0000
  C   C625      1.0  0.48309  0.24718  0.36596  1.0000
  C   C626      1.0  0.37589  0.33997  0.45122  1.0000
  H   H512      1.0  0.21690  0.48433  0.40059  1.0000
  H   H513      1.0  0.47540  0.32147  0.58806  1.0000
  Fe  Fe47      1.0  0.38919  0.29482  0.32872  1.0000
  H   H514      1.0  0.32247  0.31966  0.60607  1.0000
  H   H515      1.0  0.47899  0.28087  0.34498  1.0000
  H   H516      1.0  0.30851  0.32487  0.34173  1.0000
  C   C627      1.0  0.33050  0.40481  0.36102  1.0000
  H   H517      1.0  0.26575  0.24158  0.36792  1.0000
  C   C628      1.0  0.34817  0.33125  0.40240  1.0000
  H   H518      1.0  0.28495  0.26028  0.60859  1.0000
  C   C629      1.0  0.32154  0.26661  0.40962  1.0000
  C   C630      1.0  0.40917  0.45956  0.60088  1.0000
  C   C631      1.0  0.48094  0.35700  0.49636  1.0000
  C   C632      1.0  0.33260  0.25279  0.51301  1.0000
  C   C633      1.0  0.37408  0.29927  0.40835  1.0000
  C   C634      1.0  0.31937  0.27187  0.62348  1.0000
  C   C635      1.0  0.33547  0.38730  0.36782  1.0000
  H   H519      1.0  0.41151  0.28487  0.35492  1.0000
  H   H520      1.0  0.31991  0.33170  0.43829  1.0000
  H   H521      1.0  0.19256  0.30942  0.41690  1.0000
  H   H522      1.0  0.23018  0.30657  0.33153  1.0000
  C   C636      1.0  0.33855  0.46291  0.33879  1.0000
  C   C637      1.0  0.18577  0.32533  0.37614  1.0000
  C   C638      1.0  0.31644  0.30604  0.44115  1.0000
  S   S92       1.0  0.26376  0.41419  0.32247  1.0000
  H   H523      1.0  0.31004  0.36557  0.35278  1.0000
  C   C639      1.0  0.45373  0.35006  0.51326  1.0000
  S   S93       1.0  0.34248  0.28772  0.34919  1.0000
  C   C640      1.0  0.19993  0.35934  0.33975  1.0000
  C   C641      1.0  0.23916  0.43243  0.44825  1.0000
  C   C642      1.0  0.24630  0.41483  0.45188  1.0000
  C   C643      1.0  0.26300  0.40909  0.45515  1.0000
  C   C644      1.0  0.27241  0.42133  0.45456  1.0000
  P   P20       1.0  0.27191  0.38638  0.46147  1.0000
  C   C645      1.0  0.29486  0.38258  0.45284  1.0000
  C   C646      1.0  0.26811  0.38081  0.48479  1.0000
  C   C647      1.0  0.27158  0.39131  0.49393  1.0000
  C   C648      1.0  0.26949  0.38667  0.51187  1.0000
  C   C649      1.0  0.26395  0.37151  0.52084  1.0000
  C   C650      1.0  0.26056  0.36095  0.51189  1.0000
  C   C651      1.0  0.26270  0.36550  0.49396  1.0000
  C   C652      1.0  0.30612  0.37052  0.46242  1.0000
  C   C653      1.0  0.32384  0.36730  0.45565  1.0000
  C   C654      1.0  0.33047  0.37617  0.43927  1.0000
  C   C655      1.0  0.31934  0.38818  0.42958  1.0000
  C   C656      1.0  0.30157  0.39129  0.43627  1.0000
  C   C657      1.0  0.26252  0.37348  0.45311  1.0000
  C   C658      1.0  0.24547  0.37145  0.46019  1.0000
  C   C659      1.0  0.23833  0.36123  0.45399  1.0000
  C   C660      1.0  0.24802  0.35318  0.44048  1.0000
  C   C661      1.0  0.26498  0.35506  0.43337  1.0000
  C   C662      1.0  0.27229  0.36494  0.43981  1.0000
  H   H524      1.0  0.22628  0.43680  0.44575  1.0000
  H   H525      1.0  0.23867  0.40586  0.45221  1.0000
  H   H526      1.0  0.28527  0.41732  0.45710  1.0000
  H   H527      1.0  0.27625  0.40289  0.48726  1.0000
  H   H528      1.0  0.27245  0.39459  0.51889  1.0000
  H   H529      1.0  0.26262  0.36781  0.53471  1.0000
  H   H530      1.0  0.25677  0.34892  0.51879  1.0000
  H   H531      1.0  0.26061  0.35671  0.48737  1.0000
  H   H532      1.0  0.30124  0.36359  0.47517  1.0000
  H   H533      1.0  0.33239  0.35798  0.46325  1.0000
  H   H534      1.0  0.34424  0.37379  0.43416  1.0000
  H   H535      1.0  0.32449  0.39512  0.41691  1.0000
  H   H536      1.0  0.29308  0.40050  0.42855  1.0000
  H   H537      1.0  0.23782  0.37741  0.47082  1.0000
  H   H538      1.0  0.22539  0.35921  0.45988  1.0000
  H   H539      1.0  0.24259  0.34506  0.43582  1.0000
  H   H540      1.0  0.27258  0.34837  0.42322  1.0000
  H   H541      1.0  0.28565  0.36551  0.43457  1.0000
  H   H542      1.0  0.48430  0.38655  0.46111  1.0000
  H   H543      1.0  0.40417  0.26493  0.39631  1.0000
  H   H544      1.0  0.35062  0.40491  0.31901  1.0000
  C   C663      1.0  0.27149  0.46588  0.49131  1.0000
  C   C664      1.0  0.37093  0.24082  0.64382  1.0000
  S   S94       1.0  0.22208  0.27636  0.41692  1.0000
  C   C665      1.0  0.21589  0.26591  0.36674  1.0000
  H   H545      1.0  0.39174  0.31312  0.53766  1.0000
  C   C666      1.0  0.34263  0.24236  0.45999  1.0000
  H   H546      1.0  0.28640  0.38033  0.40497  1.0000
  C   C667      1.0  0.30810  0.32707  0.32825  1.0000
  C   C668      1.0  0.48778  0.29221  0.31851  1.0000
  C   C669      1.0  0.21425  0.38395  0.42297  1.0000
  C   C670      1.0  0.20328  0.39097  0.43670  1.0000
  C   C671      1.0  0.20191  0.40819  0.43694  1.0000
  C   C672      1.0  0.21150  0.41843  0.42345  1.0000
  C   C673      1.0  0.22269  0.41140  0.40973  1.0000
  C   C674      1.0  0.22392  0.39410  0.40955  1.0000
  C   C675      1.0  0.41277  0.33541  0.36913  1.0000
  C   C676      1.0  0.23755  0.44287  0.39859  1.0000
  H   H547      1.0  0.27949  0.31950  0.32106  1.0000
  H   H548      1.0  0.33143  0.38231  0.38141  1.0000
  C   C677      1.0  0.20336  0.26424  0.38199  1.0000
  C   C678      1.0  0.19506  0.31511  0.40326  1.0000
  C   C679      1.0  0.33039  0.35304  0.33496  1.0000
  H   H549      1.0  0.31801  0.46423  0.54575  1.0000
  C   C680      1.0  0.48569  0.38450  0.36420  1.0000
  C   C681      1.0  0.22446  0.45778  0.39804  1.0000
  H   H550      1.0  0.21525  0.37064  0.42265  1.0000
  H   H551      1.0  0.19576  0.38308  0.44708  1.0000
  H   H552      1.0  0.19325  0.41366  0.44751  1.0000
  H   H553      1.0  0.21010  0.43177  0.42377  1.0000
  H   H554      1.0  0.23227  0.38845  0.39893  1.0000
  H   H555      1.0  0.31134  0.27795  0.41002  1.0000
  S   S95       1.0  0.37574  0.29855  0.35533  1.0000
  C   C682      1.0  0.34425  0.43669  0.59876  1.0000
  H   H556      1.0  0.28775  0.25151  0.40230  1.0000
  H   H557      1.0  0.18601  0.24586  0.33219  1.0000
  H   H558      1.0  0.21261  0.45803  0.39451  1.0000
  C   C683      1.0  0.23286  0.27524  0.38163  1.0000
  H   H559      1.0  0.36647  0.31747  0.46656  1.0000
  H   H560      1.0  0.34904  0.29745  0.42465  1.0000
  C   C684      1.0  0.30887  0.27738  0.51138  1.0000
  C   C685      1.0  0.27149  0.35375  0.64101  1.0000
  H   H561      1.0  0.29352  0.35292  0.32732  1.0000
  H   H562      1.0  0.32585  0.46990  0.33693  1.0000
  H   H563      1.0  0.38334  0.47219  0.61029  1.0000
  C   C686      1.0  0.39960  0.42935  0.62162  1.0000
  H   H564      1.0  0.31657  0.26697  0.37596  1.0000
  C   C687      1.0  0.32286  0.32987  0.39342  1.0000
  H   H565      1.0  0.40605  0.32681  0.39649  1.0000
  P   P21       1.0  0.24072  0.35866  0.63051  1.0000
  Fe  Fe48      1.0  0.22532  0.26396  0.32097  1.0000
  C   C688      1.0  0.20058  0.38653  0.31923  1.0000
  C   C689      1.0  0.38449  0.33007  0.38463  1.0000
  C   C690      1.0  0.33298  0.45442  0.50423  1.0000
  C   C691      1.0  0.21454  0.40685  0.61226  1.0000
  H   H566      1.0  0.40063  0.25949  0.55352  1.0000
  H   H567      1.0  0.34669  0.45269  0.49884  1.0000
  C   C692      1.0  0.42173  0.29189  0.35149  1.0000
  C   C693      1.0  0.30699  0.28464  0.63078  1.0000
  H   H568      1.0  0.28398  0.45749  0.48865  1.0000
  H   H569      1.0  0.29513  0.43507  0.32925  1.0000
  H   H570      1.0  0.23702  0.35004  0.57457  1.0000
  C   C694      1.0  0.34374  0.44529  0.33854  1.0000
  C   C695      1.0  0.36628  0.46305  0.34353  1.0000
  H   H571      1.0  0.29723  0.38740  0.32990  1.0000
  H   H572      1.0  0.43984  0.35368  0.51716  1.0000
  C   C696      1.0  0.32173  0.26534  0.50329  1.0000
  S   S96       1.0  0.21253  0.25923  0.34926  1.0000
  C   C697      1.0  0.28695  0.23840  0.40342  1.0000
  P   P22       1.0  0.23519  0.42433  0.39218  1.0000
  S   S97       1.0  0.29648  0.48658  0.32220  1.0000
  H   H573      1.0  0.38528  0.28188  0.53292  1.0000
  H   H574      1.0  0.25793  0.39883  0.41290  1.0000
  C   C698      1.0  0.38998  0.30849  0.58040  1.0000
  C   C699      1.0  0.27645  0.30392  0.60128  1.0000
  C   C700      1.0  0.38629  0.31399  0.55097  1.0000
  H   H575      1.0  0.25324  0.38731  0.63470  1.0000
  H   H576      1.0  0.40986  0.30089  0.55922  1.0000
  H   H577      1.0  0.22133  0.31548  0.40220  1.0000
  H   H578      1.0  0.25064  0.30345  0.51131  1.0000
  H   H579      1.0  0.33867  0.44420  0.58791  1.0000
  H   H580      1.0  0.48668  0.31603  0.52002  1.0000
  S   S98       1.0  0.40391  0.29900  0.59492  1.0000
  Fe  Fe49      1.0  0.30087  0.30968  0.56084  1.0000
  C   C701      1.0  0.28037  0.38920  0.39504  1.0000
  C   C702      1.0  0.22032  0.27312  0.39698  1.0000
  C   C703      1.0  0.39658  0.30712  0.56320  1.0000
  C   C704      1.0  0.33691  0.26720  0.39708  1.0000
  C   C705      1.0  0.26197  0.29198  0.63010  1.0000
  H   H581      1.0  0.31121  0.28002  0.32049  1.0000
  S   S99       1.0  0.36922  0.25252  0.38077  1.0000
  C   C706      1.0  0.32169  0.46876  0.49709  1.0000
  C   C707      1.0  0.25682  0.46036  0.49123  1.0000
  H   H582      1.0  0.43385  0.44342  0.59306  1.0000
  Fe  Fe50      1.0  0.27842  0.27206  0.43306  1.0000
  C   C708      1.0  0.25611  0.41090  0.38649  1.0000
  C   C709      1.0  0.26419  0.39964  0.39944  1.0000
  S   S100      1.0  0.32109  0.30956  0.53651  1.0000
  H   H583      1.0  0.42593  0.33541  0.36918  1.0000
  C   C710      1.0  0.39080  0.33852  0.35337  1.0000
  C   C711      1.0  0.20553  0.26782  0.39690  1.0000
  C   C712      1.0  0.18946  0.39527  0.33168  1.0000
  C   C713      1.0  0.28865  0.39002  0.37778  1.0000
  H   H584      1.0  0.37404  0.47502  0.64129  1.0000
  S   S101      1.0  0.30052  0.24990  0.43735  1.0000
  C   C714      1.0  0.21133  0.31850  0.39497  1.0000
  C   C715      1.0  0.37936  0.26344  0.41308  1.0000
  H   H585      1.0  0.32264  0.41320  0.36958  1.0000
  H   H586      1.0  0.19813  0.30220  0.35345  1.0000
  C   C716      1.0  0.35016  0.44471  0.60844  1.0000
  C   C717      1.0  0.27677  0.44751  0.34827  1.0000
  C   C718      1.0  0.39231  0.27202  0.40287  1.0000
  S   S102      1.0  0.25182  0.27097  0.44881  1.0000
  H   H587      1.0  0.38500  0.36124  0.43272  1.0000
  C   C719      1.0  0.20225  0.32835  0.36766  1.0000
  C   C720      1.0  0.18352  0.38611  0.34817  1.0000
  Fe  Fe51      1.0  0.42768  0.29975  0.64370  1.0000
  H   H588      1.0  0.26933  0.34878  0.60183  1.0000
  H   H589      1.0  0.37493  0.46992  0.34554  1.0000
  C   C721      1.0  0.23724  0.35452  0.59912  1.0000
  H   H590      1.0  0.49024  0.25309  0.40880  1.0000
  H   H591      1.0  0.34096  0.41264  0.59560  1.0000
  C   C722      1.0  0.30792  0.30190  0.62441  1.0000
  C   C723      1.0  0.36381  0.27268  0.42098  1.0000
  H   H592      1.0  0.48277  0.27010  0.61814  1.0000
  C   C724      1.0  0.30766  0.44125  0.34629  1.0000
  C   C725      1.0  0.34556  0.41890  0.60306  1.0000
  C   C726      1.0  0.38970  0.28987  0.40055  1.0000
  C   C727      1.0  0.25798  0.33786  0.33164  1.0000
  C   C728      1.0  0.28334  0.28737  0.59809  1.0000
  C   C729      1.0  0.27457  0.29327  0.36158  1.0000
  H   H593      1.0  0.35352  0.26613  0.42836  1.0000
  C   C730      1.0  0.39251  0.46012  0.61101  1.0000
  C   C731      1.0  0.38033  0.34960  0.43460  1.0000
  H   H594      1.0  0.39975  0.29630  0.39239  1.0000
  H   H595      1.0  0.38204  0.35199  0.40763  1.0000
  H   H596      1.0  0.30109  0.38180  0.37435  1.0000
  H   H597      1.0  0.28614  0.46130  0.37959  1.0000
  H   H598      1.0  0.28135  0.31510  0.36589  1.0000
  H   H599      1.0  0.46333  0.29689  0.60743  1.0000
  C   C732      1.0  0.33563  0.41137  0.34334  1.0000
  C   C733      1.0  0.33106  0.25279  0.53037  1.0000
  H   H600      1.0  0.37709  0.34413  0.46225  1.0000
  H   H601      1.0  0.45423  0.26152  0.32389  1.0000
  C   C734      1.0  0.19258  0.33415  0.31818  1.0000
  C   C735      1.0  0.36122  0.29049  0.41869  1.0000
  C   C736      1.0  0.37884  0.34419  0.42039  1.0000
  H   H602      1.0  0.35845  0.37392  0.33108  1.0000
  Fe  Fe52      1.0  0.35298  0.31172  0.34345  1.0000
  C   C737      1.0  0.26442  0.41144  0.36918  1.0000
  H   H603      1.0  0.31546  0.44859  0.36612  1.0000
  S   S103      1.0  0.29638  0.28446  0.57795  1.0000
  C   C738      1.0  0.47277  0.25948  0.39160  1.0000
  C   C739      1.0  0.32147  0.30636  0.61093  1.0000
  H   H604      1.0  0.24397  0.41869  0.62657  1.0000
  H   H605      1.0  0.18400  0.36139  0.36505  1.0000
  C   C740      1.0  0.23381  0.34570  0.58843  1.0000
  C   C741      1.0  0.37315  0.32891  0.42268  1.0000
  H   H606      1.0  0.25804  0.44783  0.48861  1.0000
  C   C742      1.0  0.36997  0.32491  0.45365  1.0000
  H   H607      1.0  0.34566  0.35369  0.41264  1.0000
  C   C743      1.0  0.43036  0.25479  0.33838  1.0000
  C   C744      1.0  0.22506  0.43150  0.37381  1.0000
  H   H608      1.0  0.23624  0.45415  0.36324  1.0000
  C   C745      1.0  0.25275  0.44297  0.40326  1.0000
  H   H609      1.0  0.31711  0.26499  0.55171  1.0000
  C   C746      1.0  0.29983  0.34295  0.32006  1.0000
  C   C747      1.0  0.26910  0.27539  0.62706  1.0000
  C   C748      1.0  0.47950  0.33969  0.63377  1.0000
  Fe  Fe53      1.0  0.30190  0.39873  0.63445  1.0000
  C   C749      1.0  0.48145  0.39265  0.37811  1.0000
  P   P23       1.0  0.37020  0.32246  0.40444  1.0000
  C   C750      1.0  0.36861  0.31938  0.43946  1.0000
  C   C751      1.0  0.23401  0.34854  0.61707  1.0000
  H   H610      1.0  0.26617  0.26436  0.63694  1.0000
  C   C752      1.0  0.28813  0.45513  0.36888  1.0000
  C   C753      1.0  0.33390  0.29361  0.60365  1.0000
  H   H611      1.0  0.16967  0.31586  0.40031  1.0000
  H   H612      1.0  0.36662  0.33300  0.36836  1.0000
  H   H613      1.0  0.22772  0.32747  0.37121  1.0000
  C   C754      1.0  0.21495  0.32512  0.37726  1.0000
  C   C755      1.0  0.18224  0.31862  0.39387  1.0000
  C   C756      1.0  0.27935  0.27563  0.36182  1.0000
  C   C757      1.0  0.34613  0.40018  0.33263  1.0000
  C   C758      1.0  0.28074  0.40124  0.36488  1.0000
  Fe  Fe54      1.0  0.47885  0.30718  0.37362  1.0000
  H   H614      1.0  0.36743  0.36294  0.63675  1.0000
  H   H615      1.0  0.25834  0.41964  0.35893  1.0000
  C   C759      1.0  0.28511  0.30145  0.36603  1.0000
  H   H616      1.0  0.22923  0.46691  0.49416  1.0000
  Fe  Fe55      1.0  0.40285  0.30698  0.61953  1.0000
  C   C760      1.0  0.25499  0.45789  0.40675  1.0000
  C   C761      1.0  0.32173  0.28628  0.46773  1.0000
  C   C762      1.0  0.21977  0.38899  0.61678  1.0000
  C   C763      1.0  0.37839  0.27720  0.54578  1.0000
  C   C764      1.0  0.27466  0.24398  0.48621  1.0000
  C   C765      1.0  0.37930  0.33401  0.36886  1.0000
  H   H617      1.0  0.29666  0.28111  0.64139  1.0000
  H   H618      1.0  0.34452  0.29726  0.59353  1.0000
  C   C766      1.0  0.22671  0.33395  0.62417  1.0000
  H   H619      1.0  0.45508  0.32455  0.52899  1.0000
  C   C767      1.0  0.27970  0.27309  0.61101  1.0000
  C   C768      1.0  0.33272  0.27631  0.60961  1.0000
  C   C769      1.0  0.32606  0.31547  0.46183  1.0000
  H   H620      1.0  0.21275  0.40974  0.37964  1.0000
  H   H621      1.0  0.31355  0.34695  0.62040  1.0000
  H   H622      1.0  0.26686  0.45806  0.41000  1.0000
  H   H623      1.0  0.26180  0.29973  0.32100  1.0000
  H   H624      1.0  0.21932  0.43139  0.61217  1.0000
  C   C770      1.0  0.30414  0.25684  0.48235  1.0000
  C   C771      1.0  0.36414  0.25456  0.61583  1.0000
  H   H625      1.0  0.28711  0.28191  0.47873  1.0000
  C   C772      1.0  0.33941  0.34685  0.40738  1.0000
  C   C773      1.0  0.22332  0.41755  0.61571  1.0000
  H   H626      1.0  0.28714  0.40196  0.35151  1.0000
  C   C774      1.0  0.34973  0.47170  0.34141  1.0000
  H   H627      1.0  0.35440  0.29391  0.54183  1.0000
  C   C775      1.0  0.36051  0.43676  0.34036  1.0000
  H   H628      1.0  0.31664  0.32356  0.38747  1.0000
  H   H629      1.0  0.26132  0.46131  0.36788  1.0000
  C   C776      1.0  0.47953  0.32366  0.63097  1.0000
  H   H630      1.0  0.18494  0.28803  0.33896  1.0000
  C   C777      1.0  0.22815  0.44649  0.36165  1.0000
  S   S104      1.0  0.31568  0.39185  0.60886  1.0000
  C   C778      1.0  0.36088  0.28399  0.55084  1.0000
  C   C779      1.0  0.30481  0.44810  0.36101  1.0000
  H   H631      1.0  0.31861  0.25855  0.62891  1.0000
  C   C780      1.0  0.29452  0.26587  0.36708  1.0000
  C   C781      1.0  0.33568  0.47009  0.63698  1.0000
  H   H632      1.0  0.17508  0.39290  0.35789  1.0000
  H   H633      1.0  0.47611  0.38535  0.35703  1.0000
  H   H634      1.0  0.34883  0.36251  0.36219  1.0000
  C   C782      1.0  0.30026  0.29191  0.37117  1.0000
  H   H635      1.0  0.26313  0.43181  0.40377  1.0000
  H   H636      1.0  0.30822  0.29823  0.37502  1.0000
  H   H637      1.0  0.33834  0.28398  0.57128  1.0000
  C   C783      1.0  0.35195  0.27853  0.56761  1.0000
  C   C784      1.0  0.33333  0.24558  0.34784  1.0000
  H   H638      1.0  0.46300  0.26786  0.39911  1.0000
  C   C785      1.0  0.21491  0.42167  0.37091  1.0000
  H   H639      1.0  0.29271  0.47959  0.46148  1.0000
  C   C786      1.0  0.20594  0.36871  0.32331  1.0000
  C   C787      1.0  0.24059  0.47107  0.49439  1.0000
  H   H640      1.0  0.31243  0.30872  0.42902  1.0000
  C   C788      1.0  0.35345  0.46633  0.63639  1.0000
  C   C789      1.0  0.36070  0.26642  0.57956  1.0000
  H   H641      1.0  0.47050  0.32245  0.62412  1.0000
  C   C790      1.0  0.30490  0.27419  0.37178  1.0000
  H   H642      1.0  0.35859  0.26264  0.48160  1.0000
  P   P24       1.0  0.34963  0.25973  0.60146  1.0000
  C   C791      1.0  0.35266  0.40913  0.61709  1.0000
  C   C792      1.0  0.43772  0.39937  0.64547  1.0000
  H   H643      1.0  0.32941  0.46068  0.63549  1.0000
  C   C793      1.0  0.24017  0.34205  0.33720  1.0000
  H   H644      1.0  0.26567  0.34636  0.33230  1.0000
  C   C794      1.0  0.34545  0.37618  0.35702  1.0000
  P   P25       1.0  0.30081  0.24290  0.36807  1.0000
  C   C795      1.0  0.28828  0.26813  0.48106  1.0000
  C   C796      1.0  0.22327  0.32516  0.61344  1.0000
  C   C797      1.0  0.23779  0.31554  0.33133  1.0000
  C   C798      1.0  0.22993  0.33098  0.33695  1.0000
  H   H645      1.0  0.31557  0.36554  0.40978  1.0000
  H   H646      1.0  0.17574  0.32793  0.36900  1.0000
  C   C799      1.0  0.32236  0.35367  0.40571  1.0000
  H   H647      1.0  0.30397  0.43482  0.53579  1.0000
  S   S105      1.0  0.42340  0.32007  0.62030  1.0000
  H   H648      1.0  0.29812  0.31172  0.62999  1.0000
  S   S106      1.0  0.40923  0.28524  0.64142  1.0000
  C   C800      1.0  0.35085  0.38263  0.33945  1.0000
  P   P26       1.0  0.36609  0.44522  0.63413  1.0000
  C   C801      1.0  0.19687  0.32597  0.33419  1.0000
  C   C802      1.0  0.40139  0.33064  0.38463  1.0000
  C   C803      1.0  0.44875  0.30945  0.34294  1.0000
  C   C804      1.0  0.33986  0.32297  0.39511  1.0000
  S   S107      1.0  0.40198  0.36078  0.64004  1.0000
  H   H649      1.0  0.22476  0.32383  0.58727  1.0000
  C   C805      1.0  0.31412  0.34521  0.39867  1.0000
  C   C806      1.0  0.48400  0.30969  0.59257  1.0000
  H   H650      1.0  0.32234  0.30177  0.32513  1.0000
  H   H651      1.0  0.23445  0.35382  0.34192  1.0000
  H   H652      1.0  0.30104  0.35057  0.39701  1.0000
  H   H653      1.0  0.34655  0.31136  0.39037  1.0000
  P   P27       1.0  0.20697  0.33623  0.34464  1.0000
  H   H654      1.0  0.27099  0.26981  0.35810  1.0000
  P   P28       1.0  0.32931  0.43407  0.33479  1.0000
  C   C807      1.0  0.20809  0.42669  0.35607  1.0000
  H   H655      1.0  0.26141  0.27043  0.48213  1.0000
  C   C808      1.0  0.37671  0.26434  0.61265  1.0000
  S   S108      1.0  0.38131  0.32239  0.63621  1.0000
  H   H656      1.0  0.21841  0.31345  0.61900  1.0000
  H   H657      1.0  0.40785  0.24712  0.35606  1.0000
  C   C809      1.0  0.42677  0.30034  0.33446  1.0000
  C   C810      1.0  0.48022  0.32887  0.51484  1.0000
  C   C811      1.0  0.24250  0.39256  0.62833  1.0000
  C   C812      1.0  0.31802  0.47486  0.55121  1.0000
  S   S109      1.0  0.38192  0.26953  0.33207  1.0000
  C   C813      1.0  0.24211  0.47276  0.40575  1.0000
  C   C814      1.0  0.18864  0.36819  0.35219  1.0000
  C   C815      1.0  0.48563  0.26226  0.32869  1.0000
  H   H658      1.0  0.26601  0.44782  0.34288  1.0000
  H   H659      1.0  0.38598  0.24658  0.46706  1.0000
  C   C816      1.0  0.42101  0.44390  0.60107  1.0000
  H   H660      1.0  0.18564  0.40914  0.32858  1.0000
  C   C817      1.0  0.35833  0.25418  0.47360  1.0000
  C   C818      1.0  0.27454  0.34937  0.61233  1.0000
  H   H661      1.0  0.30072  0.46673  0.57500  1.0000
  C   C819      1.0  0.32558  0.48584  0.64032  1.0000
  P   P29       1.0  0.32274  0.26510  0.48117  1.0000
  C   C820      1.0  0.47031  0.25759  0.37608  1.0000
  C   C821      1.0  0.31709  0.28966  0.45176  1.0000
  C   C822      1.0  0.28939  0.35077  0.63857  1.0000
  H   H662      1.0  0.19573  0.26623  0.40859  1.0000
  H   H663      1.0  0.36500  0.42331  0.33977  1.0000
  C   C823      1.0  0.30389  0.47092  0.50383  1.0000
  H   H664      1.0  0.22440  0.32879  0.63790  1.0000
  C   C824      1.0  0.44055  0.30885  0.33014  1.0000
  H   H665      1.0  0.38509  0.24949  0.58305  1.0000
  H   H666      1.0  0.21270  0.38091  0.61417  1.0000
  H   H667      1.0  0.41661  0.34216  0.34147  1.0000
  H   H668      1.0  0.32667  0.25517  0.33874  1.0000
  C   C825      1.0  0.27004  0.48216  0.49465  1.0000
  C   C826      1.0  0.21130  0.44157  0.34403  1.0000
  C   C827      1.0  0.29345  0.44044  0.34039  1.0000
  H   H669      1.0  0.35347  0.39535  0.62044  1.0000
  C   C828      1.0  0.40753  0.33922  0.35350  1.0000
  C   C829      1.0  0.25564  0.31159  0.32538  1.0000
  C   C830      1.0  0.35703  0.43501  0.62277  1.0000
  H   H670      1.0  0.30041  0.34484  0.59757  1.0000
  H   H671      1.0  0.29721  0.28648  0.53499  1.0000
  C   C831      1.0  0.29978  0.34799  0.62277  1.0000
  C   C832      1.0  0.41619  0.42879  0.61135  1.0000
  C   C833      1.0  0.47717  0.29583  0.60341  1.0000
  C   C834      1.0  0.44796  0.25430  0.33582  1.0000
  H   H672      1.0  0.45631  0.37440  0.49620  1.0000
  P   P30       1.0  0.47964  0.24480  0.34595  1.0000
  H   H673      1.0  0.42519  0.41656  0.61117  1.0000
  S   S110      1.0  0.45389  0.28539  0.64839  1.0000
  H   H674      1.0  0.34943  0.45845  0.60470  1.0000
  C   C835      1.0  0.27414  0.45507  0.36234  1.0000
  C   C836      1.0  0.22120  0.45151  0.34692  1.0000
  C   C837      1.0  0.27362  0.26168  0.48304  1.0000
  C   C838      1.0  0.23397  0.38171  0.62461  1.0000
  H   H675      1.0  0.36392  0.40925  0.63774  1.0000
  H   H676      1.0  0.37855  0.27422  0.60107  1.0000
  C   C839      1.0  0.32648  0.29921  0.47259  1.0000
  H   H677      1.0  0.45885  0.31662  0.33972  1.0000
  C   C840      1.0  0.38702  0.26468  0.55742  1.0000
  H   H678      1.0  0.31377  0.27969  0.44762  1.0000
  H   H679      1.0  0.33021  0.29693  0.48479  1.0000
  C   C841      1.0  0.29760  0.45870  0.51797  1.0000
  H   H680      1.0  0.33740  0.34709  0.64407  1.0000
  H   H681      1.0  0.20370  0.41238  0.60606  1.0000
  C   C842      1.0  0.36067  0.47814  0.64036  1.0000
  H   H682      1.0  0.22389  0.46286  0.33741  1.0000
  H   H683      1.0  0.47087  0.35086  0.62827  1.0000
  C   C843      1.0  0.30892  0.44435  0.52503  1.0000
  C   C844      1.0  0.37170  0.44562  0.34293  1.0000
  H   H684      1.0  0.45852  0.26448  0.37191  1.0000
  C   C845      1.0  0.45291  0.40554  0.64136  1.0000
  C   C846      1.0  0.48377  0.27856  0.33201  1.0000
  Fe  Fe56      1.0  0.35775  0.28463  0.32282  1.0000
  H   H685      1.0  0.20656  0.44516  0.33222  1.0000
  H   H686      1.0  0.38461  0.43897  0.34439  1.0000
  P   P31       1.0  0.48964  0.36141  0.64867  1.0000
  H   H687      1.0  0.28392  0.46021  0.52348  1.0000
  H   H688      1.0  0.20311  0.48613  0.36192  1.0000
  H   H689      1.0  0.34550  0.48526  0.34177  1.0000
  S   S111      1.0  0.48491  0.33209  0.37439  1.0000
  H   H690      1.0  0.39592  0.41747  0.62928  1.0000
  C   C847      1.0  0.36115  0.24292  0.63161  1.0000
  C   C848      1.0  0.26570  0.32279  0.32545  1.0000
  C   C849      1.0  0.31600  0.31413  0.31895  1.0000
  H   H691      1.0  0.34209  0.24287  0.50733  1.0000
  H   H692      1.0  0.32686  0.47803  0.48625  1.0000
  C   C850      1.0  0.18683  0.30102  0.33327  1.0000
  H   H693      1.0  0.48031  0.39903  0.63930  1.0000
  C   C851      1.0  0.22680  0.47268  0.40150  1.0000
  H   H694      1.0  0.44457  0.31536  0.31698  1.0000
  C   C852      1.0  0.38654  0.26206  0.62480  1.0000
  H   H695      1.0  0.33064  0.32289  0.63611  1.0000
  H   H696      1.0  0.33955  0.24323  0.53782  1.0000
  H   H697      1.0  0.39605  0.26981  0.62219  1.0000
  C   C853      1.0  0.48811  0.25121  0.39703  1.0000
  C   C854      1.0  0.30893  0.37825  0.32654  1.0000
  C   C855      1.0  0.18239  0.30937  0.31747  1.0000
  H   H698      1.0  0.24412  0.48442  0.40808  1.0000
  C   C856      1.0  0.23723  0.41041  0.62380  1.0000
  Fe  Fe57      1.0  0.40246  0.33375  0.63870  1.0000
  C   C857      1.0  0.34147  0.24146  0.60150  1.0000
  H   H699      1.0  0.35828  0.24774  0.33180  1.0000
  C   C858      1.0  0.46938  0.37626  0.64697  1.0000
  H   H700      1.0  0.33074  0.24179  0.45705  1.0000
  C   C859      1.0  0.38344  0.25058  0.64051  1.0000
  C   C860      1.0  0.46870  0.39404  0.64216  1.0000
  C   C861      1.0  0.33842  0.35354  0.31763  1.0000
  C   C862      1.0  0.42161  0.24628  0.35392  1.0000
  S   S112      1.0  0.31347  0.41527  0.64407  1.0000
  C   C863      1.0  0.43297  0.24080  0.64168  1.0000
  H   H701      1.0  0.42550  0.40823  0.64486  1.0000
  H   H702      1.0  0.45248  0.41924  0.63766  1.0000
  H   H703      1.0  0.26044  0.48140  0.44080  1.0000
  S   S113      1.0  0.41604  0.30031  0.31848  1.0000
  H   H704      1.0  0.48614  0.30482  0.32117  1.0000
  S   S114      1.0  0.27468  0.41288  0.64195  1.0000
  H   H705      1.0  0.34364  0.27276  0.64601  1.0000
  C   C864      1.0  0.27415  0.23773  0.35637  1.0000
  C   C865      1.0  0.37386  0.24519  0.46530  1.0000
  H   H706      1.0  0.44033  0.24728  0.62992  1.0000
  C   C866      1.0  0.35129  0.24149  0.34393  1.0000
  C   C867      1.0  0.45703  0.24502  0.34875  1.0000
  C   C868      1.0  0.33273  0.23674  0.42110  1.0000
  H   H707      1.0  0.48783  0.36614  0.48713  1.0000
  H   H708      1.0  0.33522  0.48609  0.52898  1.0000
  C   C869      1.0  0.43053  0.23699  0.36683  1.0000
  C   C870      1.0  0.32407  0.23737  0.36334  1.0000
  C   C871      1.0  0.29196  0.23697  0.35309  1.0000
  H   H709      1.0  0.29525  0.35095  0.64876  1.0000
  C   C872      1.0  0.36676  0.36824  0.64769  1.0000
  C   C873      1.0  0.32791  0.32381  0.64949  1.0000
  H   H710      1.0  0.49028  0.39780  0.39808  1.0000
  C   C874      1.0  0.48967  0.34055  0.50305  1.0000
  S   S115      1.0  0.24760  0.29519  0.64955  1.0000
  C   C875      1.0  0.49029  0.34107  0.64381  1.0000
  H   H711      1.0  0.49066  0.29657  0.63563  1.0000
  C   C876      1.0  0.36581  0.34858  0.70727  1.0000
  H   H712      1.0  0.16776  0.30510  0.73465  1.0000
  H   H713      1.0  0.45623  0.26239  0.70604  1.0000
  H   H714      1.0  0.27033  0.47358  0.73744  1.0000
  H   H715      1.0  0.46276  0.31192  0.74669  1.0000
  S   S116      1.0  0.40821  0.31427  0.66217  1.0000
  C   C877      1.0  0.41955  0.29149  0.71726  1.0000
  H   H716      1.0  0.36388  0.41440  0.70471  1.0000
  H   H717      1.0  0.34944  0.33034  0.75337  1.0000
  S   S117      1.0  0.31618  0.47759  0.69890  1.0000
  H   H718      1.0  0.22471  0.44183  0.79556  1.0000
  H   H719      1.0  0.43919  0.25884  0.68707  1.0000
  H   H720      1.0  0.26422  0.44705  0.68896  1.0000
  C   C878      1.0  0.22561  0.45828  0.77037  1.0000
  C   C879      1.0  0.28952  0.46248  0.66448  1.0000
  S   S118      1.0  0.25138  0.38234  0.68201  1.0000
  H   H721      1.0  0.34775  0.27116  0.70531  1.0000
  S   S119      1.0  0.32988  0.38779  0.68505  1.0000
  C   C880      1.0  0.17688  0.24193  0.72564  1.0000
  S   S120      1.0  0.28361  0.41007  0.67935  1.0000
  H   H722      1.0  0.19992  0.25860  0.75101  1.0000
  S   S121      1.0  0.26045  0.30419  0.72142  1.0000
  C   C881      1.0  0.25443  0.36045  0.69254  1.0000
  C   C882      1.0  0.24202  0.35521  0.70699  1.0000
  C   C883      1.0  0.24412  0.33802  0.71589  1.0000
  C   C884      1.0  0.25817  0.32569  0.70989  1.0000
  C   C885      1.0  0.27048  0.33081  0.69527  1.0000
  C   C886      1.0  0.26885  0.34824  0.68692  1.0000
  H   H723      1.0  0.23092  0.36457  0.71152  1.0000
  H   H724      1.0  0.23472  0.33425  0.72733  1.0000
  H   H725      1.0  0.28150  0.32144  0.69070  1.0000
  C   C887      1.0  0.38021  0.43257  0.66335  1.0000
  C   C888      1.0  0.30600  0.47217  0.68530  1.0000
  C   C889      1.0  0.31090  0.45558  0.68196  1.0000
  C   C890      1.0  0.30264  0.45068  0.67168  1.0000
  H   H726      1.0  0.39142  0.43758  0.65580  1.0000
  H   H727      1.0  0.39005  0.42467  0.68664  1.0000
  H   H728      1.0  0.37883  0.26762  0.71438  1.0000
  H   H729      1.0  0.32104  0.44648  0.68746  1.0000
  H   H730      1.0  0.30645  0.43775  0.66940  1.0000
  H   H731      1.0  0.29823  0.27234  0.73486  1.0000
  H   H732      1.0  0.27872  0.35221  0.67615  1.0000
  H   H733      1.0  0.21516  0.46829  0.77483  1.0000
  H   H734      1.0  0.21935  0.26750  0.76347  1.0000
  C   C891      1.0  0.16894  0.25502  0.75054  1.0000
  C   C892      1.0  0.37941  0.42543  0.68088  1.0000
  C   C893      1.0  0.36498  0.38149  0.67625  1.0000
  H   H735      1.0  0.36562  0.27542  0.76235  1.0000
  C   C894      1.0  0.44309  0.26953  0.70656  1.0000
  H   H736      1.0  0.22936  0.47194  0.74405  1.0000
  H   H737      1.0  0.36437  0.38607  0.68759  1.0000
  C   C895      1.0  0.21763  0.34087  0.68810  1.0000
  H   H738      1.0  0.29701  0.30155  0.71728  1.0000
  C   C896      1.0  0.45719  0.30894  0.68479  1.0000
  C   C897      1.0  0.45187  0.30530  0.67148  1.0000
  H   H739      1.0  0.24958  0.32732  0.65581  1.0000
  C   C898      1.0  0.25868  0.47282  0.71699  1.0000
  H   H740      1.0  0.23003  0.29441  0.74946  1.0000
  H   H741      1.0  0.45034  0.32007  0.69020  1.0000
  C   C899      1.0  0.23373  0.46032  0.75294  1.0000
  H   H742      1.0  0.20080  0.30410  0.71064  1.0000
  H   H743      1.0  0.32363  0.25733  0.74775  1.0000
  H   H744      1.0  0.16813  0.26558  0.75647  1.0000
  C   C900      1.0  0.41351  0.36136  0.69485  1.0000
  C   C901      1.0  0.41128  0.35916  0.71267  1.0000
  C   C902      1.0  0.41025  0.34300  0.72329  1.0000
  H   H745      1.0  0.41505  0.32060  0.69230  1.0000
  H   H746      1.0  0.41442  0.37385  0.68663  1.0000
  H   H747      1.0  0.41055  0.36996  0.71824  1.0000
  H   H748      1.0  0.40875  0.34145  0.73706  1.0000
  C   C903      1.0  0.38526  0.28969  0.74790  1.0000
  C   C904      1.0  0.21495  0.27568  0.75218  1.0000
  H   H749      1.0  0.44394  0.31661  0.72645  1.0000
  C   C905      1.0  0.32048  0.31143  0.66226  1.0000
  C   C906      1.0  0.23167  0.33024  0.67963  1.0000
  C   C907      1.0  0.42208  0.23700  0.67251  1.0000
  C   C908      1.0  0.35083  0.42098  0.68371  1.0000
  C   C909      1.0  0.33346  0.26439  0.67305  1.0000
  S   S122      1.0  0.28021  0.25706  0.71138  1.0000
  H   H750      1.0  0.34801  0.27181  0.74255  1.0000
  C   C910      1.0  0.42403  0.30518  0.74538  1.0000
  C   C911      1.0  0.33680  0.27847  0.73726  1.0000
  H   H751      1.0  0.24874  0.43697  0.67292  1.0000
  C   C912      1.0  0.35946  0.31899  0.75186  1.0000
  C   C913      1.0  0.14181  0.30230  0.70275  1.0000
  S   S123      1.0  0.47713  0.30225  0.70860  1.0000
  C   C914      1.0  0.41664  0.27698  0.69626  1.0000
  Fe  Fe58      1.0  0.26574  0.28449  0.70506  1.0000
  C   C915      1.0  0.34664  0.27180  0.69241  1.0000
  H   H752      1.0  0.41640  0.34901  0.67381  1.0000
  C   C916      1.0  0.35477  0.32940  0.69720  1.0000
  H   H753      1.0  0.38062  0.33366  0.68831  1.0000
  C   C917      1.0  0.30824  0.29521  0.72273  1.0000
  H   H754      1.0  0.34715  0.30102  0.72468  1.0000
  S   S124      1.0  0.37307  0.28882  0.68219  1.0000
  C   C918      1.0  0.22090  0.29084  0.74435  1.0000
  S   S125      1.0  0.30093  0.37836  0.65869  1.0000
  C   C919      1.0  0.16626  0.29079  0.71659  1.0000
  H   H755      1.0  0.12513  0.32557  0.70948  1.0000
  C   C920      1.0  0.32313  0.27025  0.74009  1.0000
  C   C921      1.0  0.43627  0.28157  0.71709  1.0000
  C   C922      1.0  0.35164  0.42790  0.66619  1.0000
  H   H756      1.0  0.16037  0.27917  0.69868  1.0000
  C   C923      1.0  0.43972  0.31069  0.73982  1.0000
  C   C924      1.0  0.19875  0.27031  0.69991  1.0000
  C   C925      1.0  0.36467  0.41972  0.69109  1.0000
  H   H757      1.0  0.40923  0.27558  0.68779  1.0000
  C   C926      1.0  0.41466  0.34740  0.68765  1.0000
  C   C927      1.0  0.41368  0.33123  0.69824  1.0000
  C   C928      1.0  0.35562  0.30269  0.75863  1.0000
  C   C929      1.0  0.43341  0.26744  0.69594  1.0000
  S   S126      1.0  0.27212  0.25261  0.67579  1.0000
  C   C930      1.0  0.36834  0.33672  0.69698  1.0000
  C   C931      1.0  0.19834  0.28307  0.68480  1.0000
  C   C932      1.0  0.34983  0.38086  0.67204  1.0000
  S   S127      1.0  0.27969  0.28942  0.67756  1.0000
  C   C933      1.0  0.16079  0.30431  0.72552  1.0000
  C   C934      1.0  0.20432  0.29627  0.72248  1.0000
  C   C935      1.0  0.21718  0.36220  0.66155  1.0000
  H   H758      1.0  0.42649  0.37689  0.65366  1.0000
  C   C936      1.0  0.44536  0.30026  0.76854  1.0000
  H   H759      1.0  0.34263  0.30143  0.76538  1.0000
  C   C937      1.0  0.41899  0.29734  0.76274  1.0000
  C   C938      1.0  0.22795  0.43212  0.69467  1.0000
  H   H760      1.0  0.21238  0.24545  0.71118  1.0000
  Fe  Fe59      1.0  0.25868  0.28016  0.67246  1.0000
  P   P32       1.0  0.41096  0.30788  0.72999  1.0000
  C   C939      1.0  0.15655  0.28974  0.70537  1.0000
  C   C940      1.0  0.20378  0.27071  0.74511  1.0000
  C   C941      1.0  0.43190  0.24499  0.65736  1.0000
  H   H761      1.0  0.33938  0.41657  0.69150  1.0000
  C   C942      1.0  0.35653  0.28030  0.66163  1.0000
  H   H762      1.0  0.39262  0.37688  0.66899  1.0000
  C   C943      1.0  0.48042  0.28398  0.68387  1.0000
  H   H763      1.0  0.06691  0.25150  0.88655  1.0000
  C   C944      1.0  0.21560  0.30112  0.72952  1.0000
  H   H764      1.0  0.22083  0.31247  0.72315  1.0000
  Fe  Fe60      1.0  0.29217  0.26154  0.68304  1.0000
  C   C945      1.0  0.17678  0.25550  0.73308  1.0000
  S   S128      1.0  0.24343  0.27738  0.69964  1.0000
  H   H765      1.0  0.13439  0.30145  0.69403  1.0000
  S   S129      1.0  0.27894  0.45645  0.65172  1.0000
  C   C946      1.0  0.47497  0.28020  0.67074  1.0000
  C   C947      1.0  0.13659  0.31588  0.71146  1.0000
  C   C948      1.0  0.42963  0.29494  0.77428  1.0000
  C   C949      1.0  0.33625  0.29506  0.72707  1.0000
  H   H766      1.0  0.39521  0.27825  0.74663  1.0000
  Fe  Fe61      1.0  0.25881  0.25028  0.70377  1.0000
  C   C950      1.0  0.48266  0.34573  0.70107  1.0000
  C   C951      1.0  0.37621  0.32068  0.74317  1.0000
  H   H767      1.0  0.20920  0.42854  0.71844  1.0000
  P   P33       1.0  0.32078  0.32517  0.70681  1.0000
  C   C952      1.0  0.33851  0.33387  0.70769  1.0000
  C   C953      1.0  0.32235  0.32512  0.68440  1.0000
  C   C954      1.0  0.32887  0.33808  0.67137  1.0000
  H   H768      1.0  0.42578  0.28880  0.78764  1.0000
  H   H769      1.0  0.37619  0.35467  0.70663  1.0000
  H   H770      1.0  0.23751  0.31796  0.68665  1.0000
  C   C955      1.0  0.31797  0.31188  0.67963  1.0000
  C   C956      1.0  0.33610  0.34567  0.71816  1.0000
  C   C957      1.0  0.34969  0.35309  0.71783  1.0000
  C   C958      1.0  0.30099  0.33929  0.71471  1.0000
  C   C959      1.0  0.28979  0.33389  0.73030  1.0000
  C   C960      1.0  0.27457  0.34502  0.73614  1.0000
  C   C961      1.0  0.27059  0.36175  0.72675  1.0000
  C   C962      1.0  0.28191  0.36739  0.71160  1.0000
  C   C963      1.0  0.29706  0.35626  0.70560  1.0000
  C   C964      1.0  0.47144  0.29824  0.69106  1.0000
  C   C965      1.0  0.38917  0.30604  0.74089  1.0000
  C   C966      1.0  0.30886  0.27864  0.73281  1.0000
  C   C967      1.0  0.40964  0.28885  0.70701  1.0000
  S   S130      1.0  0.31963  0.25318  0.66973  1.0000
  H   H771      1.0  0.31290  0.30164  0.68908  1.0000
  H   H772      1.0  0.32365  0.34958  0.72618  1.0000
  H   H773      1.0  0.34757  0.36273  0.72536  1.0000
  H   H774      1.0  0.29255  0.32111  0.73799  1.0000
  H   H775      1.0  0.26567  0.34053  0.74776  1.0000
  H   H776      1.0  0.25855  0.37024  0.73094  1.0000
  H   H777      1.0  0.27858  0.38021  0.70418  1.0000
  H   H778      1.0  0.30567  0.36089  0.69383  1.0000
  H   H779      1.0  0.40698  0.29297  0.76742  1.0000
  P   P34       1.0  0.18493  0.27425  0.72016  1.0000
  H   H780      1.0  0.44441  0.28341  0.72456  1.0000
  H   H781      1.0  0.18947  0.29533  0.68490  1.0000
  C   C968      1.0  0.24334  0.43755  0.68636  1.0000
  H   H782      1.0  0.33213  0.34857  0.67463  1.0000
  H   H783      1.0  0.37892  0.33341  0.73820  1.0000
  H   H784      1.0  0.35677  0.32071  0.68870  1.0000
  C   C969      1.0  0.32189  0.30361  0.71979  1.0000
  C   C970      1.0  0.41143  0.32888  0.71616  1.0000
  H   H785      1.0  0.14187  0.32726  0.72979  1.0000
  C   C971      1.0  0.38097  0.37609  0.66587  1.0000
  H   H786      1.0  0.22148  0.42719  0.68770  1.0000
  C   C972      1.0  0.22110  0.43283  0.71201  1.0000
  C   C973      1.0  0.22973  0.43879  0.72109  1.0000
  C   C974      1.0  0.24536  0.44401  0.71285  1.0000
  C   C975      1.0  0.25206  0.44335  0.69544  1.0000
  P   P35       1.0  0.25767  0.45030  0.72451  1.0000
  C   C976      1.0  0.24738  0.44748  0.74707  1.0000
  C   C977      1.0  0.27867  0.43609  0.72227  1.0000
  C   C978      1.0  0.29331  0.44141  0.72293  1.0000
  C   C979      1.0  0.30928  0.43001  0.72190  1.0000
  C   C980      1.0  0.31081  0.41325  0.72005  1.0000
  C   C981      1.0  0.29638  0.40788  0.71924  1.0000
  C   C982      1.0  0.28035  0.41917  0.72047  1.0000
  C   C983      1.0  0.28454  0.47908  0.66781  1.0000
  C   C984      1.0  0.23134  0.35162  0.65296  1.0000
  C   C985      1.0  0.23099  0.44338  0.78205  1.0000
  C   C986      1.0  0.24447  0.43048  0.77629  1.0000
  C   C987      1.0  0.25264  0.43248  0.75887  1.0000
  C   C988      1.0  0.35071  0.37468  0.65746  1.0000
  C   C989      1.0  0.46058  0.29074  0.66462  1.0000
  C   C990      1.0  0.14605  0.31685  0.72287  1.0000
  C   C991      1.0  0.20996  0.28035  0.66945  1.0000
  C   C992      1.0  0.23853  0.33560  0.66214  1.0000
  H   H787      1.0  0.21258  0.33692  0.70172  1.0000
  C   C993      1.0  0.21041  0.35684  0.67908  1.0000
  Fe  Fe62      1.0  0.30996  0.39622  0.66896  1.0000
  H   H788      1.0  0.45375  0.29816  0.77739  1.0000
  H   H789      1.0  0.22431  0.43899  0.73455  1.0000
  Fe  Fe63      1.0  0.27456  0.39365  0.66710  1.0000
  H   H790      1.0  0.29268  0.45441  0.72384  1.0000
  H   H791      1.0  0.32055  0.43444  0.72199  1.0000
  H   H792      1.0  0.32321  0.40449  0.71889  1.0000
  H   H793      1.0  0.29772  0.39502  0.71731  1.0000
  H   H794      1.0  0.26934  0.41466  0.71988  1.0000
  C   C994      1.0  0.48221  0.34733  0.68382  1.0000
  C   C995      1.0  0.45039  0.30812  0.75131  1.0000
  H   H795      1.0  0.47632  0.33654  0.71102  1.0000
  H   H796      1.0  0.24863  0.41892  0.78535  1.0000
  H   H797      1.0  0.26303  0.42232  0.75470  1.0000
  C   C996      1.0  0.33431  0.26437  0.68978  1.0000
  H   H798      1.0  0.21003  0.29038  0.65791  1.0000
  C   C997      1.0  0.36855  0.28805  0.75679  1.0000
  H   H799      1.0  0.08506  0.25784  0.85720  1.0000
  H   H800      1.0  0.38414  0.25367  0.74361  1.0000
  H   H801      1.0  0.39674  0.29643  0.70676  1.0000
  C   C998      1.0  0.19827  0.28103  0.73028  1.0000
  C   C999      1.0  0.35768  0.27985  0.67838  1.0000
  C   C1000     1.0  0.16243  0.24068  0.76065  1.0000
  C   C1001     1.0  0.45394  0.37024  0.65184  1.0000
  C   C1002     1.0  0.38432  0.25399  0.71735  1.0000
  H   H802      1.0  0.19975  0.36520  0.68574  1.0000
  H   H803      1.0  0.24629  0.47719  0.69554  1.0000
  H   H804      1.0  0.32581  0.25818  0.70070  1.0000
  H   H805      1.0  0.21152  0.37469  0.65486  1.0000
  H   H806      1.0  0.23263  0.24066  0.68401  1.0000
  H   H807      1.0  0.34063  0.42898  0.66081  1.0000
  H   H808      1.0  0.26357  0.35685  0.65303  1.0000
  C   C1003     1.0  0.25165  0.48283  0.70285  1.0000
  H   H809      1.0  0.24087  0.23982  0.74635  1.0000
  C   C1004     1.0  0.34451  0.27243  0.65898  1.0000
  H   H810      1.0  0.44116  0.31382  0.66647  1.0000
  C   C1005     1.0  0.33186  0.33731  0.65401  1.0000
  C   C1006     1.0  0.22216  0.26498  0.66910  1.0000
  H   H811      1.0  0.09054  0.23805  0.83723  1.0000
  C   C1007     1.0  0.36633  0.43375  0.65590  1.0000
  C   C1008     1.0  0.21126  0.25507  0.69951  1.0000
  C   C1009     1.0  0.07956  0.24646  0.86132  1.0000
  H   H812      1.0  0.33905  0.37452  0.65390  1.0000
  H   H813      1.0  0.31712  0.30113  0.65873  1.0000
  H   H814      1.0  0.15711  0.24001  0.77431  1.0000
  C   C1010     1.0  0.43825  0.38172  0.65062  1.0000
  Fe  Fe64      1.0  0.28626  0.42784  0.65356  1.0000
  H   H815      1.0  0.36494  0.28661  0.65071  1.0000
  C   C1011     1.0  0.38188  0.36903  0.65187  1.0000
  H   H816      1.0  0.47534  0.33939  0.68069  1.0000
  Fe  Fe65      1.0  0.38930  0.30143  0.65809  1.0000
  H   H817      1.0  0.23153  0.26317  0.65731  1.0000
  H   H818      1.0  0.38614  0.25065  0.69187  1.0000
  H   H819      1.0  0.42160  0.24034  0.68451  1.0000
  H   H820      1.0  0.45398  0.35665  0.65655  1.0000
  H   H821      1.0  0.48184  0.26899  0.66544  1.0000
  H   H822      1.0  0.43857  0.25461  0.65768  1.0000
  C   C1012     1.0  0.38730  0.24615  0.73381  1.0000
  C   C1013     1.0  0.29276  0.48390  0.67822  1.0000
  C   C1014     1.0  0.38850  0.24431  0.70461  1.0000
  C   C1015     1.0  0.22279  0.25234  0.68412  1.0000
  C   C1016     1.0  0.26526  0.48085  0.72622  1.0000
  C   C1017     1.0  0.06938  0.24286  0.87786  1.0000
  H   H823      1.0  0.18205  0.24227  0.71205  1.0000
  H   H824      1.0  0.39014  0.24994  0.65040  1.0000
  S   S131      1.0  0.17809  0.69727  0.23142  1.0000
  H   H825      1.0  0.13024  0.64602  0.30587  1.0000
  C   C1018     1.0  0.42990  0.57984  0.29866  1.0000
  C   C1019     1.0  0.11717  0.69425  0.29433  1.0000
  C   C1020     1.0  0.36289  0.63243  0.26702  1.0000
  C   C1021     1.0  0.19160  0.71211  0.25009  1.0000
  C   C1022     1.0  0.19125  0.69715  0.24529  1.0000
  C   C1023     1.0  0.20141  0.68150  0.25185  1.0000
  H   H826      1.0  0.14163  0.70521  0.25434  1.0000
  H   H827      1.0  0.44280  0.63266  0.27689  1.0000
  H   H828      1.0  0.35146  0.62908  0.27609  1.0000
  C   C1024     1.0  0.22471  0.50253  0.26898  1.0000
  S   S132      1.0  0.13558  0.71900  0.21640  1.0000
  H   H829      1.0  0.46847  0.63358  0.20771  1.0000
  H   H830      1.0  0.21912  0.50791  0.24376  1.0000
  C   C1025     1.0  0.15436  0.71819  0.01450  1.0000
  C   C1026     1.0  0.33016  0.60932  0.23447  1.0000
  H   H831      1.0  0.20234  0.72296  0.26508  1.0000
  H   H832      1.0  0.10307  0.70280  0.22189  1.0000
  Fe  Fe66      1.0  0.16076  0.72153  0.22024  1.0000
  C   C1027     1.0  0.43572  0.64410  0.24089  1.0000
  H   H833      1.0  0.42885  0.65513  0.24656  1.0000
  H   H834      1.0  0.15942  0.70729  0.02367  1.0000
  C   C1028     1.0  0.16976  0.67027  0.31260  1.0000
  C   C1029     1.0  0.12797  0.68697  0.07189  1.0000
  H   H835      1.0  0.10449  0.69813  0.30202  1.0000
  H   H836      1.0  0.31169  0.65941  0.27913  1.0000
  C   C1030     1.0  0.25832  0.55585  0.30308  1.0000
  S   S133      1.0  0.24552  0.64392  0.29103  1.0000
  H   H837      1.0  0.25367  0.51813  0.28584  1.0000
  C   C1031     1.0  0.09662  0.71196  0.21233  1.0000
  C   C1032     1.0  0.14420  0.67859  0.07522  1.0000
  H   H838      1.0  0.46062  0.60508  0.22002  1.0000
  C   C1033     1.0  0.32426  0.60100  0.25135  1.0000
  C   C1034     1.0  0.22454  0.50940  0.28286  1.0000
  C   C1035     1.0  0.07564  0.73133  0.14905  1.0000
  H   H839      1.0  0.20131  0.66994  0.24804  1.0000
  H   H840      1.0  0.34919  0.64604  0.24696  1.0000
  H   H841      1.0  0.28549  0.54778  0.29391  1.0000
  H   H842      1.0  0.11410  0.70209  0.19087  1.0000
  C   C1036     1.0  0.21309  0.53090  0.25396  1.0000
  H   H843      1.0  0.22135  0.63206  0.27791  1.0000
  H   H844      1.0  0.35990  0.57596  0.22019  1.0000
  H   H845      1.0  0.11231  0.71351  0.27166  1.0000
  H   H846      1.0  0.21437  0.62675  0.25246  1.0000
  C   C1037     1.0  0.21291  0.53781  0.26787  1.0000
  C   C1038     1.0  0.41640  0.65842  0.30350  1.0000
  C   C1039     1.0  0.39980  0.64795  0.28965  1.0000
  C   C1040     1.0  0.28085  0.59285  0.31162  1.0000
  H   H847      1.0  0.35336  0.60573  0.30076  1.0000
  H   H848      1.0  0.18384  0.72420  0.24503  1.0000
  C   C1041     1.0  0.14564  0.67565  0.29157  1.0000
  C   C1042     1.0  0.21206  0.69560  0.26817  1.0000
  H   H849      1.0  0.14604  0.66564  0.08291  1.0000
  Fe  Fe67      1.0  0.23474  0.66916  0.29928  1.0000
  C   C1043     1.0  0.34284  0.60025  0.22317  1.0000
  C   C1044     1.0  0.17854  0.65005  0.28510  1.0000
  C   C1045     1.0  0.20207  0.71136  0.26142  1.0000
  H   H850      1.0  0.32499  0.62287  0.23027  1.0000
  H   H851      1.0  0.41696  0.66558  0.31261  1.0000
  S   S134      1.0  0.25707  0.66720  0.31098  1.0000
  H   H852      1.0  0.11723  0.68050  0.07693  1.0000
  P   P36       1.0  0.41411  0.62547  0.26680  1.0000
  H   H853      1.0  0.16291  0.68178  0.26691  1.0000
  C   C1046     1.0  0.19552  0.64481  0.28746  1.0000
  H   H854      1.0  0.37520  0.65424  0.22618  1.0000
  H   H855      1.0  0.22922  0.50085  0.29383  1.0000
  H   H856      1.0  0.31484  0.60842  0.26011  1.0000
  C   C1047     1.0  0.41040  0.57483  0.28397  1.0000
  C   C1048     1.0  0.15808  0.68688  0.06858  1.0000
  H   H857      1.0  0.16771  0.70626  0.99285  1.0000
  C   C1049     1.0  0.43158  0.64957  0.29458  1.0000
  H   H858      1.0  0.25974  0.56575  0.30875  1.0000
  H   H859      1.0  0.32115  0.54599  0.30985  1.0000
  C   C1050     1.0  0.08270  0.72480  0.21735  1.0000
  C   C1051     1.0  0.21896  0.51327  0.25453  1.0000
  H   H860      1.0  0.18430  0.63584  0.24815  1.0000
  C   C1052     1.0  0.39358  0.63204  0.26032  1.0000
  C   C1053     1.0  0.37625  0.64666  0.23891  1.0000
  C   C1054     1.0  0.33055  0.65430  0.29464  1.0000
  C   C1055     1.0  0.21849  0.52707  0.28252  1.0000
  S   S135      1.0  0.22461  0.69486  0.28284  1.0000
  P   P37       1.0  0.21878  0.53577  0.30045  1.0000
  C   C1056     1.0  0.26847  0.59791  0.30148  1.0000
  C   C1057     1.0  0.24000  0.53952  0.29823  1.0000
  C   C1058     1.0  0.24199  0.55276  0.30492  1.0000
  C   C1059     1.0  0.45806  0.63204  0.21889  1.0000
  C   C1060     1.0  0.27285  0.54559  0.29482  1.0000
  C   C1061     1.0  0.27107  0.53197  0.28870  1.0000
  C   C1062     1.0  0.25471  0.52893  0.29038  1.0000
  C   C1063     1.0  0.43089  0.63978  0.28331  1.0000
  C   C1064     1.0  0.42817  0.59685  0.28949  1.0000
  C   C1065     1.0  0.43129  0.62798  0.24802  1.0000
  H   H861      1.0  0.07982  0.71408  0.13196  1.0000
  C   C1066     1.0  0.17567  0.57237  0.31340  1.0000
  C   C1067     1.0  0.20326  0.55589  0.30105  1.0000
  C   C1068     1.0  0.20738  0.57117  0.29011  1.0000
  C   C1069     1.0  0.19584  0.58689  0.29098  1.0000
  C   C1070     1.0  0.44908  0.64609  0.22640  1.0000
  C   C1071     1.0  0.31667  0.65107  0.29002  1.0000
  H   H862      1.0  0.30735  0.58235  0.31258  1.0000
  H   H863      1.0  0.37594  0.55222  0.30434  1.0000
  Fe  Fe68      1.0  0.26662  0.64102  0.30480  1.0000
  H   H864      1.0  0.42183  0.55585  0.30356  1.0000
  H   H865      1.0  0.20839  0.55149  0.26712  1.0000
  C   C1072     1.0  0.44028  0.61394  0.24034  1.0000
  H   H866      1.0  0.43705  0.60141  0.24554  1.0000
  H   H867      1.0  0.09384  0.73331  0.10643  1.0000
  H   H868      1.0  0.11290  0.70993  0.05949  1.0000
  H   H869      1.0  0.40343  0.56632  0.28194  1.0000
  H   H870      1.0  0.16664  0.70980  0.05348  1.0000
  C   C1073     1.0  0.36161  0.64204  0.25055  1.0000
  C   C1074     1.0  0.36621  0.56320  0.30037  1.0000
  C   C1075     1.0  0.39219  0.64168  0.24374  1.0000
  C   C1076     1.0  0.36646  0.57938  0.30253  1.0000
  H   H871      1.0  0.21972  0.57100  0.28119  1.0000
  H   H872      1.0  0.19938  0.59870  0.28301  1.0000
  S   S136      1.0  0.13601  0.73061  0.16701  1.0000
  C   C1077     1.0  0.30944  0.63690  0.29924  1.0000
  H   H873      1.0  0.20872  0.53923  0.24271  1.0000
  H   H874      1.0  0.43512  0.60509  0.29193  1.0000
  P   P38       1.0  0.16168  0.65919  0.30118  1.0000
  C   C1078     1.0  0.34980  0.58289  0.22883  1.0000
  C   C1079     1.0  0.40853  0.59189  0.27487  1.0000
  C   C1080     1.0  0.13937  0.71224  0.05555  1.0000
  C   C1081     1.0  0.41710  0.60317  0.27788  1.0000
  C   C1082     1.0  0.41496  0.63884  0.28078  1.0000
  C   C1083     1.0  0.20832  0.63623  0.27583  1.0000
  C   C1084     1.0  0.21172  0.68070  0.26330  1.0000
  H   H875      1.0  0.16140  0.64999  0.26920  1.0000
  H   H876      1.0  0.45252  0.65854  0.22105  1.0000
  C   C1085     1.0  0.20433  0.63307  0.26162  1.0000
  C   C1086     1.0  0.45364  0.61598  0.22583  1.0000
  H   H877      1.0  0.06967  0.72282  0.16014  1.0000
  H   H878      1.0  0.33619  0.66519  0.28732  1.0000
  H   H879      1.0  0.37632  0.58085  0.30820  1.0000
  C   C1087     1.0  0.17996  0.58749  0.30255  1.0000
  H   H880      1.0  0.40330  0.64549  0.23452  1.0000
  H   H881      1.0  0.28237  0.52350  0.28305  1.0000
  C   C1088     1.0  0.42087  0.56888  0.29606  1.0000
  C   C1089     1.0  0.15572  0.70360  0.05868  1.0000
  H   H882      1.0  0.37938  0.62046  0.28496  1.0000
  C   C1090     1.0  0.12555  0.70371  0.06202  1.0000
  C   C1091     1.0  0.15007  0.68479  0.27461  1.0000
  H   H883      1.0  0.38734  0.64755  0.28805  1.0000
  C   C1092     1.0  0.18741  0.63816  0.25923  1.0000
  H   H884      1.0  0.40023  0.59626  0.26570  1.0000
  C   C1093     1.0  0.40052  0.65766  0.30098  1.0000
  H   H885      1.0  0.21952  0.66859  0.26828  1.0000
  H   H886      1.0  0.17069  0.68036  0.07110  1.0000
  C   C1094     1.0  0.34392  0.57454  0.24573  1.0000
  C   C1095     1.0  0.33070  0.58340  0.25693  1.0000
  P   P39       1.0  0.32410  0.57313  0.27910  1.0000
  C   C1096     1.0  0.33989  0.57519  0.28957  1.0000
  C   C1097     1.0  0.30256  0.58351  0.28767  1.0000
  C   C1098     1.0  0.29789  0.58590  0.30465  1.0000
  H   H887      1.0  0.34743  0.60674  0.21010  1.0000
  C   C1099     1.0  0.37875  0.62753  0.27195  1.0000
  C   C1100     1.0  0.27300  0.59546  0.28458  1.0000
  C   C1101     1.0  0.28993  0.58801  0.27776  1.0000
  C   C1102     1.0  0.34014  0.59138  0.29194  1.0000
  C   C1103     1.0  0.35341  0.59341  0.29842  1.0000
  H   H888      1.0  0.07835  0.72555  0.23081  1.0000
  H   H889      1.0  0.18075  0.68661  0.28931  1.0000
  C   C1104     1.0  0.35310  0.56112  0.29372  1.0000
  C   C1105     1.0  0.32258  0.55101  0.28235  1.0000
  C   C1106     1.0  0.32105  0.54078  0.29905  1.0000
  H   H890      1.0  0.10031  0.72346  0.16904  1.0000
  C   C1107     1.0  0.31822  0.51710  0.28843  1.0000
  C   C1108     1.0  0.31931  0.52732  0.27184  1.0000
  C   C1109     1.0  0.32127  0.54430  0.26882  1.0000
  H   H891      1.0  0.34981  0.56126  0.25015  1.0000
  C   C1110     1.0  0.17450  0.64640  0.27106  1.0000
  C   C1111     1.0  0.12156  0.70296  0.27727  1.0000
  C   C1112     1.0  0.09473  0.72361  0.18249  1.0000
  H   H892      1.0  0.26333  0.59932  0.27684  1.0000
  H   H893      1.0  0.29318  0.58587  0.26476  1.0000
  H   H894      1.0  0.33006  0.60240  0.28884  1.0000
  S   S137      1.0  0.35607  0.64678  0.31228  1.0000
  H   H895      1.0  0.19889  0.64711  0.29842  1.0000
  C   C1113     1.0  0.10270  0.71144  0.19489  1.0000
  H   H896      1.0  0.35335  0.54853  0.29189  1.0000
  H   H897      1.0  0.25535  0.60368  0.30670  1.0000
  C   C1114     1.0  0.14316  0.73277  0.01993  1.0000
  H   H898      1.0  0.31635  0.50405  0.29087  1.0000
  H   H899      1.0  0.31828  0.52216  0.26140  1.0000
  H   H900      1.0  0.32138  0.55222  0.25606  1.0000
  C   C1115     1.0  0.13804  0.69827  0.26746  1.0000
  S   S138      1.0  0.29396  0.63160  0.29157  1.0000
  C   C1116     1.0  0.33763  0.64308  0.30816  1.0000
  H   H901      1.0  0.19384  0.51321  0.31198  1.0000
  H   H902      1.0  0.14737  0.73229  0.07430  1.0000
  C   C1117     1.0  0.17846  0.68347  0.30323  1.0000
  C   C1118     1.0  0.31608  0.62599  0.31321  1.0000
  H   H903      1.0  0.17120  0.59976  0.30338  1.0000
  C   C1119     1.0  0.18729  0.55663  0.31272  1.0000
  C   C1120     1.0  0.31895  0.52388  0.30204  1.0000
  H   H904      1.0  0.44387  0.64984  0.29690  1.0000
  H   H905      1.0  0.29498  0.67629  0.30878  1.0000
  C   C1121     1.0  0.12922  0.68076  0.30153  1.0000
  C   C1122     1.0  0.15266  0.73135  0.98482  1.0000
  C   C1123     1.0  0.15910  0.71752  0.99700  1.0000
  H   H906      1.0  0.43790  0.57538  0.30815  1.0000
  P   P40       1.0  0.13645  0.73373  0.04253  1.0000
  Fe  Fe69      1.0  0.14214  0.73553  0.19019  1.0000
  H   H907      1.0  0.38867  0.66428  0.30807  1.0000
  C   C1124     1.0  0.18430  0.69271  0.31178  1.0000
  H   H908      1.0  0.22938  0.48884  0.26950  1.0000
  H   H909      1.0  0.19129  0.70268  0.30444  1.0000
  H   H910      1.0  0.23101  0.56056  0.31185  1.0000
  C   C1125     1.0  0.08137  0.72636  0.13312  1.0000
  H   H911      1.0  0.31749  0.51614  0.31502  1.0000
  S   S139      1.0  0.16824  0.73597  0.19315  1.0000
  H   H912      1.0  0.12584  0.67450  0.31492  1.0000
  C   C1126     1.0  0.15371  0.64082  0.31522  1.0000
  C   C1127     1.0  0.13808  0.63743  0.31454  1.0000
  H   H913      1.0  0.20991  0.73646  0.21508  1.0000
  H   H914      1.0  0.23550  0.73589  0.22587  1.0000
  C   C1128     1.0  0.08048  0.73636  0.18746  1.0000
  H   H915      1.0  0.26955  0.69917  0.31589  1.0000
  H   H916      1.0  0.04515  0.73622  0.19923  1.0000
  Fe  Fe70      1.0  0.30080  0.63473  0.54639  1.0000
  S   S140      1.0  0.27748  0.62944  0.56657  1.0000
  S   S141      1.0  0.30012  0.63994  0.51825  1.0000
  Fe  Fe71      1.0  0.32280  0.62871  0.57263  1.0000
  S   S142      1.0  0.30146  0.62206  0.59503  1.0000
  S   S143      1.0  0.35006  0.62702  0.57477  1.0000
  Fe  Fe72      1.0  0.29564  0.60737  0.57869  1.0000
  S   S144      1.0  0.28703  0.58242  0.59022  1.0000
  Fe  Fe73      1.0  0.28502  0.64477  0.58114  1.0000
  S   S145      1.0  0.26424  0.66221  0.59623  1.0000
  S   S146      1.0  0.31864  0.61144  0.55758  1.0000
  S   S147      1.0  0.30671  0.65255  0.55965  1.0000
  Fe  Fe74      1.0  0.27360  0.57952  0.47594  1.0000
  S   S148      1.0  0.28183  0.59751  0.45116  1.0000
  S   S149      1.0  0.27643  0.57931  0.50267  1.0000
  Fe  Fe75      1.0  0.26189  0.55748  0.45786  1.0000
  S   S150      1.0  0.26876  0.57394  0.43167  1.0000
  S   S151      1.0  0.25215  0.53290  0.46358  1.0000
  Fe  Fe76      1.0  0.29259  0.57364  0.44019  1.0000
  S   S152      1.0  0.31867  0.56422  0.42495  1.0000
  Fe  Fe77      1.0  0.25719  0.59617  0.44491  1.0000
  S   S153      1.0  0.23838  0.62041  0.43656  1.0000
  S   S154      1.0  0.28647  0.55580  0.46545  1.0000
  S   S155      1.0  0.24817  0.57972  0.47069  1.0000
  Fe  Fe78      1.0  0.25571  0.52670  0.35982  1.0000
  C   C1129     1.0  0.33825  0.60719  0.62091  1.0000
  S   S156      1.0  0.22763  0.53783  0.36109  1.0000
  Fe  Fe79      1.0  0.28138  0.50351  0.38038  1.0000
  S   S157      1.0  0.30404  0.50539  0.35799  1.0000
  C   C1130     1.0  0.39535  0.67380  0.59772  1.0000
  Fe  Fe80      1.0  0.29164  0.53343  0.35272  1.0000
  H   H917      1.0  0.18735  0.49147  0.33853  1.0000
  Fe  Fe81      1.0  0.28634  0.50253  0.34270  1.0000
  S   S158      1.0  0.27046  0.53184  0.37640  1.0000
  S   S159      1.0  0.26479  0.49813  0.36554  1.0000
  Fe  Fe82      1.0  0.24212  0.65384  0.33563  1.0000
  S   S160      1.0  0.25343  0.62737  0.33041  1.0000
  S   S161      1.0  0.23903  0.66318  0.36002  1.0000
  H   H918      1.0  0.23257  0.52379  0.33196  1.0000
  C   C1131     1.0  0.45532  0.53947  0.37222  1.0000
  H   H919      1.0  0.17405  0.62563  0.56604  1.0000
  H   H920      1.0  0.42506  0.72705  0.61352  1.0000
  H   H921      1.0  0.22565  0.50252  0.35847  1.0000
  H   H922      1.0  0.12040  0.62018  0.32456  1.0000
  C   C1132     1.0  0.42539  0.59066  0.61774  1.0000
  C   C1133     1.0  0.21106  0.63363  0.62414  1.0000
  H   H923      1.0  0.25624  0.70045  0.34643  1.0000
  C   C1134     1.0  0.32956  0.56230  0.60980  1.0000
  C   C1135     1.0  0.41668  0.67464  0.61871  1.0000
  C   C1136     1.0  0.34558  0.57390  0.34067  1.0000
  C   C1137     1.0  0.37955  0.55542  0.58958  1.0000
  C   C1138     1.0  0.46922  0.63502  0.33028  1.0000
  C   C1139     1.0  0.29907  0.49015  0.45909  1.0000
  S   S162      1.0  0.46694  0.66301  0.34384  1.0000
  H   H924      1.0  0.45404  0.52745  0.38125  1.0000
  Fe  Fe83      1.0  0.38109  0.58719  0.34355  1.0000
  S   S163      1.0  0.35902  0.60766  0.35260  1.0000
  S   S164      1.0  0.37893  0.56027  0.34398  1.0000
  Fe  Fe84      1.0  0.40723  0.61009  0.33505  1.0000
  S   S165      1.0  0.38735  0.63248  0.34325  1.0000
  H   H925      1.0  0.36649  0.56605  0.55151  1.0000
  Fe  Fe85      1.0  0.37745  0.61272  0.36542  1.0000
  S   S166      1.0  0.36722  0.61725  0.39215  1.0000
  H   H926      1.0  0.25986  0.70786  0.62599  1.0000
  H   H927      1.0  0.26291  0.55264  0.60104  1.0000
  S   S167      1.0  0.39863  0.59074  0.35850  1.0000
  C   C1140     1.0  0.46282  0.55241  0.64044  1.0000
  C   C1141     1.0  0.28353  0.50552  0.50734  1.0000
  H   H928      1.0  0.27215  0.54147  0.53369  1.0000
  H   H929      1.0  0.30893  0.50068  0.61004  1.0000
  C   C1142     1.0  0.34026  0.61485  0.63327  1.0000
  C   C1143     1.0  0.45852  0.64772  0.33894  1.0000
  C   C1144     1.0  0.44073  0.64852  0.34353  1.0000
  C   C1145     1.0  0.43366  0.63655  0.33967  1.0000
  H   H930      1.0  0.25852  0.57257  0.57139  1.0000
  H   H931      1.0  0.47801  0.54107  0.37926  1.0000
  H   H932      1.0  0.32393  0.61956  0.37932  1.0000
  H   H933      1.0  0.43240  0.65835  0.35021  1.0000
  H   H934      1.0  0.41998  0.63721  0.34342  1.0000
  C   C1146     1.0  0.35151  0.59458  0.61440  1.0000
  C   C1147     1.0  0.46891  0.54729  0.37107  1.0000
  H   H935      1.0  0.28009  0.60661  0.35596  1.0000
  H   H936      1.0  0.25192  0.57201  0.54373  1.0000
  C   C1148     1.0  0.28171  0.64158  0.40255  1.0000
  H   H937      1.0  0.17077  0.67268  0.35311  1.0000
  C   C1149     1.0  0.40400  0.58419  0.60619  1.0000
  H   H938      1.0  0.28609  0.69185  0.57867  1.0000
  C   C1150     1.0  0.25597  0.66404  0.63055  1.0000
  C   C1151     1.0  0.33798  0.51419  0.58377  1.0000
  H   H939      1.0  0.26537  0.54809  0.50480  1.0000
  C   C1152     1.0  0.48257  0.62446  0.62988  1.0000
  H   H940      1.0  0.25759  0.64938  0.50173  1.0000
  H   H941      1.0  0.25405  0.63260  0.45798  1.0000
  C   C1153     1.0  0.23904  0.48733  0.49754  1.0000
  C   C1154     1.0  0.33635  0.54193  0.34812  1.0000
  C   C1155     1.0  0.35316  0.54290  0.34825  1.0000
  H   H942      1.0  0.31975  0.51637  0.42518  1.0000
  C   C1156     1.0  0.23823  0.63413  0.50661  1.0000
  S   S168      1.0  0.21897  0.65780  0.32441  1.0000
  H   H943      1.0  0.42503  0.67455  0.62688  1.0000
  H   H944      1.0  0.36254  0.53127  0.35130  1.0000
  C   C1157     1.0  0.36618  0.69798  0.64312  1.0000
  C   C1158     1.0  0.31440  0.61702  0.37397  1.0000
  C   C1159     1.0  0.22421  0.55925  0.34986  1.0000
  C   C1160     1.0  0.23657  0.56923  0.34658  1.0000
  C   C1161     1.0  0.23354  0.58637  0.33751  1.0000
  H   H945      1.0  0.30641  0.49107  0.43172  1.0000
  H   H946      1.0  0.47144  0.65650  0.64483  1.0000
  C   C1162     1.0  0.20895  0.56631  0.34389  1.0000
  H   H947      1.0  0.24833  0.56387  0.35132  1.0000
  H   H948      1.0  0.32058  0.52937  0.44867  1.0000
  H   H949      1.0  0.19941  0.55861  0.34637  1.0000
  C   C1163     1.0  0.36779  0.49954  0.58343  1.0000
  H   H950      1.0  0.34902  0.58628  0.33743  1.0000
  C   C1164     1.0  0.26052  0.52051  0.44753  1.0000
  C   C1165     1.0  0.27097  0.52654  0.43180  1.0000
  C   C1166     1.0  0.27730  0.51647  0.41916  1.0000
  C   C1167     1.0  0.27355  0.50015  0.42238  1.0000
  H   H951      1.0  0.17261  0.65834  0.51610  1.0000
  C   C1168     1.0  0.25669  0.50422  0.45063  1.0000
  H   H952      1.0  0.27422  0.53895  0.42930  1.0000
  H   H953      1.0  0.28549  0.52120  0.40712  1.0000
  H   H954      1.0  0.15948  0.65702  0.33834  1.0000
  H   H955      1.0  0.24845  0.49960  0.46260  1.0000
  C   C1169     1.0  0.33165  0.57942  0.41592  1.0000
  C   C1170     1.0  0.32732  0.59540  0.42065  1.0000
  C   C1171     1.0  0.33838  0.60703  0.41356  1.0000
  C   C1172     1.0  0.35360  0.60270  0.40165  1.0000
  C   C1173     1.0  0.35781  0.58680  0.39688  1.0000
  C   C1174     1.0  0.34694  0.57512  0.40412  1.0000
  H   H956      1.0  0.31555  0.59874  0.42977  1.0000
  H   H957      1.0  0.33503  0.61946  0.41698  1.0000
  H   H958      1.0  0.36950  0.58342  0.38761  1.0000
  H   H959      1.0  0.35026  0.56282  0.40036  1.0000
  C   C1175     1.0  0.23948  0.63124  0.41480  1.0000
  C   C1176     1.0  0.24651  0.62295  0.40082  1.0000
  C   C1177     1.0  0.24624  0.63239  0.38379  1.0000
  C   C1178     1.0  0.23949  0.65017  0.38079  1.0000
  C   C1179     1.0  0.23296  0.65833  0.39479  1.0000
  C   C1180     1.0  0.23267  0.64891  0.41164  1.0000
  H   H960      1.0  0.25175  0.60927  0.40313  1.0000
  H   H961      1.0  0.25125  0.62595  0.37306  1.0000
  H   H962      1.0  0.22778  0.67202  0.39260  1.0000
  H   H963      1.0  0.22724  0.65542  0.42231  1.0000
  C   C1181     1.0  0.28440  0.51476  0.62107  1.0000
  C   C1182     1.0  0.24953  0.59989  0.56876  1.0000
  C   C1183     1.0  0.30687  0.49661  0.44214  1.0000
  C   C1184     1.0  0.29481  0.56037  0.61952  1.0000
  C   C1185     1.0  0.27564  0.52233  0.50064  1.0000
  H   H964      1.0  0.28129  0.55991  0.62345  1.0000
  C   C1186     1.0  0.35324  0.63668  0.59021  1.0000
  C   C1187     1.0  0.25280  0.58431  0.56355  1.0000
  C   C1188     1.0  0.37149  0.63843  0.60852  1.0000
  C   C1189     1.0  0.36898  0.63158  0.59560  1.0000
  C   C1190     1.0  0.31450  0.59998  0.37407  1.0000
  H   H965      1.0  0.38346  0.63407  0.61292  1.0000
  H   H966      1.0  0.37909  0.62198  0.59014  1.0000
  H   H967      1.0  0.27271  0.52555  0.48797  1.0000
  C   C1191     1.0  0.29443  0.62286  0.51339  1.0000
  C   C1192     1.0  0.29325  0.62332  0.49656  1.0000
  C   C1193     1.0  0.28774  0.61003  0.49300  1.0000
  C   C1194     1.0  0.28361  0.59620  0.50623  1.0000
  C   C1195     1.0  0.28529  0.59560  0.52286  1.0000
  C   C1196     1.0  0.29055  0.60889  0.52647  1.0000
  H   H968      1.0  0.29627  0.63410  0.48637  1.0000
  H   H969      1.0  0.28645  0.61061  0.48013  1.0000
  H   H970      1.0  0.28249  0.58482  0.53310  1.0000
  H   H971      1.0  0.29150  0.60829  0.53947  1.0000
  P   P41       1.0  0.48723  0.57399  0.35847  1.0000
  H   H972      1.0  0.45948  0.63073  0.39208  1.0000
  H   H973      1.0  0.24287  0.59415  0.33552  1.0000
  C   C1197     1.0  0.31993  0.53922  0.55864  1.0000
  C   C1198     1.0  0.31237  0.54236  0.54438  1.0000
  C   C1199     1.0  0.31311  0.55751  0.53188  1.0000
  C   C1200     1.0  0.32106  0.56980  0.53369  1.0000
  C   C1201     1.0  0.32809  0.56703  0.54811  1.0000
  C   C1202     1.0  0.32753  0.55183  0.56055  1.0000
  C   C1203     1.0  0.20603  0.49558  0.35024  1.0000
  H   H974      1.0  0.29288  0.48886  0.52954  1.0000
  H   H975      1.0  0.35638  0.66791  0.33864  1.0000
  C   C1204     1.0  0.29683  0.66566  0.33521  1.0000
  H   H976      1.0  0.30705  0.55998  0.52103  1.0000
  H   H977      1.0  0.32127  0.58172  0.52420  1.0000
  H   H978      1.0  0.33357  0.57687  0.54989  1.0000
  H   H979      1.0  0.33268  0.55023  0.57180  1.0000
  H   H980      1.0  0.48890  0.61391  0.39356  1.0000
  C   C1205     1.0  0.47809  0.59137  0.36999  1.0000
  C   C1206     1.0  0.31449  0.51080  0.43843  1.0000
  C   C1207     1.0  0.17131  0.64223  0.54149  1.0000
  C   C1208     1.0  0.38902  0.55455  0.62471  1.0000
  H   H981      1.0  0.32326  0.57913  0.58650  1.0000
  C   C1209     1.0  0.47050  0.56298  0.35951  1.0000
  H   H982      1.0  0.15742  0.64392  0.54430  1.0000
  C   C1210     1.0  0.27135  0.52931  0.61854  1.0000
  H   H983      1.0  0.48294  0.63448  0.32659  1.0000
  C   C1211     1.0  0.28950  0.62661  0.36083  1.0000
  C   C1212     1.0  0.23665  0.62460  0.48157  1.0000
  C   C1213     1.0  0.24967  0.63310  0.47148  1.0000
  H   H984      1.0  0.23099  0.61764  0.47573  1.0000
  H   H985      1.0  0.35305  0.49711  0.56665  1.0000
  H   H986      1.0  0.25262  0.60013  0.58071  1.0000
  C   C1214     1.0  0.27148  0.53516  0.51017  1.0000
  H   H987      1.0  0.30569  0.53328  0.54296  1.0000
  H   H988      1.0  0.44192  0.60681  0.59997  1.0000
  C   C1215     1.0  0.37669  0.58591  0.57774  1.0000
  C   C1216     1.0  0.37161  0.58388  0.56361  1.0000
  C   C1217     1.0  0.37061  0.56760  0.56237  1.0000
  C   C1218     1.0  0.37458  0.55338  0.57534  1.0000
  H   H989      1.0  0.27945  0.63669  0.35600  1.0000
  C   C1219     1.0  0.22377  0.66742  0.53725  1.0000
  C   C1220     1.0  0.35775  0.55894  0.34460  1.0000
  H   H990      1.0  0.37671  0.59870  0.57881  1.0000
  H   H991      1.0  0.36802  0.59510  0.55391  1.0000
  C   C1221     1.0  0.33199  0.66123  0.35185  1.0000
  C   C1222     1.0  0.40732  0.52647  0.63195  1.0000
  Fe  Fe86      1.0  0.37073  0.62551  0.32959  1.0000
  H   H992      1.0  0.36692  0.66303  0.36549  1.0000
  C   C1223     1.0  0.29013  0.66699  0.35247  1.0000
  C   C1224     1.0  0.19712  0.49865  0.33709  1.0000
  H   H993      1.0  0.25209  0.50580  0.49940  1.0000
  P   P42       1.0  0.28914  0.48922  0.49454  1.0000
  C   C1225     1.0  0.46209  0.62331  0.32603  1.0000
  C   C1226     1.0  0.32909  0.57292  0.33998  1.0000
  H   H994      1.0  0.33033  0.62534  0.63749  1.0000
  H   H995      1.0  0.26738  0.64841  0.47108  1.0000
  C   C1227     1.0  0.31815  0.50232  0.56551  1.0000
  C   C1228     1.0  0.27172  0.70546  0.61661  1.0000
  C   C1229     1.0  0.32432  0.55701  0.34395  1.0000
  C   C1230     1.0  0.44323  0.54727  0.36189  1.0000
  C   C1231     1.0  0.43158  0.60027  0.60163  1.0000
  C   C1232     1.0  0.30247  0.70373  0.60665  1.0000
  H   H996      1.0  0.42902  0.60911  0.57519  1.0000
  C   C1233     1.0  0.24677  0.62234  0.62013  1.0000
  H   H997      1.0  0.35345  0.52429  0.61361  1.0000
  C   C1234     1.0  0.41056  0.59357  0.58993  1.0000
  C   C1235     1.0  0.41181  0.58253  0.61995  1.0000
  H   H998      1.0  0.30087  0.54452  0.64326  1.0000
  P   P43       1.0  0.38523  0.57498  0.61010  1.0000
  C   C1236     1.0  0.27273  0.54104  0.60280  1.0000
  H   H999      1.0  0.31468  0.70488  0.60840  1.0000
  H   H1000     1.0  0.41489  0.54646  0.61063  1.0000
  H   H1001     1.0  0.25926  0.69874  0.60007  1.0000
  H   H1002     1.0  0.18668  0.69555  0.33627  1.0000
  C   C1237     1.0  0.27726  0.65750  0.64811  1.0000
  C   C1238     1.0  0.44182  0.71838  0.63136  1.0000
  H   H1003     1.0  0.32413  0.58961  0.37925  1.0000
  C   C1239     1.0  0.39178  0.60857  0.42521  1.0000
  C   C1240     1.0  0.40530  0.60479  0.43374  1.0000
  C   C1241     1.0  0.40188  0.60158  0.45173  1.0000
  C   C1242     1.0  0.38495  0.60217  0.46119  1.0000
  C   C1243     1.0  0.37126  0.60613  0.45267  1.0000
  C   C1244     1.0  0.37487  0.60922  0.43463  1.0000
  P   P44       1.0  0.34925  0.60680  0.46455  1.0000
  C   C1245     1.0  0.34293  0.58691  0.46625  1.0000
  C   C1246     1.0  0.34769  0.61034  0.48571  1.0000
  C   C1247     1.0  0.35280  0.59648  0.49871  1.0000
  C   C1248     1.0  0.35319  0.59934  0.51462  1.0000
  C   C1249     1.0  0.34841  0.61602  0.51768  1.0000
  C   C1250     1.0  0.34301  0.62980  0.50493  1.0000
  C   C1251     1.0  0.34260  0.62701  0.48902  1.0000
  C   C1252     1.0  0.35034  0.57718  0.45343  1.0000
  C   C1253     1.0  0.34427  0.56268  0.45395  1.0000
  C   C1254     1.0  0.33061  0.55794  0.46708  1.0000
  C   C1255     1.0  0.32316  0.56753  0.47988  1.0000
  C   C1256     1.0  0.32933  0.58193  0.47955  1.0000
  C   C1257     1.0  0.33521  0.62418  0.45318  1.0000
  C   C1258     1.0  0.34076  0.63948  0.44429  1.0000
  C   C1259     1.0  0.33024  0.65262  0.43482  1.0000
  C   C1260     1.0  0.31406  0.65064  0.43427  1.0000
  C   C1261     1.0  0.30834  0.63557  0.44328  1.0000
  C   C1262     1.0  0.31886  0.62239  0.45267  1.0000
  H   H1004     1.0  0.39435  0.61099  0.41124  1.0000
  H   H1005     1.0  0.41838  0.60437  0.42637  1.0000
  H   H1006     1.0  0.41238  0.59868  0.45834  1.0000
  H   H1007     1.0  0.38267  0.59965  0.47507  1.0000
  H   H1008     1.0  0.36456  0.61215  0.42782  1.0000
  H   H1009     1.0  0.35684  0.58353  0.49638  1.0000
  H   H1010     1.0  0.35727  0.58867  0.52454  1.0000
  H   H1011     1.0  0.34874  0.61835  0.52995  1.0000
  H   H1012     1.0  0.33877  0.64267  0.50752  1.0000
  H   H1013     1.0  0.33830  0.63791  0.47941  1.0000
  H   H1014     1.0  0.36030  0.58106  0.44260  1.0000
  H   H1015     1.0  0.34953  0.55566  0.44361  1.0000
  H   H1016     1.0  0.32541  0.54721  0.46692  1.0000
  H   H1017     1.0  0.31213  0.56421  0.48963  1.0000
  H   H1018     1.0  0.32294  0.58962  0.48919  1.0000
  H   H1019     1.0  0.35332  0.64117  0.44447  1.0000
  H   H1020     1.0  0.33472  0.66425  0.42774  1.0000
  H   H1021     1.0  0.30604  0.66071  0.42673  1.0000
  H   H1022     1.0  0.29591  0.63388  0.44272  1.0000
  H   H1023     1.0  0.31427  0.61072  0.45915  1.0000
  H   H1024     1.0  0.30355  0.64992  0.63506  1.0000
  C   C1263     1.0  0.30205  0.59625  0.36772  1.0000
  H   H1025     1.0  0.43075  0.58980  0.62871  1.0000
  H   H1026     1.0  0.21648  0.64610  0.59734  1.0000
  C   C1264     1.0  0.24269  0.61518  0.55841  1.0000
  H   H1027     1.0  0.47968  0.63797  0.62390  1.0000
  C   C1265     1.0  0.26991  0.65987  0.42345  1.0000
  C   C1266     1.0  0.26802  0.69122  0.34324  1.0000
  H   H1028     1.0  0.19726  0.63817  0.62576  1.0000
  C   C1267     1.0  0.15865  0.61399  0.33608  1.0000
  C   C1268     1.0  0.16660  0.66673  0.33069  1.0000
  H   H1029     1.0  0.28334  0.50569  0.63331  1.0000
  C   C1269     1.0  0.20620  0.58320  0.33439  1.0000
  C   C1270     1.0  0.25368  0.49292  0.49753  1.0000
  C   C1271     1.0  0.38076  0.57176  0.59085  1.0000
  C   C1272     1.0  0.32790  0.50078  0.54893  1.0000
  C   C1273     1.0  0.44430  0.62402  0.33076  1.0000
  H   H1030     1.0  0.40511  0.59500  0.57897  1.0000
  C   C1274     1.0  0.32150  0.65557  0.36780  1.0000
  C   C1275     1.0  0.37992  0.70424  0.64457  1.0000
  C   C1276     1.0  0.23096  0.62505  0.49906  1.0000
  S   S169      1.0  0.27578  0.53067  0.33568  1.0000
  H   H1031     1.0  0.22087  0.61833  0.50664  1.0000
  H   H1032     1.0  0.24015  0.62707  0.56280  1.0000
  H   H1033     1.0  0.44195  0.62268  0.37634  1.0000
  H   H1034     1.0  0.41949  0.51755  0.62948  1.0000
  C   C1277     1.0  0.30203  0.69825  0.59208  1.0000
  H   H1035     1.0  0.37343  0.54084  0.57454  1.0000
  H   H1036     1.0  0.31187  0.48852  0.64103  1.0000
  C   C1278     1.0  0.36801  0.50723  0.59661  1.0000
  H   H1037     1.0  0.30199  0.58301  0.36805  1.0000
  H   H1038     1.0  0.22654  0.49589  0.49947  1.0000
  C   C1279     1.0  0.27542  0.69039  0.32606  1.0000
  C   C1280     1.0  0.13257  0.62265  0.32497  1.0000
  H   H1039     1.0  0.18386  0.54519  0.32155  1.0000
  C   C1281     1.0  0.25144  0.64254  0.49636  1.0000
  C   C1282     1.0  0.21845  0.59329  0.33116  1.0000
  H   H1040     1.0  0.49059  0.55763  0.39387  1.0000
  H   H1041     1.0  0.43011  0.64968  0.61383  1.0000
  C   C1283     1.0  0.22183  0.63804  0.60815  1.0000
  H   H1042     1.0  0.45955  0.58248  0.33983  1.0000
  H   H1043     1.0  0.38185  0.54432  0.59977  1.0000
  C   C1284     1.0  0.23942  0.61507  0.54251  1.0000
  C   C1285     1.0  0.24907  0.58400  0.54803  1.0000
  H   H1044     1.0  0.44775  0.54987  0.62378  1.0000
  C   C1286     1.0  0.30585  0.55179  0.63081  1.0000
  H   H1045     1.0  0.33306  0.66630  0.61501  1.0000
  C   C1287     1.0  0.28710  0.53821  0.58949  1.0000
  C   C1288     1.0  0.30183  0.63046  0.36741  1.0000
  H   H1046     1.0  0.34870  0.65293  0.39371  1.0000
  C   C1289     1.0  0.28969  0.60956  0.36092  1.0000
  C   C1290     1.0  0.34384  0.65569  0.38206  1.0000
  C   C1291     1.0  0.31489  0.51817  0.45174  1.0000
  P   P45       1.0  0.23046  0.63487  0.52921  1.0000
  C   C1292     1.0  0.24256  0.59932  0.53747  1.0000
  C   C1293     1.0  0.34305  0.65650  0.60976  1.0000
  C   C1294     1.0  0.27526  0.53136  0.52649  1.0000
  H   H1047     1.0  0.34302  0.56292  0.60599  1.0000
  C   C1295     1.0  0.48789  0.59597  0.37905  1.0000
  C   C1296     1.0  0.32773  0.65255  0.38289  1.0000
  C   C1297     1.0  0.19779  0.64815  0.52192  1.0000
  H   H1048     1.0  0.26306  0.64040  0.53202  1.0000
  C   C1298     1.0  0.26906  0.66024  0.61634  1.0000
  C   C1299     1.0  0.29720  0.59429  0.64158  1.0000
  C   C1300     1.0  0.34028  0.64919  0.59733  1.0000
  C   C1301     1.0  0.29887  0.51196  0.60786  1.0000
  C   C1302     1.0  0.23620  0.65269  0.53385  1.0000
  C   C1303     1.0  0.20732  0.63767  0.53408  1.0000
  H   H1049     1.0  0.26871  0.68000  0.36956  1.0000
  H   H1050     1.0  0.24038  0.59876  0.52525  1.0000
  H   H1051     1.0  0.32668  0.61161  0.61581  1.0000
  C   C1304     1.0  0.25330  0.65167  0.53452  1.0000
  C   C1305     1.0  0.27128  0.70041  0.60181  1.0000
  H   H1052     1.0  0.21047  0.66862  0.53687  1.0000
  C   C1306     1.0  0.25706  0.64207  0.47885  1.0000
  P   P46       1.0  0.30024  0.65221  0.36924  1.0000
  H   H1053     1.0  0.32036  0.64742  0.39531  1.0000
  C   C1307     1.0  0.35849  0.65090  0.61569  1.0000
  H   H1054     1.0  0.20565  0.62164  0.55971  1.0000
  H   H1055     1.0  0.32816  0.65331  0.59319  1.0000
  H   H1056     1.0  0.28801  0.54772  0.57757  1.0000
  C   C1308     1.0  0.26006  0.66264  0.64650  1.0000
  P   P47       1.0  0.39814  0.70629  0.62669  1.0000
  C   C1309     1.0  0.23603  0.61785  0.63624  1.0000
  H   H1057     1.0  0.26063  0.61843  0.61827  1.0000
  C   C1310     1.0  0.30105  0.57035  0.60361  1.0000
  C   C1311     1.0  0.27527  0.67955  0.35641  1.0000
  C   C1312     1.0  0.40292  0.68851  0.61590  1.0000
  C   C1313     1.0  0.19863  0.62966  0.55007  1.0000
  C   C1314     1.0  0.25793  0.66512  0.53845  1.0000
  H   H1058     1.0  0.27122  0.66420  0.53882  1.0000
  H   H1059     1.0  0.47388  0.55447  0.63012  1.0000
  H   H1060     1.0  0.28344  0.62917  0.39944  1.0000
  C   C1315     1.0  0.28704  0.50171  0.52390  1.0000
  H   H1061     1.0  0.20423  0.65460  0.50956  1.0000
  C   C1316     1.0  0.22842  0.68081  0.54135  1.0000
  C   C1317     1.0  0.24549  0.67964  0.54198  1.0000
  C   C1318     1.0  0.40075  0.72778  0.59411  1.0000
  C   C1319     1.0  0.28737  0.70701  0.61922  1.0000
  C   C1320     1.0  0.41674  0.70661  0.63431  1.0000
  S   S170      1.0  0.30332  0.55683  0.34299  1.0000
  C   C1321     1.0  0.18159  0.68878  0.32973  1.0000
  C   C1322     1.0  0.28791  0.65520  0.39034  1.0000
  H   H1062     1.0  0.21879  0.69209  0.54408  1.0000
  H   H1063     1.0  0.24911  0.68994  0.54525  1.0000
  C   C1323     1.0  0.26341  0.49396  0.43824  1.0000
  H   H1064     1.0  0.27674  0.59025  0.63252  1.0000
  C   C1324     1.0  0.36704  0.58951  0.62019  1.0000
  H   H1065     1.0  0.45361  0.59827  0.36204  1.0000
  C   C1325     1.0  0.29024  0.65379  0.63389  1.0000
  C   C1326     1.0  0.18069  0.63192  0.55372  1.0000
  H   H1066     1.0  0.26830  0.63328  0.42834  1.0000
  C   C1327     1.0  0.27298  0.64390  0.41908  1.0000
  P   P48       1.0  0.31893  0.51967  0.57488  1.0000
  C   C1328     1.0  0.35328  0.51828  0.60343  1.0000
  C   C1329     1.0  0.28643  0.69655  0.58969  1.0000
  H   H1067     1.0  0.13850  0.59960  0.34397  1.0000
  H   H1068     1.0  0.31382  0.69502  0.58280  1.0000
  C   C1330     1.0  0.35414  0.66131  0.36615  1.0000
  H   H1069     1.0  0.40708  0.57532  0.63260  1.0000
  C   C1331     1.0  0.21363  0.52021  0.32004  1.0000
  C   C1332     1.0  0.33829  0.52168  0.59716  1.0000
  C   C1333     1.0  0.21811  0.62353  0.63812  1.0000
  C   C1334     1.0  0.17987  0.65036  0.52560  1.0000
  H   H1070     1.0  0.30740  0.65531  0.33194  1.0000
  C   C1335     1.0  0.28295  0.51460  0.53341  1.0000
  C   C1336     1.0  0.30028  0.52361  0.59193  1.0000
  H   H1071     1.0  0.33274  0.52960  0.35113  1.0000
  C   C1337     1.0  0.39240  0.68807  0.60512  1.0000
  C   C1338     1.0  0.28546  0.67103  0.39503  1.0000
  C   C1339     1.0  0.23962  0.63230  0.60615  1.0000
  H   H1072     1.0  0.32702  0.53039  0.60259  1.0000
  C   C1340     1.0  0.34823  0.66403  0.35106  1.0000
  C   C1341     1.0  0.46137  0.60101  0.36931  1.0000
  H   H1073     1.0  0.32799  0.66324  0.33991  1.0000
  H   H1074     1.0  0.30798  0.51745  0.47885  1.0000
  C   C1342     1.0  0.21875  0.50472  0.34829  1.0000
  H   H1075     1.0  0.26259  0.66169  0.43611  1.0000
  H   H1076     1.0  0.29637  0.65293  0.60706  1.0000
  H   H1077     1.0  0.31997  0.58461  0.33643  1.0000
  C   C1343     1.0  0.27621  0.67344  0.41143  1.0000
  H   H1078     1.0  0.29052  0.68155  0.38585  1.0000
  C   C1344     1.0  0.37592  0.54959  0.63851  1.0000
  C   C1345     1.0  0.28617  0.65525  0.61806  1.0000
  H   H1079     1.0  0.27389  0.68584  0.41478  1.0000
  C   C1346     1.0  0.44537  0.70710  0.64653  1.0000
  H   H1080     1.0  0.30721  0.58692  0.63327  1.0000
  C   C1347     1.0  0.44488  0.56274  0.35020  1.0000
  C   C1348     1.0  0.40893  0.65997  0.60082  1.0000
  H   H1081     1.0  0.31061  0.61492  0.32028  1.0000
  H   H1082     1.0  0.16678  0.60489  0.34427  1.0000
  H   H1083     1.0  0.37957  0.50471  0.60156  1.0000
  H   H1084     1.0  0.17677  0.63057  0.32566  1.0000
  H   H1085     1.0  0.41089  0.64874  0.59545  1.0000
  H   H1086     1.0  0.43251  0.54142  0.36297  1.0000
  H   H1087     1.0  0.26028  0.53162  0.62885  1.0000
  H   H1088     1.0  0.24271  0.66799  0.62922  1.0000
  C   C1349     1.0  0.35285  0.50303  0.57698  1.0000
  H   H1089     1.0  0.28567  0.51159  0.54616  1.0000
  H   H1090     1.0  0.24795  0.63601  0.59385  1.0000
  C   C1350     1.0  0.42427  0.60160  0.58770  1.0000
  C   C1351     1.0  0.17270  0.67582  0.33919  1.0000
  H   H1091     1.0  0.34967  0.58943  0.60439  1.0000
  H   H1092     1.0  0.37993  0.59261  0.63872  1.0000
  C   C1352     1.0  0.30749  0.51149  0.46878  1.0000
  C   C1353     1.0  0.45852  0.57046  0.34892  1.0000
  C   C1354     1.0  0.32320  0.55288  0.62598  1.0000
  C   C1355     1.0  0.45461  0.61494  0.37750  1.0000
  C   C1356     1.0  0.46444  0.61943  0.38643  1.0000
  C   C1357     1.0  0.40473  0.54287  0.62141  1.0000
  C   C1358     1.0  0.22257  0.51695  0.33323  1.0000
  H   H1093     1.0  0.19453  0.58852  0.32959  1.0000
  C   C1359     1.0  0.31842  0.57135  0.59875  1.0000
  H   H1094     1.0  0.33572  0.51005  0.54153  1.0000
  C   C1360     1.0  0.14278  0.61101  0.33584  1.0000
  H   H1095     1.0  0.38670  0.67321  0.59008  1.0000
  S   S171      1.0  0.28182  0.48712  0.40694  1.0000
  C   C1361     1.0  0.20085  0.51096  0.32206  1.0000
  H   H1096     1.0  0.25917  0.49649  0.32868  1.0000
  C   C1362     1.0  0.47451  0.59678  0.63946  1.0000
  C   C1363     1.0  0.41969  0.66047  0.61117  1.0000
  H   H1097     1.0  0.38162  0.69851  0.60279  1.0000
  H   H1098     1.0  0.41037  0.71727  0.58950  1.0000
  S   S172      1.0  0.33725  0.54264  0.63986  1.0000
  H   H1099     1.0  0.37922  0.49096  0.57809  1.0000
  C   C1364     1.0  0.27995  0.59630  0.64112  1.0000
  C   C1365     1.0  0.35517  0.60918  0.63989  1.0000
  C   C1366     1.0  0.39413  0.52157  0.64565  1.0000
  S   S173      1.0  0.21450  0.61421  0.31868  1.0000
  C   C1367     1.0  0.35048  0.49387  0.64376  1.0000
  C   C1368     1.0  0.48099  0.60984  0.38737  1.0000
  C   C1369     1.0  0.28973  0.67749  0.32205  1.0000
  H   H1100     1.0  0.43543  0.56897  0.34230  1.0000
  C   C1370     1.0  0.36847  0.59650  0.63349  1.0000
  S   S174      1.0  0.36126  0.66015  0.63162  1.0000
  H   H1101     1.0  0.45918  0.61967  0.62689  1.0000
  C   C1371     1.0  0.47103  0.61410  0.63147  1.0000
  P   P49       1.0  0.28837  0.71347  0.63824  1.0000
  H   H1102     1.0  0.31044  0.67975  0.63338  1.0000
  S   S175      1.0  0.43570  0.60933  0.32506  1.0000
  C   C1372     1.0  0.42754  0.71819  0.62527  1.0000
  C   C1373     1.0  0.29915  0.49765  0.47257  1.0000
  C   C1374     1.0  0.16421  0.62869  0.32562  1.0000
  H   H1103     1.0  0.36367  0.55834  0.64127  1.0000
  H   H1104     1.0  0.31833  0.72116  0.64626  1.0000
  C   C1375     1.0  0.29898  0.73150  0.63065  1.0000
  C   C1376     1.0  0.44816  0.54974  0.63687  1.0000
  H   H1105     1.0  0.45018  0.72725  0.62432  1.0000
  H   H1106     1.0  0.36626  0.69409  0.63156  1.0000
  C   C1377     1.0  0.39266  0.72608  0.61162  1.0000
  H   H1107     1.0  0.33545  0.62043  0.32825  1.0000
  S   S176      1.0  0.40386  0.62754  0.64307  1.0000
  H   H1108     1.0  0.27739  0.59445  0.32485  1.0000
  H   H1109     1.0  0.46535  0.58890  0.64091  1.0000
  H   H1110     1.0  0.32502  0.50983  0.64652  1.0000
  C   C1378     1.0  0.31052  0.68174  0.64577  1.0000
  C   C1379     1.0  0.32774  0.48716  0.54180  1.0000
  H   H1111     1.0  0.47033  0.61372  0.31901  1.0000
  H   H1112     1.0  0.16352  0.57291  0.32263  1.0000
  C   C1380     1.0  0.33297  0.49776  0.64361  1.0000
  C   C1381     1.0  0.30829  0.48996  0.57481  1.0000
  C   C1382     1.0  0.48940  0.58985  0.64614  1.0000
  H   H1113     1.0  0.22460  0.58793  0.64110  1.0000
  H   H1114     1.0  0.35669  0.61509  0.64952  1.0000
  H   H1115     1.0  0.30061  0.49068  0.58757  1.0000
  H   H1116     1.0  0.35598  0.50299  0.64690  1.0000
  H   H1117     1.0  0.42229  0.54563  0.64745  1.0000
  C   C1383     1.0  0.33022  0.62905  0.31765  1.0000
  C   C1384     1.0  0.42058  0.69513  0.64940  1.0000
  S   S177      1.0  0.39147  0.60472  0.31931  1.0000
  H   H1118     1.0  0.22416  0.55756  0.64377  1.0000
  C   C1385     1.0  0.31335  0.73171  0.63672  1.0000
  C   C1386     1.0  0.37842  0.53309  0.64879  1.0000
  Fe  Fe87      1.0  0.23149  0.63230  0.31712  1.0000
  C   C1387     1.0  0.23314  0.57805  0.64820  1.0000
  C   C1388     1.0  0.26328  0.48670  0.32105  1.0000
  C   C1389     1.0  0.23287  0.56080  0.64967  1.0000
  C   C1390     1.0  0.22828  0.59993  0.68926  1.0000
  C   C1391     1.0  0.45202  0.60212  0.67843  1.0000
  Fe  Fe88      1.0  0.29379  0.54159  0.69740  1.0000
  S   S178      1.0  0.26586  0.55304  0.70648  1.0000
  Fe  Fe89      1.0  0.33008  0.53284  0.70308  1.0000
  C   C1392     1.0  0.13028  0.70730  0.83976  1.0000
  C   C1393     1.0  0.47606  0.52226  0.69168  1.0000
  C   C1394     1.0  0.46683  0.67062  0.81182  1.0000
  Fe  Fe90      1.0  0.26584  0.66184  0.69195  1.0000
  S   S179      1.0  0.23786  0.66130  0.70243  1.0000
  H   H1119     1.0  0.39266  0.54991  0.66643  1.0000
  Fe  Fe91      1.0  0.27181  0.66577  0.72549  1.0000
  S   S180      1.0  0.24456  0.66471  0.73919  1.0000
  S   S181      1.0  0.29007  0.67053  0.73907  1.0000
  Fe  Fe92      1.0  0.24717  0.64365  0.72544  1.0000
  S   S182      1.0  0.23762  0.61936  0.73893  1.0000
  Fe  Fe93      1.0  0.23744  0.68254  0.71536  1.0000
  S   S183      1.0  0.21704  0.70708  0.71659  1.0000
  S   S184      1.0  0.27501  0.64293  0.71432  1.0000
  S   S185      1.0  0.26475  0.68483  0.70234  1.0000
  H   H1120     1.0  0.13718  0.69832  0.84906  1.0000
  H   H1121     1.0  0.24342  0.53442  0.66012  1.0000
  H   H1122     1.0  0.23275  0.58624  0.69000  1.0000
  H   H1123     1.0  0.27411  0.48812  0.66264  1.0000
  C   C1395     1.0  0.29681  0.56729  0.73898  1.0000
  C   C1396     1.0  0.36499  0.70740  0.67372  1.0000
  C   C1397     1.0  0.29301  0.55096  0.74295  1.0000
  H   H1124     1.0  0.24514  0.71982  0.83721  1.0000
  C   C1398     1.0  0.42808  0.55098  0.70603  1.0000
  C   C1399     1.0  0.43468  0.69559  0.65558  1.0000
  H   H1125     1.0  0.30829  0.62577  0.71917  1.0000
  Fe  Fe94      1.0  0.38074  0.63766  0.68789  1.0000
  S   S186      1.0  0.40645  0.61956  0.68372  1.0000
  S   S187      1.0  0.37006  0.64277  0.71471  1.0000
  Fe  Fe95      1.0  0.41321  0.63921  0.65985  1.0000
  H   H1126     1.0  0.32772  0.66070  0.68046  1.0000
  Fe  Fe96      1.0  0.39495  0.60953  0.66755  1.0000
  S   S188      1.0  0.40060  0.58161  0.66650  1.0000
  S   S189      1.0  0.38836  0.65821  0.66507  1.0000
  S   S190      1.0  0.36857  0.62584  0.67373  1.0000
  C   C1400     1.0  0.46478  0.66053  0.68635  1.0000
  C   C1401     1.0  0.44881  0.65556  0.69261  1.0000
  C   C1402     1.0  0.44105  0.65076  0.68172  1.0000
  C   C1403     1.0  0.44919  0.65107  0.66443  1.0000
  C   C1404     1.0  0.46520  0.65590  0.65823  1.0000
  H   H1127     1.0  0.45644  0.70717  0.65128  1.0000
  H   H1128     1.0  0.44232  0.65555  0.70590  1.0000
  H   H1129     1.0  0.42866  0.64714  0.68664  1.0000
  C   C1405     1.0  0.47534  0.51668  0.72686  1.0000
  C   C1406     1.0  0.33404  0.59190  0.74576  1.0000
  C   C1407     1.0  0.48158  0.67318  0.73901  1.0000
  C   C1408     1.0  0.18610  0.71760  0.76966  1.0000
  C   C1409     1.0  0.34963  0.58882  0.76807  1.0000
  C   C1410     1.0  0.20509  0.71095  0.73709  1.0000
  H   H1130     1.0  0.23871  0.73487  0.72487  1.0000
  C   C1411     1.0  0.06990  0.70972  0.87162  1.0000
  S   S191      1.0  0.31614  0.55466  0.68573  1.0000
  C   C1412     1.0  0.19458  0.70087  0.76771  1.0000
  C   C1413     1.0  0.20418  0.69757  0.75159  1.0000
  H   H1131     1.0  0.38229  0.54954  0.73466  1.0000
  C   C1414     1.0  0.42223  0.53546  0.71168  1.0000
  H   H1132     1.0  0.19366  0.69038  0.77874  1.0000
  H   H1133     1.0  0.21055  0.68459  0.75036  1.0000
  C   C1415     1.0  0.31216  0.66231  0.73214  1.0000
  C   C1416     1.0  0.32375  0.66304  0.74152  1.0000
  C   C1417     1.0  0.34144  0.65679  0.73617  1.0000
  C   C1418     1.0  0.34770  0.64979  0.72138  1.0000
  C   C1419     1.0  0.33611  0.64863  0.71223  1.0000
  C   C1420     1.0  0.31834  0.65510  0.71749  1.0000
  H   H1134     1.0  0.31907  0.66857  0.75287  1.0000
  H   H1135     1.0  0.35034  0.65761  0.74339  1.0000
  H   H1136     1.0  0.34090  0.64267  0.70118  1.0000
  H   H1137     1.0  0.30938  0.65468  0.71019  1.0000
  C   C1421     1.0  0.35161  0.70072  0.67227  1.0000
  C   C1422     1.0  0.21757  0.63521  0.68857  1.0000
  H   H1138     1.0  0.29097  0.64188  0.76735  1.0000
  C   C1423     1.0  0.24185  0.70989  0.67088  1.0000
  C   C1424     1.0  0.36280  0.59556  0.75570  1.0000
  C   C1425     1.0  0.36163  0.55099  0.70311  1.0000
  C   C1426     1.0  0.37224  0.54517  0.68857  1.0000
  C   C1427     1.0  0.38424  0.55462  0.67746  1.0000
  C   C1428     1.0  0.38527  0.57022  0.68052  1.0000
  C   C1429     1.0  0.37448  0.57621  0.69493  1.0000
  C   C1430     1.0  0.36301  0.56634  0.70645  1.0000
  H   H1139     1.0  0.35041  0.58522  0.78152  1.0000
  H   H1140     1.0  0.30916  0.68604  0.69197  1.0000
  H   H1141     1.0  0.37531  0.58818  0.69746  1.0000
  H   H1142     1.0  0.35505  0.57064  0.71787  1.0000
  C   C1431     1.0  0.25997  0.57126  0.71582  1.0000
  C   C1432     1.0  0.26698  0.58596  0.70820  1.0000
  C   C1433     1.0  0.26045  0.60088  0.71523  1.0000
  C   C1434     1.0  0.24715  0.60093  0.73003  1.0000
  C   C1435     1.0  0.24068  0.58602  0.73784  1.0000
  C   C1436     1.0  0.24684  0.57139  0.73062  1.0000
  H   H1143     1.0  0.27700  0.58601  0.69663  1.0000
  H   H1144     1.0  0.26546  0.61238  0.70902  1.0000
  H   H1145     1.0  0.23043  0.58597  0.74923  1.0000
  H   H1146     1.0  0.24127  0.56015  0.73647  1.0000
  H   H1147     1.0  0.15619  0.73085  0.97126  1.0000
  C   C1437     1.0  0.10939  0.67884  0.86780  1.0000
  H   H1148     1.0  0.41274  0.68575  0.65640  1.0000
  H   H1149     1.0  0.36806  0.52936  0.65923  1.0000
  C   C1438     1.0  0.28801  0.63105  0.76439  1.0000
  C   C1439     1.0  0.39519  0.54986  0.72699  1.0000
  H   H1150     1.0  0.22235  0.72961  0.68159  1.0000
  H   H1151     1.0  0.28277  0.54894  0.73818  1.0000
  C   C1440     1.0  0.31625  0.53974  0.75824  1.0000
  C   C1441     1.0  0.46376  0.53041  0.71933  1.0000
  H   H1152     1.0  0.32482  0.58248  0.77293  1.0000
  C   C1442     1.0  0.46434  0.60302  0.68681  1.0000
  C   C1443     1.0  0.36160  0.60056  0.73842  1.0000
  H   H1153     1.0  0.11748  0.64231  0.89796  1.0000
  H   H1154     1.0  0.43776  0.58612  0.67361  1.0000
  C   C1444     1.0  0.27145  0.61322  0.66320  1.0000
  H   H1155     1.0  0.26183  0.62047  0.67187  1.0000
  S   S192      1.0  0.34692  0.53894  0.71732  1.0000
  H   H1156     1.0  0.40107  0.52311  0.72590  1.0000
  C   C1445     1.0  0.21911  0.72734  0.83355  1.0000
  H   H1157     1.0  0.43022  0.52383  0.70779  1.0000
  H   H1158     1.0  0.47449  0.55488  0.65990  1.0000
  C   C1446     1.0  0.22666  0.62943  0.67350  1.0000
  Fe  Fe97      1.0  0.32421  0.53644  0.66762  1.0000
  S   S193      1.0  0.17445  0.72074  0.79042  1.0000
  H   H1159     1.0  0.20957  0.62016  0.65043  1.0000
  C   C1447     1.0  0.11489  0.65590  0.89222  1.0000
  H   H1160     1.0  0.28952  0.57770  0.73102  1.0000
  C   C1448     1.0  0.32319  0.61226  0.68141  1.0000
  C   C1449     1.0  0.32693  0.59455  0.68778  1.0000
  H   H1161     1.0  0.31258  0.63713  0.68775  1.0000
  H   H1162     1.0  0.32550  0.61742  0.66774  1.0000
  H   H1163     1.0  0.33255  0.58582  0.67900  1.0000
  C   C1450     1.0  0.47297  0.66058  0.66913  1.0000
  C   C1451     1.0  0.23623  0.71855  0.83025  1.0000
  H   H1164     1.0  0.34660  0.60320  0.72000  1.0000
  H   H1165     1.0  0.38912  0.71472  0.66125  1.0000
  S   S194      1.0  0.47384  0.66716  0.70018  1.0000
  H   H1166     1.0  0.32419  0.52892  0.76512  1.0000
  H   H1167     1.0  0.27666  0.59351  0.75243  1.0000
  C   C1452     1.0  0.26721  0.61506  0.76452  1.0000
  C   C1453     1.0  0.30153  0.60139  0.65311  1.0000
  H   H1168     1.0  0.44582  0.61365  0.67074  1.0000
  C   C1454     1.0  0.29995  0.69788  0.66855  1.0000
  H   H1169     1.0  0.46756  0.61531  0.68559  1.0000
  H   H1170     1.0  0.31394  0.62240  0.75168  1.0000
  H   H1171     1.0  0.47647  0.52392  0.67813  1.0000
  C   C1455     1.0  0.46314  0.55264  0.65730  1.0000
  C   C1456     1.0  0.48759  0.50851  0.69927  1.0000
  H   H1172     1.0  0.30099  0.68490  0.77658  1.0000
  C   C1457     1.0  0.44756  0.58645  0.68005  1.0000
  H   H1173     1.0  0.39600  0.50890  0.65387  1.0000
  H   H1174     1.0  0.21372  0.64886  0.68841  1.0000
  C   C1458     1.0  0.22774  0.72367  0.76859  1.0000
  C   C1459     1.0  0.31007  0.57011  0.74502  1.0000
  P   P50       1.0  0.24475  0.60453  0.65442  1.0000
  C   C1460     1.0  0.25521  0.56916  0.66502  1.0000
  C   C1461     1.0  0.13564  0.73642  0.88109  1.0000
  C   C1462     1.0  0.31678  0.59934  0.71702  1.0000
  C   C1463     1.0  0.47316  0.66714  0.82680  1.0000
  H   H1175     1.0  0.15112  0.70248  0.81816  1.0000
  H   H1176     1.0  0.08934  0.72809  0.89913  1.0000
  H   H1177     1.0  0.25694  0.70562  0.72917  1.0000
  H   H1178     1.0  0.21653  0.59668  0.71629  1.0000
  C   C1464     1.0  0.11201  0.72530  0.87851  1.0000
  C   C1465     1.0  0.30105  0.61986  0.75553  1.0000
  C   C1466     1.0  0.32022  0.66889  0.65621  1.0000
  H   H1179     1.0  0.48907  0.65251  0.75931  1.0000
  C   C1467     1.0  0.44884  0.55006  0.67075  1.0000
  C   C1468     1.0  0.37900  0.70936  0.65987  1.0000
  C   C1469     1.0  0.10834  0.69112  0.87731  1.0000
  P   P51       1.0  0.31449  0.59146  0.73991  1.0000
  H   H1180     1.0  0.47403  0.66621  0.73543  1.0000
  S   S195      1.0  0.30041  0.52562  0.67732  1.0000
  S   S196      1.0  0.30708  0.52086  0.71615  1.0000
  H   H1181     1.0  0.19433  0.73279  0.82703  1.0000
  C   C1470     1.0  0.11362  0.66804  0.90185  1.0000
  H   H1182     1.0  0.24611  0.50809  0.68698  1.0000
  C   C1471     1.0  0.11273  0.66130  0.87521  1.0000
  C   C1472     1.0  0.29734  0.60592  0.75130  1.0000
  H   H1183     1.0  0.47667  0.69550  0.71907  1.0000
  H   H1184     1.0  0.32635  0.57431  0.71031  1.0000
  C   C1473     1.0  0.32346  0.58806  0.70556  1.0000
  P   P52       1.0  0.10352  0.71376  0.86781  1.0000
  C   C1474     1.0  0.41732  0.56591  0.71109  1.0000
  H   H1185     1.0  0.26355  0.69278  0.65901  1.0000
  C   C1475     1.0  0.47228  0.58815  0.69685  1.0000
  H   H1186     1.0  0.48176  0.58893  0.70343  1.0000
  H   H1187     1.0  0.37155  0.60626  0.72887  1.0000
  H   H1188     1.0  0.37144  0.53313  0.68619  1.0000
  C   C1476     1.0  0.31605  0.62346  0.69273  1.0000
  H   H1189     1.0  0.25401  0.61345  0.76761  1.0000
  C   C1477     1.0  0.25143  0.50047  0.69795  1.0000
  C   C1478     1.0  0.26720  0.71904  0.65138  1.0000
  H   H1190     1.0  0.47501  0.51447  0.74052  1.0000
  C   C1479     1.0  0.29279  0.66206  0.79273  1.0000
  C   C1480     1.0  0.27872  0.65466  0.80202  1.0000
  C   C1481     1.0  0.26195  0.66429  0.80229  1.0000
  C   C1482     1.0  0.25916  0.68135  0.79305  1.0000
  H   H1191     1.0  0.25517  0.70167  0.81550  1.0000
  P   P53       1.0  0.23755  0.69363  0.79257  1.0000
  C   C1483     1.0  0.22395  0.67851  0.79572  1.0000
  C   C1484     1.0  0.23031  0.70668  0.80878  1.0000
  C   C1485     1.0  0.21312  0.71556  0.81224  1.0000
  C   C1486     1.0  0.29011  0.67918  0.78393  1.0000
  C   C1487     1.0  0.49018  0.66546  0.75250  1.0000
  C   C1488     1.0  0.18691  0.73105  0.75518  1.0000
  H   H1192     1.0  0.30578  0.65452  0.79222  1.0000
  C   C1489     1.0  0.21034  0.67657  0.81013  1.0000
  C   C1490     1.0  0.20009  0.66476  0.81211  1.0000
  C   C1491     1.0  0.20353  0.65455  0.79995  1.0000
  C   C1492     1.0  0.21737  0.65600  0.78589  1.0000
  C   C1493     1.0  0.22756  0.66785  0.78387  1.0000
  C   C1494     1.0  0.23780  0.70693  0.77115  1.0000
  C   C1495     1.0  0.24842  0.70060  0.75673  1.0000
  C   C1496     1.0  0.30051  0.69644  0.65175  1.0000
  C   C1497     1.0  0.19619  0.72768  0.73891  1.0000
  C   C1498     1.0  0.23475  0.72676  0.67297  1.0000
  H   H1193     1.0  0.28080  0.64138  0.80886  1.0000
  H   H1194     1.0  0.25121  0.65832  0.80949  1.0000
  H   H1195     1.0  0.29195  0.61703  0.67236  1.0000
  H   H1196     1.0  0.20397  0.71465  0.80534  1.0000
  P   P54       1.0  0.44916  0.55142  0.69223  1.0000
  H   H1197     1.0  0.42269  0.54595  0.67693  1.0000
  H   H1198     1.0  0.47412  0.56112  0.70648  1.0000
  H   H1199     1.0  0.07522  0.69624  0.87185  1.0000
  H   H1200     1.0  0.20749  0.68409  0.81987  1.0000
  H   H1201     1.0  0.18934  0.66368  0.82300  1.0000
  H   H1202     1.0  0.19544  0.64559  0.80134  1.0000
  H   H1203     1.0  0.22006  0.64815  0.77637  1.0000
  H   H1204     1.0  0.23827  0.66873  0.77304  1.0000
  H   H1205     1.0  0.25643  0.68783  0.75817  1.0000
  C   C1499     1.0  0.28870  0.61118  0.66361  1.0000
  H   H1206     1.0  0.13646  0.72507  0.86026  1.0000
  H   H1207     1.0  0.47299  0.67256  0.78451  1.0000
  H   H1208     1.0  0.25824  0.52188  0.70318  1.0000
  H   H1209     1.0  0.45454  0.53874  0.72729  1.0000
  H   H1210     1.0  0.39261  0.57691  0.72514  1.0000
  H   H1211     1.0  0.10923  0.69475  0.90220  1.0000
  H   H1212     1.0  0.29996  0.52447  0.75537  1.0000
  C   C1500     1.0  0.24438  0.58235  0.65583  1.0000
  C   C1501     1.0  0.23204  0.61173  0.67373  1.0000
  C   C1502     1.0  0.31998  0.55612  0.75442  1.0000
  C   C1503     1.0  0.31322  0.61701  0.71047  1.0000
  C   C1504     1.0  0.22829  0.73379  0.75198  1.0000
  H   H1213     1.0  0.04405  0.70694  0.87370  1.0000
  H   H1214     1.0  0.26327  0.54196  0.67370  1.0000
  C   C1505     1.0  0.08051  0.72113  0.87016  1.0000
  C   C1506     1.0  0.47822  0.66973  0.79593  1.0000
  H   H1215     1.0  0.26092  0.63777  0.77513  1.0000
  C   C1507     1.0  0.10229  0.73030  0.89391  1.0000
  H   H1216     1.0  0.34092  0.69884  0.68310  1.0000
  H   H1217     1.0  0.43745  0.68688  0.66735  1.0000
  H   H1218     1.0  0.27065  0.50453  0.72805  1.0000
  H   H1219     1.0  0.37378  0.59725  0.75950  1.0000
  H   H1220     1.0  0.11519  0.66388  0.91507  1.0000
  C   C1508     1.0  0.27108  0.62874  0.76878  1.0000
  C   C1509     1.0  0.24184  0.70826  0.81790  1.0000
  S   S197      1.0  0.33990  0.51562  0.68404  1.0000
  C   C1510     1.0  0.27338  0.68886  0.78422  1.0000
  C   C1511     1.0  0.28023  0.60371  0.75580  1.0000
  C   C1512     1.0  0.11027  0.68558  0.89447  1.0000
  C   C1513     1.0  0.40099  0.56529  0.72160  1.0000
  C   C1514     1.0  0.46408  0.53337  0.70165  1.0000
  C   C1515     1.0  0.05219  0.71575  0.87262  1.0000
  H   H1221     1.0  0.45306  0.67406  0.81249  1.0000
  C   C1516     1.0  0.30268  0.53720  0.75264  1.0000
  C   C1517     1.0  0.31994  0.67059  0.67269  1.0000
  C   C1518     1.0  0.24891  0.71074  0.74017  1.0000
  C   C1519     1.0  0.34730  0.59880  0.73344  1.0000
  C   C1520     1.0  0.33523  0.58715  0.76316  1.0000
  H   H1222     1.0  0.33092  0.55758  0.75837  1.0000
  H   H1223     1.0  0.27154  0.70207  0.77718  1.0000
  H   H1224     1.0  0.26383  0.57217  0.67124  1.0000
  C   C1521     1.0  0.11373  0.71684  0.84518  1.0000
  H   H1225     1.0  0.31480  0.59915  0.65401  1.0000
  C   C1522     1.0  0.45537  0.57146  0.69021  1.0000
  C   C1523     1.0  0.13821  0.70958  0.82229  1.0000
  S   S198      1.0  0.28346  0.65566  0.66743  1.0000
  H   H1226     1.0  0.42127  0.57813  0.70682  1.0000
  C   C1524     1.0  0.46784  0.57240  0.69857  1.0000
  C   C1525     1.0  0.21912  0.60579  0.70427  1.0000
  H   H1227     1.0  0.28843  0.49647  0.68122  1.0000
  H   H1228     1.0  0.11362  0.65192  0.86776  1.0000
  H   H1229     1.0  0.10755  0.68284  0.85466  1.0000
  C   C1526     1.0  0.48727  0.50575  0.71684  1.0000
  C   C1527     1.0  0.43418  0.54736  0.66704  1.0000
  C   C1528     1.0  0.40578  0.53496  0.72200  1.0000
  H   H1230     1.0  0.46431  0.66789  0.83909  1.0000
  C   C1529     1.0  0.25828  0.50825  0.70704  1.0000
  H   H1231     1.0  0.20748  0.62787  0.71581  1.0000
  Fe  Fe98      1.0  0.31543  0.50588  0.69512  1.0000
  C   C1530     1.0  0.21393  0.62340  0.70398  1.0000
  H   H1232     1.0  0.29195  0.70891  0.67360  1.0000
  C   C1531     1.0  0.25491  0.55196  0.66646  1.0000
  C   C1532     1.0  0.25804  0.70601  0.66020  1.0000
  C   C1533     1.0  0.35215  0.69626  0.65686  1.0000
  H   H1233     1.0  0.21919  0.72902  0.77917  1.0000
  H   H1234     1.0  0.34192  0.69108  0.65553  1.0000
  C   C1534     1.0  0.11329  0.73095  0.81536  1.0000
  Fe  Fe99      1.0  0.37835  0.64481  0.65028  1.0000
  H   H1235     1.0  0.23493  0.69977  0.67791  1.0000
  H   H1236     1.0  0.22993  0.63875  0.66178  1.0000
  H   H1237     1.0  0.25001  0.66550  0.65748  1.0000
  H   H1238     1.0  0.13612  0.72347  0.79659  1.0000
  C   C1535     1.0  0.48300  0.68977  0.72983  1.0000
  C   C1536     1.0  0.26690  0.60542  0.65225  1.0000
  S   S199      1.0  0.43953  0.64606  0.65007  1.0000
  C   C1537     1.0  0.20758  0.72584  0.82455  1.0000
  C   C1538     1.0  0.10528  0.72867  0.83282  1.0000
  C   C1539     1.0  0.12872  0.72852  0.87215  1.0000
  C   C1540     1.0  0.30969  0.68498  0.67898  1.0000
  H   H1239     1.0  0.48505  0.66474  0.66401  1.0000
  C   C1541     1.0  0.24372  0.54776  0.65884  1.0000
  C   C1542     1.0  0.23879  0.72729  0.73777  1.0000
  H   H1240     1.0  0.36460  0.71082  0.68570  1.0000
  C   C1543     1.0  0.26525  0.49844  0.72112  1.0000
  H   H1241     1.0  0.21473  0.73543  0.84302  1.0000
  C   C1544     1.0  0.12975  0.72143  0.81009  1.0000
  C   C1545     1.0  0.43387  0.54723  0.65017  1.0000
  H   H1242     1.0  0.32764  0.65740  0.65165  1.0000
  H   H1243     1.0  0.09270  0.73649  0.83658  1.0000
  C   C1546     1.0  0.04499  0.73319  0.87202  1.0000
  C   C1547     1.0  0.25996  0.73599  0.65351  1.0000
  Fe  Fe100     1.0  0.12841  0.80909  0.04982  1.0000
  S   S200      1.0  0.10320  0.82460  0.06093  1.0000
  S   S201      1.0  0.13760  0.80818  0.02176  1.0000
  Fe  Fe101     1.0  0.13940  0.79601  0.08391  1.0000
  S   S202      1.0  0.11526  0.81025  0.09842  1.0000
  S   S203      1.0  0.16113  0.77971  0.09644  1.0000
  Fe  Fe102     1.0  0.10210  0.80164  0.08251  1.0000
  S   S204      1.0  0.07735  0.79296  0.09494  1.0000
  Fe  Fe103     1.0  0.11807  0.83237  0.07594  1.0000
  S   S205      1.0  0.10957  0.85985  0.07951  1.0000
  S   S206      1.0  0.12591  0.78521  0.07014  1.0000
  S   S207      1.0  0.14363  0.81897  0.06265  1.0000
  P   P55       1.0  0.00877  0.80222  0.10133  1.0000
  H   H1244     1.0  0.18935  0.91040  0.16383  1.0000
  H   H1245     1.0  0.04255  0.77916  0.10438  1.0000
  H   H1246     1.0  0.09708  0.81162  0.16807  1.0000
  C   C1548     1.0  0.14622  0.91490  0.10353  1.0000
  H   H1247     1.0  0.23931  0.87998  0.11097  1.0000
  Fe  Fe104     1.0  0.12073  0.89566  0.15419  1.0000
  S   S208      1.0  0.10214  0.92111  0.15115  1.0000
  S   S209      1.0  0.13779  0.88034  0.13438  1.0000
  Fe  Fe105     1.0  0.11882  0.89413  0.19172  1.0000
  S   S210      1.0  0.10023  0.91944  0.19230  1.0000
  S   S211      1.0  0.12924  0.87649  0.21427  1.0000
  Fe  Fe106     1.0  0.08696  0.91018  0.17693  1.0000
  S   S212      1.0  0.05807  0.91806  0.18368  1.0000
  Fe  Fe107     1.0  0.11641  0.92891  0.16670  1.0000
  S   S213      1.0  0.12100  0.95606  0.15749  1.0000
  S   S214      1.0  0.10412  0.88394  0.17862  1.0000
  S   S215      1.0  0.13635  0.90452  0.16755  1.0000
  C   C1549     1.0  0.07476  0.84818  0.17775  1.0000
  S   S216      1.0  0.14930  0.74513  0.23143  1.0000
  C   C1550     1.0  0.18007  0.89934  0.14767  1.0000
  C   C1551     1.0  0.00975  0.81806  0.11251  1.0000
  H   H1248     1.0  0.11815  0.84118  0.17298  1.0000
  Fe  Fe108     1.0  0.01138  0.84448  0.20480  1.0000
  Fe  Fe109     1.0  0.15471  0.75953  0.20400  1.0000
  S   S217      1.0  0.16805  0.78185  0.19379  1.0000
  C   C1552     1.0  0.13467  0.93893  0.11777  1.0000
  S   S218      1.0  0.12909  0.76023  0.19886  1.0000
  Fe  Fe110     1.0  0.02821  0.83184  0.17210  1.0000
  S   S219      1.0  0.04605  0.84148  0.14794  1.0000
  Fe  Fe111     1.0  0.02174  0.80603  0.20552  1.0000
  H   H1249     1.0  0.21024  0.78263  0.24340  1.0000
  S   S220      1.0  0.03657  0.82701  0.19699  1.0000
  C   C1553     1.0  0.01747  0.83219  0.10391  1.0000
  C   C1554     1.0  0.08000  0.76959  0.22322  1.0000
  C   C1555     1.0  0.06410  0.77761  0.21839  1.0000
  P   P56       1.0  0.18240  0.91652  0.12884  1.0000
  H   H1250     1.0  0.99769  0.75168  0.14753  1.0000
  H   H1251     1.0  0.24043  0.89126  0.07971  1.0000
  H   H1252     1.0  0.09178  0.77283  0.21494  1.0000
  H   H1253     1.0  0.06371  0.78697  0.20648  1.0000
  H   H1254     1.0  0.21647  0.91386  0.06987  1.0000
  C   C1556     1.0  0.03806  0.95746  0.19742  1.0000
  C   C1557     1.0  0.02322  0.87933  0.20890  1.0000
  C   C1558     1.0  0.04575  0.90223  0.19371  1.0000
  C   C1559     1.0  0.03387  0.90410  0.20915  1.0000
  C   C1560     1.0  0.02285  0.89253  0.21685  1.0000
  C   C1561     1.0  0.04642  0.88883  0.18585  1.0000
  H   H1255     1.0  0.03313  0.91456  0.21515  1.0000
  H   H1256     1.0  0.01374  0.89404  0.22881  1.0000
  C   C1562     1.0  0.14921  0.82039  0.20270  1.0000
  C   C1563     1.0  0.14214  0.82469  0.22002  1.0000
  C   C1564     1.0  0.13651  0.84135  0.22341  1.0000
  C   C1565     1.0  0.13576  0.85563  0.21019  1.0000
  C   C1566     1.0  0.14020  0.85327  0.19356  1.0000
  C   C1567     1.0  0.14654  0.83687  0.18989  1.0000
  H   H1257     1.0  0.14139  0.81531  0.23191  1.0000
  H   H1258     1.0  0.13250  0.84311  0.23658  1.0000
  H   H1259     1.0  0.13908  0.86438  0.18312  1.0000
  H   H1260     1.0  0.14928  0.83790  0.17610  1.0000
  H   H1261     1.0  0.22205  0.75413  0.11819  1.0000
  C   C1568     1.0  0.14429  0.96440  0.19164  1.0000
  C   C1569     1.0  0.13756  0.95599  0.18281  1.0000
  C   C1570     1.0  0.12857  0.96565  0.17001  1.0000
  H   H1262     1.0  0.15140  0.95697  0.20141  1.0000
  H   H1263     1.0  0.13955  0.94212  0.18569  1.0000
  C   C1571     1.0  0.11731  0.86531  0.09498  1.0000
  C   C1572     1.0  0.10610  0.87568  0.10614  1.0000
  C   C1573     1.0  0.11220  0.88061  0.11820  1.0000
  C   C1574     1.0  0.12966  0.87564  0.11872  1.0000
  C   C1575     1.0  0.14096  0.86583  0.10711  1.0000
  C   C1576     1.0  0.13476  0.86034  0.09555  1.0000
  H   H1264     1.0  0.09260  0.87964  0.10567  1.0000
  H   H1265     1.0  0.10338  0.88814  0.12712  1.0000
  H   H1266     1.0  0.15450  0.86204  0.10736  1.0000
  H   H1267     1.0  0.14351  0.85253  0.08685  1.0000
  C   C1577     1.0  0.06694  0.80707  0.10887  1.0000
  C   C1578     1.0  0.07157  0.82294  0.10565  1.0000
  C   C1579     1.0  0.06484  0.83352  0.11765  1.0000
  C   C1580     1.0  0.05331  0.82835  0.13282  1.0000
  C   C1581     1.0  0.04796  0.81285  0.13569  1.0000
  C   C1582     1.0  0.05475  0.80223  0.12362  1.0000
  H   H1268     1.0  0.08057  0.82705  0.09405  1.0000
  H   H1269     1.0  0.06887  0.84558  0.11530  1.0000
  H   H1270     1.0  0.03878  0.80902  0.14723  1.0000
  H   H1271     1.0  0.05104  0.79010  0.12588  1.0000
  C   C1583     1.0  0.15420  0.76561  0.11575  1.0000
  H   H1272     1.0  0.23561  0.75915  0.23979  1.0000
  H   H1273     1.0  0.12414  0.94928  0.12138  1.0000
  H   H1274     1.0  0.05966  0.81041  0.22843  1.0000
  H   H1275     1.0  0.02322  0.83399  0.09032  1.0000
  C   C1584     1.0  0.13772  0.76201  0.11990  1.0000
  C   C1585     1.0  0.13828  0.76290  0.28212  1.0000
  H   H1276     1.0  0.17441  0.86216  0.18787  1.0000
  C   C1586     1.0  0.08504  0.75104  0.04215  1.0000
  H   H1277     1.0  0.00522  0.79885  0.06750  1.0000
  C   C1587     1.0  0.12508  0.79917  0.01364  1.0000
  C   C1588     1.0  0.09441  0.79798  0.26601  1.0000
  C   C1589     1.0  0.14686  0.78853  0.26311  1.0000
  C   C1590     1.0  0.10513  0.78576  0.99949  1.0000
  C   C1591     1.0  0.09949  0.78839  0.01643  1.0000
  C   C1592     1.0  0.10943  0.79513  0.02351  1.0000
  C   C1593     1.0  0.09310  0.97106  0.20862  1.0000
  C   C1594     1.0  0.13823  0.79845  0.19920  1.0000
  H   H1278     1.0  0.08742  0.78527  0.02405  1.0000
  H   H1279     1.0  0.10499  0.79722  0.03656  1.0000
  C   C1595     1.0  0.13529  0.83427  0.13920  1.0000
  C   C1596     1.0  0.12664  0.82229  0.13796  1.0000
  C   C1597     1.0  0.13602  0.80682  0.13339  1.0000
  C   C1598     1.0  0.15397  0.80368  0.12946  1.0000
  C   C1599     1.0  0.16279  0.81589  0.12998  1.0000
  C   C1600     1.0  0.15331  0.83117  0.13518  1.0000
  P   P57       1.0  0.18593  0.81202  0.12263  1.0000
  C   C1601     1.0  0.19429  0.78958  0.13069  1.0000
  C   C1602     1.0  0.19177  0.81719  0.09940  1.0000
  C   C1603     1.0  0.17976  0.81937  0.08928  1.0000
  C   C1604     1.0  0.18457  0.82371  0.07131  1.0000
  C   C1605     1.0  0.20134  0.82578  0.06333  1.0000
  C   C1606     1.0  0.21338  0.82356  0.07330  1.0000
  C   C1607     1.0  0.20862  0.81932  0.09127  1.0000
  C   C1608     1.0  0.20663  0.77941  0.12000  1.0000
  C   C1609     1.0  0.21277  0.76202  0.12654  1.0000
  C   C1610     1.0  0.13233  0.75104  0.13558  1.0000
  C   C1611     1.0  0.19429  0.76473  0.15437  1.0000
  C   C1612     1.0  0.18805  0.78204  0.14785  1.0000
  C   C1613     1.0  0.19532  0.82549  0.13007  1.0000
  C   C1614     1.0  0.20554  0.81856  0.14245  1.0000
  C   C1615     1.0  0.21300  0.82923  0.14770  1.0000
  C   C1616     1.0  0.21071  0.84677  0.14029  1.0000
  C   C1617     1.0  0.20100  0.85364  0.12758  1.0000
  C   C1618     1.0  0.19324  0.84309  0.12257  1.0000
  H   H1280     1.0  0.12800  0.84628  0.14270  1.0000
  H   H1281     1.0  0.11272  0.82511  0.14019  1.0000
  H   H1282     1.0  0.12943  0.79743  0.13238  1.0000
  H   H1283     1.0  0.16108  0.79191  0.12551  1.0000
  H   H1284     1.0  0.15957  0.84092  0.13585  1.0000
  H   H1285     1.0  0.16671  0.81767  0.09510  1.0000
  H   H1286     1.0  0.17530  0.82541  0.06354  1.0000
  H   H1287     1.0  0.20496  0.82902  0.04940  1.0000
  H   H1288     1.0  0.22641  0.82507  0.06710  1.0000
  H   H1289     1.0  0.21811  0.81759  0.09884  1.0000
  H   H1290     1.0  0.21128  0.78467  0.10657  1.0000
  H   H1291     1.0  0.11614  0.75283  0.06941  1.0000
  C   C1619     1.0  0.02954  0.82599  0.00558  1.0000
  H   H1292     1.0  0.18934  0.75911  0.16766  1.0000
  H   H1293     1.0  0.17820  0.78945  0.15619  1.0000
  H   H1294     1.0  0.20760  0.80499  0.14828  1.0000
  H   H1295     1.0  0.22058  0.82385  0.15752  1.0000
  H   H1296     1.0  0.21642  0.85504  0.14443  1.0000
  H   H1297     1.0  0.19930  0.86717  0.12166  1.0000
  H   H1298     1.0  0.18561  0.84864  0.11279  1.0000
  S   S221      1.0  0.00874  0.86546  0.21871  1.0000
  H   H1299     1.0  0.16398  0.93665  0.15552  1.0000
  H   H1300     1.0  0.00795  0.82731  0.25483  1.0000
  C   C1620     1.0  0.09402  0.87145  0.24466  1.0000
  H   H1301     1.0  0.04533  0.85781  0.24684  1.0000
  C   C1621     1.0  0.04766  0.75642  0.17623  1.0000
  C   C1622     1.0  0.17809  0.95623  0.15225  1.0000
  H   H1302     1.0  0.19463  0.97416  0.14654  1.0000
  H   H1303     1.0  0.16785  0.74271  0.15244  1.0000
  C   C1623     1.0  0.10311  0.78460  0.16801  1.0000
  H   H1304     1.0  0.17426  0.75218  0.25242  1.0000
  C   C1624     1.0  0.09205  0.80056  0.16868  1.0000
  C   C1625     1.0  0.04525  0.95577  0.21151  1.0000
  C   C1626     1.0  0.19227  0.96336  0.14296  1.0000
  H   H1305     1.0  0.18688  0.81495  0.27819  1.0000
  H   H1306     1.0  0.10841  0.77228  0.26362  1.0000
  H   H1307     1.0  0.05670  0.84680  0.20201  1.0000
  C   C1627     1.0  0.08888  0.81746  0.23933  1.0000
  H   H1308     1.0  0.05904  0.96682  0.22310  1.0000
  H   H1309     1.0  0.04532  0.77629  0.15354  1.0000
  H   H1310     1.0  0.17881  0.84928  0.23046  1.0000
  C   C1628     1.0  0.00996  0.84277  0.13036  1.0000
  C   C1629     1.0  0.04232  0.84635  0.24537  1.0000
  C   C1630     1.0  0.18452  0.81715  0.26536  1.0000
  C   C1631     1.0  0.10765  0.75224  0.06165  1.0000
  C   C1632     1.0  0.08121  0.86919  0.02973  1.0000
  C   C1633     1.0  0.07299  0.86031  0.04534  1.0000
  C   C1634     1.0  0.06349  0.84850  0.04538  1.0000
  H   H1311     1.0  0.08692  0.77051  0.13688  1.0000
  P   P58       1.0  0.07677  0.83701  0.22868  1.0000
  H   H1312     1.0  0.11313  0.95014  0.21670  1.0000
  H   H1313     1.0  0.06486  0.85228  0.17020  1.0000
  C   C1635     1.0  0.02109  0.82906  0.25018  1.0000
  C   C1636     1.0  0.01804  0.80073  0.06623  1.0000
  C   C1637     1.0  0.13569  0.78080  0.27726  1.0000
  C   C1638     1.0  0.06775  0.78792  0.17129  1.0000
  H   H1314     1.0  0.06275  0.87289  0.21621  1.0000
  C   C1639     1.0  0.05153  0.80518  0.06205  1.0000
  P   P59       1.0  0.07092  0.75301  0.17150  1.0000
  H   H1315     1.0  0.09267  0.79532  0.27989  1.0000
  C   C1640     1.0  0.00747  0.75765  0.13799  1.0000
  H   H1316     1.0  0.10529  0.75800  0.16850  1.0000
  H   H1317     1.0  0.16426  0.74923  0.08128  1.0000
  C   C1641     1.0  0.07014  0.84482  0.19575  1.0000
  H   H1318     1.0  0.03000  0.80587  0.24017  1.0000
  C   C1642     1.0  0.02961  0.80038  0.05034  1.0000
  H   H1319     1.0  0.99776  0.76356  0.18438  1.0000
  H   H1320     1.0  0.07440  0.86221  0.05744  1.0000
  H   H1321     1.0  0.05751  0.84134  0.05755  1.0000
  C   C1643     1.0  0.06497  0.81797  0.99198  1.0000
  C   C1644     1.0  0.09754  0.80427  0.23038  1.0000
  C   C1645     1.0  0.08277  0.83967  0.20559  1.0000
  H   H1322     1.0  0.02563  0.79821  0.03968  1.0000
  C   C1646     1.0  0.16515  0.75831  0.12738  1.0000
  C   C1647     1.0  0.02063  0.77124  0.16761  1.0000
  H   H1323     1.0  0.09879  0.84407  0.24827  1.0000
  C   C1648     1.0  0.03853  0.76866  0.16471  1.0000
  C   C1649     1.0  0.02064  0.74892  0.19337  1.0000
  H   H1324     1.0  0.17791  0.76099  0.12417  1.0000
  C   C1650     1.0  0.06224  0.84552  0.02981  1.0000
  C   C1651     1.0  0.07035  0.85450  0.01400  1.0000
  C   C1652     1.0  0.10601  0.83940  0.99108  1.0000
  C   C1653     1.0  0.10477  0.84179  0.17926  1.0000
  C   C1654     1.0  0.22448  0.74646  0.22700  1.0000
  C   C1655     1.0  0.05353  0.96837  0.21209  1.0000
  H   H1325     1.0  0.11001  0.83516  0.20467  1.0000
  C   C1656     1.0  0.05476  0.83449  0.23666  1.0000
  C   C1657     1.0  0.10014  0.83837  0.19725  1.0000
  S   S222      1.0  0.99696  0.82309  0.21576  1.0000
  H   H1326     1.0  0.09794  0.80600  0.21680  1.0000
  S   S223      1.0  0.09326  0.77609  0.99122  1.0000
  H   H1327     1.0  0.05403  0.78954  0.17286  1.0000
  C   C1658     1.0  0.05024  0.81978  0.23502  1.0000
  H   H1328     1.0  0.04470  0.94447  0.22178  1.0000
  S   S224      1.0  0.00397  0.85066  0.17937  1.0000
  C   C1659     1.0  0.07134  0.87234  0.22438  1.0000
  H   H1329     1.0  0.01045  0.85204  0.13739  1.0000
  H   H1330     1.0  0.10685  0.73689  0.02720  1.0000
  H   H1331     1.0  0.06594  0.81471  0.17039  1.0000
  C   C1660     1.0  0.07892  0.75937  0.05603  1.0000
  H   H1332     1.0  0.14294  0.79929  0.98919  1.0000
  C   C1661     1.0  0.08714  0.81413  0.25728  1.0000
  C   C1662     1.0  0.15220  0.75273  0.27300  1.0000
  C   C1663     1.0  0.08926  0.73715  0.11876  1.0000
  H   H1333     1.0  0.06014  0.79442  0.98922  1.0000
  C   C1664     1.0  0.07443  0.80224  0.17015  1.0000
  C   C1665     1.0  0.01787  0.84427  0.11293  1.0000
  H   H1334     1.0  0.99490  0.80653  0.13673  1.0000
  H   H1335     1.0  0.09553  0.84999  0.15554  1.0000
  C   C1666     1.0  0.02555  0.84360  0.25210  1.0000
  C   C1667     1.0  0.09207  0.84680  0.16949  1.0000
  C   C1668     1.0  0.03347  0.81709  0.24177  1.0000
  C   C1669     1.0  0.12071  0.78993  0.98967  1.0000
  C   C1670     1.0  0.22877  0.88974  0.10668  1.0000
  C   C1671     1.0  0.09652  0.77028  0.16902  1.0000
  S   S225      1.0  0.01562  0.80907  0.17973  1.0000
  H   H1336     1.0  0.03498  0.86764  0.18688  1.0000
  H   H1337     1.0  0.16950  0.96167  0.16283  1.0000
  H   H1338     1.0  0.17566  0.82554  0.21964  1.0000
  H   H1339     1.0  0.05529  0.88757  0.17370  1.0000
  H   H1340     1.0  0.08820  0.89909  0.23741  1.0000
  P   P60       1.0  0.07025  0.84968  0.99372  1.0000
  C   C1672     1.0  0.00156  0.81686  0.12996  1.0000
  C   C1673     1.0  0.20069  0.90836  0.11326  1.0000
  C   C1674     1.0  0.07992  0.86631  0.01414  1.0000
  H   H1341     1.0  0.08551  0.76645  0.07649  1.0000
  C   C1675     1.0  0.16318  0.92166  0.12011  1.0000
  H   H1342     1.0  0.19059  0.80781  0.19732  1.0000
  H   H1343     1.0  0.12593  0.79593  0.19948  1.0000
  C   C1676     1.0  0.22943  0.89612  0.08907  1.0000
  H   H1344     1.0  0.13947  0.78571  0.22930  1.0000
  S   S226      1.0  0.02908  0.77979  0.22192  1.0000
  H   H1345     1.0  0.09741  0.76135  0.10920  1.0000
  H   H1346     1.0  0.18459  0.84420  0.25968  1.0000
  C   C1677     1.0  0.18602  0.93516  0.13409  1.0000
  H   H1347     1.0  0.17114  0.90035  0.10688  1.0000
  C   C1678     1.0  0.18451  0.89975  0.16290  1.0000
  C   C1679     1.0  0.18251  0.88636  0.17733  1.0000
  C   C1680     1.0  0.17261  0.87150  0.16128  1.0000
  H   H1348     1.0  0.12499  0.78870  0.28442  1.0000
  C   C1681     1.0  0.07977  0.85643  0.23264  1.0000
  C   C1682     1.0  0.09124  0.75298  0.12029  1.0000
  C   C1683     1.0  0.03493  0.87755  0.19331  1.0000
  C   C1684     1.0  0.21592  0.90883  0.08352  1.0000
  H   H1349     1.0  0.05534  0.83587  0.03026  1.0000
  H   H1350     1.0  0.10371  0.83844  0.00484  1.0000
  C   C1685     1.0  0.10668  0.96334  0.21711  1.0000
  H   H1351     1.0  0.03209  0.94742  0.19675  1.0000
  C   C1686     1.0  0.15477  0.75988  0.03548  1.0000
  H   H1352     1.0  0.12090  0.93073  0.10350  1.0000
  C   C1687     1.0  0.04637  0.80251  0.04826  1.0000
  H   H1353     1.0  0.02449  0.85474  0.10651  1.0000
  C   C1688     1.0  0.18249  0.80356  0.25936  1.0000
  C   C1689     1.0  0.17005  0.81139  0.17938  1.0000
  C   C1690     1.0  0.22449  0.75956  0.23490  1.0000
  H   H1354     1.0  0.06548  0.76556  0.05913  1.0000
  C   C1691     1.0  0.16425  0.76949  0.03962  1.0000
  C   C1692     1.0  0.02315  0.80326  0.08025  1.0000
  C   C1693     1.0  0.17646  0.87228  0.17655  1.0000
  C   C1694     1.0  0.14891  0.74608  0.04774  1.0000
  Fe  Fe112     1.0  0.99190  0.82757  0.18933  1.0000
  H   H1355     1.0  0.16829  0.78043  0.03024  1.0000
  H   H1356     1.0  0.07956  0.82378  0.26456  1.0000
  C   C1695     1.0  0.08051  0.75730  0.23865  1.0000
  H   H1357     1.0  0.11976  0.74796  0.13865  1.0000
  C   C1696     1.0  0.07421  0.88767  0.22626  1.0000
  C   C1697     1.0  0.14644  0.79237  0.21752  1.0000
  C   C1698     1.0  0.03858  0.74625  0.19042  1.0000
  C   C1699     1.0  0.16789  0.76547  0.05603  1.0000
  H   H1358     1.0  0.12350  0.96709  0.23130  1.0000
  C   C1700     1.0  0.17793  0.80597  0.19788  1.0000
  H   H1359     1.0  0.14456  0.90649  0.09618  1.0000
  C   C1701     1.0  0.16636  0.79622  0.21695  1.0000
  C   C1702     1.0  0.06512  0.75324  0.24918  1.0000
  C   C1703     1.0  0.03883  0.97192  0.18406  1.0000
  H   H1360     1.0  0.06439  0.74727  0.20901  1.0000
  C   C1704     1.0  0.01509  0.78142  0.11479  1.0000
  C   C1705     1.0  0.09135  0.85607  0.24260  1.0000
  C   C1706     1.0  0.14305  0.74428  0.14747  1.0000
  H   H1361     1.0  0.01579  0.85315  0.25812  1.0000
  H   H1362     1.0  0.04421  0.80762  0.08844  1.0000
  H   H1363     1.0  0.08149  0.98530  0.16631  1.0000
  H   H1364     1.0  0.06798  0.89986  0.21945  1.0000
  H   H1365     1.0  0.05088  0.75172  0.12354  1.0000
  H   H1366     1.0  0.99509  0.82832  0.15222  1.0000
  C   C1707     1.0  0.14157  0.98244  0.18801  1.0000
  C   C1708     1.0  0.07879  0.77181  0.17065  1.0000
  C   C1709     1.0  0.24169  0.98127  0.12034  1.0000
  H   H1367     1.0  0.14468  0.80241  0.25964  1.0000
  H   H1368     1.0  0.06460  0.80663  0.06062  1.0000
  H   H1369     1.0  0.15176  0.76359  0.02282  1.0000
  C   C1710     1.0  0.03737  0.75761  0.12443  1.0000
  C   C1711     1.0  0.13077  0.79635  0.99681  1.0000
  C   C1712     1.0  0.11396  0.74402  0.04760  1.0000
  H   H1370     1.0  0.20886  0.93762  0.11385  1.0000
  H   H1371     1.0  0.18531  0.88703  0.18925  1.0000
  H   H1372     1.0  0.17744  0.81704  0.16735  1.0000
  C   C1713     1.0  0.01166  0.76143  0.18200  1.0000
  H   H1373     1.0  0.01373  0.78100  0.15875  1.0000
  H   H1374     1.0  0.18323  0.79092  0.26771  1.0000
  H   H1375     1.0  0.11682  0.78326  0.16667  1.0000
  H   H1376     1.0  0.19137  0.92503  0.09106  1.0000
  C   C1714     1.0  0.20325  0.95663  0.12908  1.0000
  C   C1715     1.0  0.07792  0.74707  0.15074  1.0000
  C   C1716     1.0  0.20014  0.94262  0.12462  1.0000
  H   H1377     1.0  0.21429  0.89095  0.13235  1.0000
  H   H1378     1.0  0.16767  0.86076  0.16065  1.0000
  C   C1717     1.0  0.16127  0.91141  0.10976  1.0000
  C   C1718     1.0  0.17438  0.88496  0.14694  1.0000
  H   H1379     1.0  0.14514  0.81053  0.16849  1.0000
  H   H1380     1.0  0.08940  0.96371  0.20154  1.0000
  C   C1719     1.0  0.04886  0.77274  0.22860  1.0000
  C   C1720     1.0  0.21452  0.89593  0.11875  1.0000
  H   H1381     1.0  0.15057  0.94375  0.13184  1.0000
  C   C1721     1.0  0.13284  0.92853  0.10769  1.0000
  C   C1722     1.0  0.15003  0.80759  0.18008  1.0000
  C   C1723     1.0  0.14977  0.93559  0.12388  1.0000
  H   H1382     1.0  0.17089  0.88419  0.13545  1.0000
  H   H1383     1.0  0.12918  0.76758  0.11100  1.0000
  H   H1384     1.0  0.05541  0.80199  0.03602  1.0000
  C   C1724     1.0  0.10325  0.78502  0.25691  1.0000
  C   C1725     1.0  0.17499  0.94213  0.14796  1.0000
  C   C1726     1.0  0.20167  0.91506  0.09557  1.0000
  C   C1727     1.0  0.04948  0.76061  0.24401  1.0000
  C   C1728     1.0  0.11251  0.97286  0.22535  1.0000
  C   C1729     1.0  0.02485  0.74972  0.13661  1.0000
  C   C1730     1.0  0.20662  0.75469  0.14373  1.0000
  C   C1731     1.0  0.04713  0.98453  0.18456  1.0000
  C   C1732     1.0  0.16352  0.76043  0.25901  1.0000
  H   H1385     1.0  0.18436  0.75965  0.21876  1.0000
  H   H1386     1.0  0.03779  0.75676  0.25193  1.0000
  C   C1733     1.0  0.21000  0.77287  0.23695  1.0000
  C   C1734     1.0  0.19537  0.77318  0.23106  1.0000
  C   C1735     1.0  0.19564  0.76009  0.22288  1.0000
  P   P61       1.0  0.17556  0.78866  0.23590  1.0000
  C   C1736     1.0  0.16085  0.77842  0.25378  1.0000
  C   C1737     1.0  0.17937  0.80627  0.24277  1.0000
  C   C1738     1.0  0.17829  0.82285  0.23234  1.0000
  C   C1739     1.0  0.18012  0.83646  0.23845  1.0000
  C   C1740     1.0  0.18327  0.83362  0.25494  1.0000
  H   H1387     1.0  0.17480  0.77323  0.05940  1.0000
  H   H1388     1.0  0.08897  0.87796  0.02980  1.0000
  H   H1389     1.0  0.02863  0.73763  0.14517  1.0000
  C   C1741     1.0  0.10483  0.78822  0.23912  1.0000
  C   C1742     1.0  0.03994  0.80566  0.07789  1.0000
  H   H1390     1.0  0.11123  0.77802  0.23216  1.0000
  C   C1743     1.0  0.08538  0.75807  0.13613  1.0000
  H   H1391     1.0  0.10339  0.87116  0.25186  1.0000
  C   C1744     1.0  0.08554  0.88723  0.23642  1.0000
  C   C1745     1.0  0.03253  0.77332  0.11351  1.0000
  C   C1746     1.0  0.15944  0.74804  0.14340  1.0000
  H   H1392     1.0  0.12953  0.75688  0.29296  1.0000
  Fe  Fe113     1.0  0.12462  0.74385  0.22535  1.0000
  H   H1393     1.0  0.06537  0.74384  0.26112  1.0000
  H   H1394     1.0  0.25322  0.97178  0.11696  1.0000
  H   H1395     1.0  0.01583  0.82913  0.01077  1.0000
  C   C1747     1.0  0.21009  0.74680  0.22090  1.0000
  H   H1396     1.0  0.08686  0.87289  0.00218  1.0000
  C   C1748     1.0  0.00157  0.82922  0.13880  1.0000
  H   H1397     1.0  0.21420  0.96224  0.12181  1.0000
  H   H1398     1.0  0.15428  0.73883  0.27674  1.0000
  C   C1749     1.0  0.09022  0.75991  0.06579  1.0000
  H   H1399     1.0  0.12850  0.75803  0.01147  1.0000
  C   C1750     1.0  0.13701  0.74666  0.00756  1.0000
  C   C1751     1.0  0.05454  0.80644  0.99349  1.0000
  S   S227      1.0  0.09988  0.74627  0.24533  1.0000
  C   C1752     1.0  0.14159  0.74589  0.99011  1.0000
  C   C1753     1.0  0.00261  0.77350  0.12730  1.0000
  H   H1400     1.0  0.05863  0.88700  0.99428  1.0000
  C   C1754     1.0  0.16192  0.75191  0.06838  1.0000
  C   C1755     1.0  0.03689  0.81043  0.00026  1.0000
  H   H1401     1.0  0.99316  0.78663  0.23598  1.0000
  H   H1402     1.0  0.21116  0.74118  0.14876  1.0000
  H   H1403     1.0  0.02894  0.80145  0.00124  1.0000
  C   C1756     1.0  0.07481  0.73708  0.20496  1.0000
  C   C1757     1.0  0.15235  0.74234  0.06433  1.0000
  C   C1758     1.0  0.05505  0.98256  0.19832  1.0000
  H   H1404     1.0  0.07639  0.75089  0.03431  1.0000
  H   H1405     1.0  0.01369  0.74135  0.20459  1.0000
  H   H1406     1.0  0.13350  0.83336  0.98866  1.0000
  C   C1759     1.0  0.10245  0.74329  0.03801  1.0000
  H   H1407     1.0  0.24188  0.97459  0.14742  1.0000
  C   C1760     1.0  0.03986  0.83761  0.00397  1.0000
  C   C1761     1.0  0.05766  0.83365  0.99722  1.0000
  H   H1408     1.0  0.03396  0.84980  0.00783  1.0000
  C   C1762     1.0  0.23530  0.98285  0.13750  1.0000
  H   H1409     1.0  0.07861  0.81467  0.98648  1.0000
  C   C1763     1.0  0.12616  0.98357  0.16633  1.0000
  H   H1410     1.0  0.03328  0.97310  0.17314  1.0000
  C   C1764     1.0  0.39652  0.74311  0.58242  1.0000
  H   H1411     1.0  0.29694  0.76980  0.60181  1.0000
  H   H1412     1.0  0.32210  0.77014  0.61285  1.0000
  C   C1765     1.0  0.31569  0.75936  0.61778  1.0000
  H   H1413     1.0  0.33269  0.74566  0.63506  1.0000
  C   C1766     1.0  0.38046  0.74000  0.61730  1.0000
  H   H1414     1.0  0.40276  0.74432  0.56891  1.0000
  C   C1767     1.0  0.38426  0.75687  0.58814  1.0000
  H   H1415     1.0  0.36685  0.76603  0.61002  1.0000
  H   H1416     1.0  0.28232  0.74522  0.61292  1.0000
  C   C1768     1.0  0.29323  0.74528  0.61793  1.0000
  H   H1417     1.0  0.38101  0.76875  0.57906  1.0000
  C   C1769     1.0  0.37627  0.75533  0.60557  1.0000
  C   C1770     1.0  0.30151  0.75918  0.61158  1.0000
  C   C1771     1.0  0.32163  0.74561  0.63031  1.0000
  H   H1418     1.0  0.37421  0.73907  0.63076  1.0000
  H   H1419     1.0  0.26682  0.74625  0.64716  1.0000
  Fe  Fe114     1.0  0.08570  0.77923  0.93115  1.0000
  S   S228      1.0  0.10184  0.79703  0.91250  1.0000
  C   C1772     1.0  0.05779  0.78570  0.82196  1.0000
  Fe  Fe115     1.0  0.12209  0.78340  0.92765  1.0000
  H   H1420     1.0  0.07922  0.90836  0.95312  1.0000
  Fe  Fe116     1.0  0.09180  0.81335  0.93244  1.0000
  S   S229      1.0  0.08147  0.84187  0.92689  1.0000
  C   C1773     1.0  0.01439  0.86343  0.88874  1.0000
  Fe  Fe117     1.0  0.11785  0.89551  0.84218  1.0000
  S   S230      1.0  0.09814  0.92005  0.84306  1.0000
  S   S231      1.0  0.13037  0.87944  0.86394  1.0000
  Fe  Fe118     1.0  0.12127  0.89777  0.80445  1.0000
  S   S232      1.0  0.10198  0.92277  0.80177  1.0000
  S   S233      1.0  0.13536  0.88683  0.78085  1.0000
  Fe  Fe119     1.0  0.11492  0.93068  0.81833  1.0000
  S   S234      1.0  0.11786  0.95839  0.81137  1.0000
  Fe  Fe120     1.0  0.08648  0.91044  0.82648  1.0000
  S   S235      1.0  0.05763  0.91760  0.82940  1.0000
  S   S236      1.0  0.13568  0.90692  0.81875  1.0000
  S   S237      1.0  0.10467  0.88478  0.82785  1.0000
  Fe  Fe121     1.0  0.15461  0.78548  0.79197  1.0000
  S   S238      1.0  0.15444  0.80952  0.77113  1.0000
  C   C1774     1.0  0.00181  0.85348  0.89635  1.0000
  S   S239      1.0  0.14621  0.78645  0.81978  1.0000
  H   H1421     1.0  0.03070  0.88822  0.91222  1.0000
  H   H1422     1.0  0.23828  0.75283  0.66610  1.0000
  S   S240      1.0  0.00271  0.81052  0.89595  1.0000
  Fe  Fe122     1.0  0.01820  0.80798  0.83225  1.0000
  C   C1775     1.0  0.03895  0.84008  0.92968  1.0000
  S   S241      1.0  0.03838  0.79241  0.81484  1.0000
  Fe  Fe123     1.0  0.00554  0.84493  0.83627  1.0000
  H   H1423     1.0  0.99450  0.78972  0.81561  1.0000
  S   S242      1.0  0.02509  0.82347  0.84725  1.0000
  H   H1424     1.0  0.12314  0.95898  0.94224  1.0000
  S   S243      1.0  0.00032  0.83015  0.81952  1.0000
  S   S244      1.0  0.13932  0.76587  0.79342  1.0000
  S   S245      1.0  0.15517  0.74427  0.82734  1.0000
  C   C1776     1.0  0.10692  0.85412  0.75115  1.0000
  H   H1425     1.0  0.04349  0.82659  0.95475  1.0000
  C   C1777     1.0  0.03981  0.88941  0.90004  1.0000
  H   H1426     1.0  0.04587  0.78823  0.84808  1.0000
  C   C1778     1.0  0.04464  0.90390  0.82865  1.0000
  C   C1779     1.0  0.02837  0.91171  0.82514  1.0000
  C   C1780     1.0  0.01735  0.90184  0.82414  1.0000
  C   C1781     1.0  0.02210  0.88391  0.82729  1.0000
  C   C1782     1.0  0.03825  0.87585  0.83127  1.0000
  C   C1783     1.0  0.04971  0.88589  0.83159  1.0000
  H   H1427     1.0  0.02434  0.92556  0.82288  1.0000
  Fe  Fe124     1.0  0.13275  0.76545  0.82185  1.0000
  H   H1428     1.0  0.04196  0.86199  0.83384  1.0000
  H   H1429     1.0  0.06235  0.87974  0.83415  1.0000
  C   C1784     1.0  0.14010  0.86494  0.77956  1.0000
  C   C1785     1.0  0.14870  0.86087  0.76359  1.0000
  C   C1786     1.0  0.15291  0.84388  0.76144  1.0000
  C   C1787     1.0  0.14861  0.83057  0.77522  1.0000
  C   C1788     1.0  0.13987  0.83450  0.79134  1.0000
  C   C1789     1.0  0.13564  0.85171  0.79354  1.0000
  H   H1430     1.0  0.15216  0.87097  0.75274  1.0000
  H   H1431     1.0  0.15959  0.84101  0.74897  1.0000
  H   H1432     1.0  0.13637  0.82435  0.80208  1.0000
  H   H1433     1.0  0.12894  0.85472  0.80595  1.0000
  H   H1434     1.0  0.03131  0.73796  0.87262  1.0000
  C   C1790     1.0  0.99666  0.88077  0.86853  1.0000
  S   S246      1.0  0.99728  0.79802  0.85344  1.0000
  C   C1791     1.0  0.12910  0.96513  0.82304  1.0000
  C   C1792     1.0  0.13954  0.95325  0.83350  1.0000
  C   C1793     1.0  0.14751  0.95898  0.84349  1.0000
  H   H1435     1.0  0.19885  0.76497  0.86978  1.0000
  S   S247      1.0  0.10775  0.76637  0.84139  1.0000
  H   H1436     1.0  0.14129  0.93968  0.83401  1.0000
  H   H1437     1.0  0.15544  0.94979  0.85170  1.0000
  C   C1794     1.0  0.09504  0.85215  0.90926  1.0000
  C   C1795     1.0  0.11187  0.84368  0.90343  1.0000
  C   C1796     1.0  0.12272  0.85216  0.88948  1.0000
  C   C1797     1.0  0.11656  0.86888  0.88103  1.0000
  C   C1798     1.0  0.09969  0.87727  0.88672  1.0000
  C   C1799     1.0  0.08899  0.86897  0.90099  1.0000
  H   H1438     1.0  0.11661  0.83067  0.90976  1.0000
  H   H1439     1.0  0.13580  0.84568  0.88508  1.0000
  H   H1440     1.0  0.09509  0.89029  0.88038  1.0000
  H   H1441     1.0  0.07601  0.87553  0.90556  1.0000
  C   C1800     1.0  0.17781  0.81447  0.81105  1.0000
  C   C1801     1.0  0.04641  0.77456  0.90125  1.0000
  C   C1802     1.0  0.03145  0.78426  0.89549  1.0000
  C   C1803     1.0  0.02168  0.79830  0.90270  1.0000
  H   H1442     1.0  0.07046  0.84641  0.89476  1.0000
  H   H1443     1.0  0.99683  0.87604  0.79239  1.0000
  H   H1444     1.0  0.05383  0.76354  0.89592  1.0000
  H   H1445     1.0  0.02736  0.78078  0.88564  1.0000
  C   C1804     1.0  0.12715  0.98274  0.82215  1.0000
  H   H1446     1.0  0.16540  0.82166  0.80866  1.0000
  C   C1805     1.0  0.14908  0.77461  0.88439  1.0000
  H   H1447     1.0  0.03030  0.83160  0.88083  1.0000
  H   H1448     1.0  0.13520  0.77745  0.88841  1.0000
  H   H1449     1.0  0.14897  0.77197  0.85892  1.0000
  H   H1450     1.0  0.00465  0.81911  0.75411  1.0000
  S   S248      1.0  0.07420  0.79650  0.95007  1.0000
  H   H1451     1.0  0.07274  0.89425  0.85648  1.0000
  C   C1806     1.0  0.12382  0.97677  0.91784  1.0000
  H   H1452     1.0  0.13127  0.74738  0.90337  1.0000
  C   C1807     1.0  0.05547  0.74458  0.87051  1.0000
  H   H1453     1.0  0.20961  0.82790  0.87631  1.0000
  H   H1454     1.0  0.02544  0.79343  0.76435  1.0000
  H   H1455     1.0  0.08115  0.74760  0.86838  1.0000
  C   C1808     1.0  0.03494  0.83657  0.94769  1.0000
  C   C1809     1.0  0.12188  0.96107  0.92903  1.0000
  C   C1810     1.0  0.01311  0.86234  0.92926  1.0000
  C   C1811     1.0  0.09617  0.84311  0.96490  1.0000
  S   S249      1.0  0.15410  0.98324  0.85681  1.0000
  C   C1812     1.0  0.04379  0.87688  0.89003  1.0000
  H   H1456     1.0  0.10241  0.86754  0.75178  1.0000
  S   S250      1.0  0.17915  0.76600  0.79507  1.0000
  C   C1813     1.0  0.04739  0.89854  0.97226  1.0000
  H   H1457     1.0  0.20063  0.83500  0.84845  1.0000
  C   C1814     1.0  0.07314  0.73859  0.86967  1.0000
  C   C1815     1.0  0.05525  0.81512  0.87703  1.0000
  C   C1816     1.0  0.11920  0.81964  0.74870  1.0000
  C   C1817     1.0  0.05197  0.77913  0.91382  1.0000
  C   C1818     1.0  0.11322  0.83978  0.95585  1.0000
  C   C1819     1.0  0.06351  0.89297  0.86862  1.0000
  Fe  Fe125     1.0  0.16335  0.74643  0.79860  1.0000
  C   C1820     1.0  0.02703  0.80265  0.91558  1.0000
  C   C1821     1.0  0.01385  0.79809  0.77319  1.0000
  H   H1458     1.0  0.05865  0.86959  0.86609  1.0000
  H   H1459     1.0  0.09102  0.82147  0.88557  1.0000
  H   H1460     1.0  0.02053  0.77876  0.79509  1.0000
  H   H1461     1.0  0.22010  0.74647  0.75010  1.0000
  H   H1462     1.0  0.03107  0.81935  0.78524  1.0000
  C   C1822     1.0  0.12695  0.81162  0.84959  1.0000
  C   C1823     1.0  0.11391  0.82617  0.85123  1.0000
  C   C1824     1.0  0.11800  0.84208  0.84908  1.0000
  C   C1825     1.0  0.13520  0.84366  0.84452  1.0000
  C   C1826     1.0  0.14840  0.82918  0.84255  1.0000
  C   C1827     1.0  0.14418  0.81312  0.84536  1.0000
  P   P62       1.0  0.17057  0.83064  0.83872  1.0000
  H   H1463     1.0  0.18028  0.74399  0.75649  1.0000
  C   C1828     1.0  0.17710  0.82543  0.85913  1.0000
  C   C1829     1.0  0.15688  0.77163  0.86766  1.0000
  C   C1830     1.0  0.04763  0.90366  0.89426  1.0000
  C   C1831     1.0  0.18741  0.81739  0.89071  1.0000
  C   C1832     1.0  0.17204  0.81371  0.88996  1.0000
  C   C1833     1.0  0.16692  0.81761  0.87426  1.0000
  C   C1834     1.0  0.10929  0.73816  0.90282  1.0000
  C   C1835     1.0  0.04349  0.82956  0.88198  1.0000
  C   C1836     1.0  0.17420  0.87408  0.80086  1.0000
  C   C1837     1.0  0.17244  0.85746  0.80969  1.0000
  Fe  Fe126     1.0  0.00274  0.81541  0.86756  1.0000
  H   H1464     1.0  0.06561  0.91637  0.87389  1.0000
  S   S251      1.0  0.11356  0.80148  0.94597  1.0000
  H   H1465     1.0  0.12374  0.79917  0.85169  1.0000
  H   H1466     1.0  0.10061  0.82518  0.85425  1.0000
  H   H1467     1.0  0.10783  0.85313  0.85120  1.0000
  H   H1468     1.0  0.13817  0.85611  0.84269  1.0000
  H   H1469     1.0  0.15428  0.80178  0.84437  1.0000
  H   H1470     1.0  0.10080  0.77205  0.80732  1.0000
  C   C1838     1.0  0.03296  0.83996  0.76284  1.0000
  H   H1471     1.0  0.19136  0.81418  0.90291  1.0000
  H   H1472     1.0  0.16412  0.80763  0.90154  1.0000
  H   H1473     1.0  0.15504  0.81440  0.87410  1.0000
  C   C1839     1.0  0.04686  0.87947  0.95458  1.0000
  H   H1474     1.0  0.17348  0.87811  0.78738  1.0000
  H   H1475     1.0  0.17053  0.84897  0.80268  1.0000
  C   C1840     1.0  0.04204  0.85266  0.75304  1.0000
  H   H1476     1.0  0.01693  0.84305  0.97045  1.0000
  Fe  Fe127     1.0  0.16900  0.76536  0.82339  1.0000
  C   C1841     1.0  0.01178  0.87706  0.87468  1.0000
  H   H1477     1.0  0.00453  0.87236  0.92227  1.0000
  H   H1478     1.0  0.07321  0.77826  0.85825  1.0000
  H   H1479     1.0  0.18524  0.76944  0.89931  1.0000
  H   H1480     1.0  0.18337  0.80288  0.78909  1.0000
  H   H1481     1.0  0.00381  0.84256  0.90684  1.0000
  C   C1842     1.0  0.05947  0.90543  0.87852  1.0000
  H   H1482     1.0  0.04546  0.95558  0.81751  1.0000
  S   S252      1.0  0.18544  0.76437  0.84163  1.0000
  C   C1843     1.0  0.09831  0.84153  0.76246  1.0000
  P   P63       1.0  0.07971  0.84698  0.77904  1.0000
  C   C1844     1.0  0.08243  0.83415  0.79986  1.0000
  C   C1845     1.0  0.07626  0.86870  0.78183  1.0000
  C   C1846     1.0  0.09006  0.87483  0.78332  1.0000
  C   C1847     1.0  0.08743  0.89136  0.78622  1.0000
  C   C1848     1.0  0.07093  0.90172  0.78823  1.0000
  C   C1849     1.0  0.05702  0.89551  0.78732  1.0000
  C   C1850     1.0  0.05962  0.87901  0.78426  1.0000
  C   C1851     1.0  0.09826  0.82331  0.80225  1.0000
  C   C1852     1.0  0.10001  0.81355  0.81854  1.0000
  C   C1853     1.0  0.08624  0.81490  0.83259  1.0000
  C   C1854     1.0  0.07072  0.82622  0.83048  1.0000
  C   C1855     1.0  0.06877  0.83579  0.81415  1.0000
  C   C1856     1.0  0.06143  0.84397  0.77288  1.0000
  C   C1857     1.0  0.05242  0.83105  0.78251  1.0000
  C   C1858     1.0  0.05627  0.85464  0.75802  1.0000
  H   H1483     1.0  0.09760  0.81446  0.76914  1.0000
  H   H1484     1.0  0.10286  0.86679  0.78238  1.0000
  H   H1485     1.0  0.09822  0.89600  0.78713  1.0000
  H   H1486     1.0  0.06887  0.91436  0.79100  1.0000
  H   H1487     1.0  0.04413  0.90328  0.78957  1.0000
  H   H1488     1.0  0.04853  0.87421  0.78437  1.0000
  H   H1489     1.0  0.10934  0.82229  0.79173  1.0000
  H   H1490     1.0  0.11197  0.80472  0.82029  1.0000
  H   H1491     1.0  0.08763  0.80690  0.84503  1.0000
  H   H1492     1.0  0.06015  0.82743  0.84143  1.0000
  H   H1493     1.0  0.05657  0.84436  0.81264  1.0000
  H   H1494     1.0  0.05631  0.82232  0.79382  1.0000
  H   H1495     1.0  0.06323  0.86454  0.75036  1.0000
  H   H1496     1.0  0.09012  0.87840  0.94884  1.0000
  C   C1859     1.0  0.09234  0.84337  0.98252  1.0000
  C   C1860     1.0  0.99641  0.79592  0.80209  1.0000
  C   C1861     1.0  0.18795  0.80367  0.80000  1.0000
  H   H1497     1.0  0.04647  0.79688  0.93063  1.0000
  C   C1862     1.0  0.07224  0.81182  0.87889  1.0000
  C   C1863     1.0  0.12307  0.83637  0.98192  1.0000
  C   C1864     1.0  0.05558  0.87888  0.87420  1.0000
  C   C1865     1.0  0.04233  0.79332  0.92087  1.0000
  C   C1866     1.0  0.19767  0.82509  0.87573  1.0000
  H   H1498     1.0  0.00494  0.90818  0.82106  1.0000
  H   H1499     1.0  0.17279  0.86109  0.84992  1.0000
  C   C1867     1.0  0.07773  0.82349  0.88476  1.0000
  H   H1500     1.0  0.99661  0.85784  0.77294  1.0000
  H   H1501     1.0  0.22134  0.78637  0.82032  1.0000
  C   C1868     1.0  0.18356  0.81584  0.82514  1.0000
  H   H1502     1.0  0.12887  0.85904  0.73091  1.0000
  H   H1503     1.0  0.03807  0.86099  0.74160  1.0000
  C   C1869     1.0  0.19255  0.82909  0.85999  1.0000
  C   C1870     1.0  0.04875  0.84072  0.88889  1.0000
  H   H1504     1.0  0.04991  0.75813  0.86985  1.0000
  C   C1871     1.0  0.10717  0.88547  0.92460  1.0000
  C   C1872     1.0  0.09493  0.88886  0.93935  1.0000
  C   C1873     1.0  0.08874  0.90575  0.94170  1.0000
  C   C1874     1.0  0.09471  0.91928  0.92924  1.0000
  C   C1875     1.0  0.10721  0.91598  0.91446  1.0000
  C   C1876     1.0  0.11321  0.89894  0.91213  1.0000
  P   P64       1.0  0.11393  0.93358  0.89771  1.0000
  C   C1877     1.0  0.09788  0.94242  0.88464  1.0000
  C   C1878     1.0  0.11713  0.95060  0.90596  1.0000
  C   C1879     1.0  0.11960  0.96626  0.89472  1.0000
  C   C1880     1.0  0.02002  0.84588  0.95650  1.0000
  S   S253      1.0  0.00725  0.87279  0.82536  1.0000
  C   C1881     1.0  0.07326  0.77894  0.84492  1.0000
  C   C1882     1.0  0.11879  0.94794  0.92309  1.0000
  C   C1883     1.0  0.10240  0.95171  0.86782  1.0000
  C   C1884     1.0  0.09025  0.95848  0.85750  1.0000
  C   C1885     1.0  0.07336  0.95615  0.86389  1.0000
  C   C1886     1.0  0.06860  0.94713  0.88072  1.0000
  C   C1887     1.0  0.08081  0.94017  0.89105  1.0000
  C   C1888     1.0  0.13438  0.92563  0.88453  1.0000
  C   C1889     1.0  0.13499  0.91793  0.87100  1.0000
  C   C1890     1.0  0.15081  0.91159  0.86095  1.0000
  C   C1891     1.0  0.16614  0.91282  0.86433  1.0000
  C   C1892     1.0  0.16566  0.92039  0.87784  1.0000
  C   C1893     1.0  0.14986  0.92675  0.88794  1.0000
  H   H1505     1.0  0.11179  0.87239  0.92262  1.0000
  H   H1506     1.0  0.04455  0.91331  0.90196  1.0000
  C   C1894     1.0  0.00907  0.85873  0.94728  1.0000
  H   H1507     1.0  0.08939  0.93234  0.93100  1.0000
  H   H1508     1.0  0.12235  0.89592  0.90061  1.0000
  H   H1509     1.0  0.11965  0.96833  0.88118  1.0000
  C   C1895     1.0  0.00196  0.81266  0.76745  1.0000
  H   H1510     1.0  0.08610  0.84540  0.95802  1.0000
  C   C1896     1.0  0.05781  0.78478  0.83914  1.0000
  H   H1511     1.0  0.11819  0.93564  0.93177  1.0000
  H   H1512     1.0  0.11539  0.95361  0.86258  1.0000
  H   H1513     1.0  0.09410  0.96540  0.84448  1.0000
  H   H1514     1.0  0.06402  0.96125  0.85575  1.0000
  H   H1515     1.0  0.05550  0.94527  0.88562  1.0000
  H   H1516     1.0  0.07687  0.93295  0.90388  1.0000
  H   H1517     1.0  0.12328  0.91663  0.86827  1.0000
  H   H1518     1.0  0.15108  0.90571  0.85053  1.0000
  H   H1519     1.0  0.17836  0.90800  0.85643  1.0000
  H   H1520     1.0  0.17754  0.92153  0.88035  1.0000
  H   H1521     1.0  0.14982  0.93259  0.89830  1.0000
  C   C1897     1.0  0.18498  0.76758  0.87379  1.0000
  H   H1522     1.0  0.13990  0.83361  0.95739  1.0000
  C   C1898     1.0  0.10421  0.82434  0.76070  1.0000
  C   C1899     1.0  0.12812  0.83213  0.73801  1.0000
  H   H1523     1.0  0.20390  0.80578  0.83951  1.0000
  S   S254      1.0  0.07056  0.76636  0.92097  1.0000
  C   C1900     1.0  0.06605  0.83780  0.88980  1.0000
  C   C1901     1.0  0.04317  0.89598  0.95787  1.0000
  H   H1524     1.0  0.01951  0.81346  0.92123  1.0000
  H   H1525     1.0  0.02144  0.88469  0.86822  1.0000
  H   H1526     1.0  0.03697  0.90676  0.94930  1.0000
  C   C1902     1.0  0.06654  0.96617  0.81806  1.0000
  H   H1527     1.0  0.02195  0.83844  0.75902  1.0000
  H   H1528     1.0  0.05716  0.85282  0.96297  1.0000
  S   S255      1.0  0.15063  0.77619  0.91734  1.0000
  C   C1903     1.0  0.17488  0.76818  0.86234  1.0000
  H   H1529     1.0  0.05109  0.80627  0.87211  1.0000
  C   C1904     1.0  0.01108  0.78974  0.79050  1.0000
  C   C1905     1.0  0.05953  0.86800  0.97992  1.0000
  H   H1530     1.0  0.11594  0.83951  0.94226  1.0000
  C   C1906     1.0  0.12668  0.83647  0.96434  1.0000
  C   C1907     1.0  0.03812  0.82919  0.77756  1.0000
  H   H1531     1.0  0.14009  0.82835  0.72919  1.0000
  C   C1908     1.0  0.20373  0.79366  0.80323  1.0000
  C   C1909     1.0  0.08877  0.77417  0.83352  1.0000
  C   C1910     1.0  0.20941  0.79459  0.81746  1.0000
  H   H1532     1.0  0.08495  0.97987  0.81911  1.0000
  S   S256      1.0  0.10694  0.76400  0.94490  1.0000
  C   C1911     1.0  0.04938  0.96698  0.81810  1.0000
  H   H1533     1.0  0.12428  0.80622  0.74813  1.0000
  C   C1912     1.0  0.17268  0.85224  0.82733  1.0000
  H   H1534     1.0  0.08113  0.80022  0.87580  1.0000
  C   C1913     1.0  0.17630  0.88564  0.80950  1.0000
  H   H1535     1.0  0.17698  0.88995  0.83396  1.0000
  C   C1914     1.0  0.17602  0.88077  0.82715  1.0000
  H   H1536     1.0  0.10685  0.74039  0.80595  1.0000
  H   H1537     1.0  0.05055  0.83257  0.92324  1.0000
  C   C1915     1.0  0.17388  0.86427  0.83611  1.0000
  H   H1538     1.0  0.07331  0.78192  0.79713  1.0000
  H   H1539     1.0  0.04365  0.87733  0.94344  1.0000
  P   P65       1.0  0.03370  0.85853  0.89700  1.0000
  C   C1916     1.0  0.05477  0.86554  0.96565  1.0000
  H   H1540     1.0  0.12539  0.78761  0.97677  1.0000
  C   C1917     1.0  0.17726  0.77013  0.89051  1.0000
  C   C1918     1.0  0.02812  0.85306  0.92029  1.0000
  C   C1919     1.0  0.12185  0.84938  0.73907  1.0000
  C   C1920     1.0  0.19939  0.80563  0.82839  1.0000
  H   H1541     1.0  0.21131  0.78488  0.79495  1.0000
  C   C1921     1.0  0.07165  0.98076  0.81896  1.0000
  C   C1922     1.0  0.14502  0.97656  0.84314  1.0000
  H   H1542     1.0  0.17741  0.89860  0.80266  1.0000
  C   C1923     1.0  0.08884  0.77549  0.81621  1.0000
  H   H1543     1.0  0.07589  0.95419  0.81743  1.0000
  C   C1924     1.0  0.07330  0.78108  0.81047  1.0000
  C   C1925     1.0  0.15933  0.77359  0.89593  1.0000
  Fe  Fe128     1.0  0.09693  0.78310  0.96218  1.0000
  H   H1544     1.0  0.14850  0.73895  0.87602  1.0000
  H   H1545     1.0  0.99483  0.89105  0.85745  1.0000
  C   C1926     1.0  0.03734  0.98239  0.81906  1.0000
  C   C1927     1.0  0.24378  0.73980  0.66427  1.0000
  C   C1928     1.0  0.12287  0.97926  0.90065  1.0000
  H   H1546     1.0  0.04433  0.91133  0.97493  1.0000
  H   H1547     1.0  0.02400  0.98292  0.81925  1.0000
  H   H1548     1.0  0.19671  0.73811  0.72775  1.0000
  C   C1929     1.0  0.12594  0.74120  0.89645  1.0000
  H   H1549     1.0  0.13645  0.75654  0.98068  1.0000
  H   H1550     1.0  0.10173  0.74206  0.91464  1.0000
  H   H1551     1.0  0.99740  0.86585  0.95409  1.0000
  C   C1930     1.0  0.05562  0.88465  0.98321  1.0000
  Fe  Fe129     1.0  0.80548  0.14188  0.05113  1.0000
  S   S257      1.0  0.78870  0.12829  0.07406  1.0000
  S   S258      1.0  0.81329  0.13916  0.02325  1.0000
  Fe  Fe130     1.0  0.81449  0.16237  0.07247  1.0000
  S   S259      1.0  0.79830  0.15106  0.09727  1.0000
  S   S260      1.0  0.83056  0.18185  0.06857  1.0000
  Fe  Fe131     1.0  0.80929  0.12617  0.08826  1.0000
  S   S261      1.0  0.82167  0.10333  0.10581  1.0000
  Fe  Fe132     1.0  0.77896  0.15417  0.08138  1.0000
  S   S262      1.0  0.75046  0.16433  0.08891  1.0000
  S   S263      1.0  0.82697  0.13732  0.06481  1.0000
  S   S264      1.0  0.79411  0.16798  0.05720  1.0000
  H   H1552     1.0  0.91993  0.10557  0.99719  1.0000
  Fe  Fe133     1.0  0.78592  0.01003  0.20173  1.0000
  S   S265      1.0  0.76238  0.02958  0.19630  1.0000
  C   C1931     1.0  0.76743  0.17333  0.01565  1.0000
  Fe  Fe134     1.0  0.80758  0.03714  0.19407  1.0000
  S   S266      1.0  0.78594  0.05915  0.18760  1.0000
  S   S267      1.0  0.83328  0.03931  0.19727  1.0000
  Fe  Fe135     1.0  0.76954  0.04556  0.21060  1.0000
  S   S268      1.0  0.74957  0.05835  0.23060  1.0000
  Fe  Fe136     1.0  0.78063  0.04162  0.17372  1.0000
  S   S269      1.0  0.77420  0.05106  0.14763  1.0000
  S   S270      1.0  0.79143  0.02470  0.21833  1.0000
  S   S271      1.0  0.80370  0.02090  0.17797  1.0000
  H   H1553     1.0  0.96680  0.06320  0.17992  1.0000
  Fe  Fe137     1.0  0.88992  0.14299  0.13389  1.0000
  S   S272      1.0  0.86831  0.12972  0.14834  1.0000
  S   S273      1.0  0.88743  0.16616  0.11228  1.0000
  Fe  Fe138     1.0  0.91497  0.11991  0.15576  1.0000
  S   S274      1.0  0.89519  0.10459  0.17214  1.0000
  S   S275      1.0  0.94256  0.11186  0.15948  1.0000
  Fe  Fe139     1.0  0.88818  0.10540  0.14742  1.0000
  S   S276      1.0  0.88200  0.08346  0.14016  1.0000
  Fe  Fe140     1.0  0.87691  0.13012  0.17190  1.0000
  S   S277      1.0  0.85825  0.13593  0.19632  1.0000
  S   S278      1.0  0.90938  0.11863  0.13086  1.0000
  S   S279      1.0  0.89714  0.14544  0.15758  1.0000
  Fe  Fe141     1.0  0.72823  0.18258  0.18085  1.0000
  S   S280      1.0  0.71354  0.18128  0.20826  1.0000
  C   C1932     1.0  0.75983  0.23299  0.11813  1.0000
  Fe  Fe142     1.0  0.76229  0.17857  0.19033  1.0000
  S   S281      1.0  0.75074  0.17689  0.21844  1.0000
  S   S282      1.0  0.78903  0.18156  0.17633  1.0000
  Fe  Fe143     1.0  0.73569  0.15965  0.21427  1.0000
  S   S283      1.0  0.72995  0.13698  0.23543  1.0000
  Fe  Fe144     1.0  0.72967  0.19847  0.21024  1.0000
  C   C1933     1.0  0.83409  0.23160  0.19079  1.0000
  S   S284      1.0  0.74903  0.15953  0.18668  1.0000
  S   S285      1.0  0.74245  0.20155  0.18234  1.0000
  H   H1554     1.0  0.79795  0.18284  0.99736  1.0000
  C   C1934     1.0  0.93940  0.06710  0.19105  1.0000
  C   C1935     1.0  0.80091  0.22339  0.19230  1.0000
  C   C1936     1.0  0.83860  0.14817  0.19134  1.0000
  C   C1937     1.0  0.82339  0.14957  0.20410  1.0000
  C   C1938     1.0  0.80783  0.15962  0.19978  1.0000
  C   C1939     1.0  0.80745  0.16766  0.18261  1.0000
  C   C1940     1.0  0.82255  0.16581  0.17000  1.0000
  C   C1941     1.0  0.83810  0.15653  0.17437  1.0000
  H   H1555     1.0  0.82369  0.14308  0.21729  1.0000
  H   H1556     1.0  0.79629  0.16139  0.20967  1.0000
  H   H1557     1.0  0.82226  0.17179  0.15674  1.0000
  H   H1558     1.0  0.84977  0.15618  0.16455  1.0000
  C   C1942     1.0  0.97020  0.14761  0.17153  1.0000
  C   C1943     1.0  0.97892  0.13134  0.16849  1.0000
  C   C1944     1.0  0.97042  0.12086  0.16415  1.0000
  C   C1945     1.0  0.95295  0.12623  0.16347  1.0000
  C   C1946     1.0  0.94417  0.14252  0.16646  1.0000
  C   C1947     1.0  0.95286  0.15327  0.17026  1.0000
  P   P66       1.0  0.82375  0.21481  0.19065  1.0000
  H   H1559     1.0  0.98645  0.15941  0.13327  1.0000
  H   H1560     1.0  0.93075  0.14687  0.16581  1.0000
  H   H1561     1.0  0.94608  0.16593  0.17239  1.0000
  C   C1948     1.0  0.84624  0.05188  0.18104  1.0000
  C   C1949     1.0  0.84554  0.05496  0.16366  1.0000
  C   C1950     1.0  0.85654  0.06472  0.15112  1.0000
  C   C1951     1.0  0.86785  0.07182  0.15598  1.0000
  C   C1952     1.0  0.86844  0.06877  0.17334  1.0000
  C   C1953     1.0  0.85793  0.05853  0.18576  1.0000
  H   H1562     1.0  0.83668  0.04971  0.15990  1.0000
  H   H1563     1.0  0.85612  0.06699  0.13766  1.0000
  H   H1564     1.0  0.87727  0.07399  0.17713  1.0000
  H   H1565     1.0  0.85873  0.05583  0.19914  1.0000
  C   C1954     1.0  0.74534  0.08044  0.23088  1.0000
  C   C1955     1.0  0.73366  0.08585  0.24516  1.0000
  C   C1956     1.0  0.72939  0.10315  0.24627  1.0000
  C   C1957     1.0  0.73662  0.11540  0.23307  1.0000
  C   C1958     1.0  0.74852  0.11014  0.21872  1.0000
  C   C1959     1.0  0.75290  0.09260  0.21761  1.0000
  H   H1566     1.0  0.72776  0.07658  0.25542  1.0000
  H   H1567     1.0  0.72018  0.10710  0.25735  1.0000
  H   H1568     1.0  0.75430  0.11954  0.20856  1.0000
  H   H1569     1.0  0.76196  0.08852  0.20652  1.0000
  H   H1570     1.0  0.98344  0.17410  0.25290  1.0000
  C   C1960     1.0  0.85342  0.09077  0.21199  1.0000
  C   C1961     1.0  0.86005  0.99067  0.10021  1.0000
  C   C1962     1.0  0.96285  0.12911  0.23298  1.0000
  C   C1963     1.0  0.84762  0.17553  0.07948  1.0000
  C   C1964     1.0  0.85872  0.18677  0.07632  1.0000
  C   C1965     1.0  0.87110  0.18345  0.08622  1.0000
  C   C1966     1.0  0.87269  0.16870  0.09926  1.0000
  C   C1967     1.0  0.86226  0.15685  0.10184  1.0000
  C   C1968     1.0  0.84973  0.16025  0.09189  1.0000
  H   H1571     1.0  0.85741  0.19836  0.06646  1.0000
  H   H1572     1.0  0.87930  0.19250  0.08398  1.0000
  H   H1573     1.0  0.86362  0.14526  0.11168  1.0000
  H   H1574     1.0  0.84134  0.15136  0.09419  1.0000
  C   C1969     1.0  0.80854  0.08862  0.11692  1.0000
  C   C1970     1.0  0.81317  0.07644  0.13118  1.0000
  C   C1971     1.0  0.80271  0.06473  0.14050  1.0000
  C   C1972     1.0  0.78769  0.06508  0.13544  1.0000
  C   C1973     1.0  0.78332  0.07688  0.12084  1.0000
  C   C1974     1.0  0.79374  0.08869  0.11159  1.0000
  H   H1575     1.0  0.82484  0.07610  0.13505  1.0000
  H   H1576     1.0  0.80633  0.05542  0.15157  1.0000
  H   H1577     1.0  0.77171  0.07712  0.11689  1.0000
  H   H1578     1.0  0.79021  0.09791  0.10047  1.0000
  C   C1975     1.0  0.74195  0.17196  0.10818  1.0000
  C   C1976     1.0  0.75046  0.16690  0.12195  1.0000
  C   C1977     1.0  0.74226  0.17215  0.13767  1.0000
  C   C1978     1.0  0.72574  0.18264  0.13949  1.0000
  H   H1579     1.0  0.77173  0.14542  0.21240  1.0000
  C   C1979     1.0  0.88928  0.07904  0.06659  1.0000
  H   H1580     1.0  0.76304  0.15852  0.12070  1.0000
  H   H1581     1.0  0.74849  0.16782  0.14848  1.0000
  C   C1980     1.0  0.72211  0.13302  0.31322  1.0000
  C   C1981     1.0  0.86275  0.04271  0.11191  1.0000
  C   C1982     1.0  0.77963  0.12420  0.99551  1.0000
  C   C1983     1.0  0.74773  0.16581  0.98660  1.0000
  C   C1984     1.0  0.80621  0.13157  0.99586  1.0000
  C   C1985     1.0  0.80042  0.13236  0.01331  1.0000
  C   C1986     1.0  0.78446  0.12833  0.02211  1.0000
  C   C1987     1.0  0.77406  0.12434  0.01318  1.0000
  H   H1582     1.0  0.79805  0.09591  0.25273  1.0000
  H   H1583     1.0  0.73813  0.21187  0.03492  1.0000
  H   H1584     1.0  0.77997  0.12870  0.03564  1.0000
  H   H1585     1.0  0.76158  0.12156  0.01992  1.0000
  C   C1988     1.0  0.86807  0.09769  0.23038  1.0000
  P   P67       1.0  0.94081  0.07045  0.21146  1.0000
  H   H1586     1.0  0.77271  0.11683  0.26395  1.0000
  C   C1989     1.0  0.70610  0.07568  0.19266  1.0000
  C   C1990     1.0  0.71984  0.06224  0.18874  1.0000
  C   C1991     1.0  0.73456  0.06578  0.17656  1.0000
  C   C1992     1.0  0.73587  0.08269  0.16854  1.0000
  C   C1993     1.0  0.72231  0.09628  0.17271  1.0000
  C   C1994     1.0  0.70722  0.09264  0.18451  1.0000
  P   P68       1.0  0.72369  0.11820  0.16232  1.0000
  C   C1995     1.0  0.71300  0.13147  0.17803  1.0000
  C   C1996     1.0  0.74613  0.11971  0.15545  1.0000
  C   C1997     1.0  0.75534  0.12010  0.16742  1.0000
  C   C1998     1.0  0.77287  0.12055  0.16225  1.0000
  C   C1999     1.0  0.78127  0.12076  0.14506  1.0000
  C   C2000     1.0  0.77219  0.12049  0.13308  1.0000
  C   C2001     1.0  0.75480  0.11963  0.13826  1.0000
  C   C2002     1.0  0.70341  0.14806  0.17318  1.0000
  C   C2003     1.0  0.69418  0.15770  0.18564  1.0000
  C   C2004     1.0  0.69444  0.15088  0.20300  1.0000
  C   C2005     1.0  0.70417  0.13452  0.20792  1.0000
  C   C2006     1.0  0.71358  0.12492  0.19550  1.0000
  C   C2007     1.0  0.71356  0.12462  0.14397  1.0000
  C   C2008     1.0  0.70340  0.11451  0.14152  1.0000
  C   C2009     1.0  0.69635  0.11918  0.12684  1.0000
  C   C2010     1.0  0.69945  0.13391  0.11446  1.0000
  C   C2011     1.0  0.70948  0.14405  0.11684  1.0000
  C   C2012     1.0  0.71638  0.13951  0.13158  1.0000
  H   H1587     1.0  0.69467  0.07297  0.20213  1.0000
  H   H1588     1.0  0.71917  0.04907  0.19519  1.0000
  H   H1589     1.0  0.74511  0.05541  0.17342  1.0000
  H   H1590     1.0  0.74753  0.08502  0.15922  1.0000
  H   H1591     1.0  0.69641  0.10292  0.18758  1.0000
  H   H1592     1.0  0.74907  0.11985  0.18077  1.0000
  H   H1593     1.0  0.77997  0.12063  0.17158  1.0000
  H   H1594     1.0  0.79484  0.12098  0.14092  1.0000
  H   H1595     1.0  0.77870  0.12079  0.11974  1.0000
  H   H1596     1.0  0.74831  0.11879  0.12877  1.0000
  H   H1597     1.0  0.70308  0.15377  0.15983  1.0000
  H   H1598     1.0  0.68710  0.17064  0.18173  1.0000
  H   H1599     1.0  0.68738  0.15842  0.21261  1.0000
  H   H1600     1.0  0.70455  0.12931  0.22137  1.0000
  H   H1601     1.0  0.72115  0.11229  0.19963  1.0000
  H   H1602     1.0  0.70106  0.10289  0.15076  1.0000
  H   H1603     1.0  0.68867  0.11125  0.12493  1.0000
  H   H1604     1.0  0.69424  0.13740  0.10294  1.0000
  H   H1605     1.0  0.71217  0.15531  0.10712  1.0000
  H   H1606     1.0  0.72423  0.14742  0.13319  1.0000
  C   C2013     1.0  0.98127  0.19041  0.20469  1.0000
  C   C2014     1.0  0.88499  0.09544  0.02780  1.0000
  H   H1607     1.0  0.85409  0.08620  0.20062  1.0000
  H   H1608     1.0  0.87474  0.04530  0.11267  1.0000
  H   H1609     1.0  0.66367  0.16478  0.25851  1.0000
  C   C2015     1.0  0.86867  0.09144  0.21598  1.0000
  H   H1610     1.0  0.92029  0.20923  0.26780  1.0000
  H   H1611     1.0  0.77211  0.19441  0.24107  1.0000
  C   C2016     1.0  0.92330  0.06680  0.18843  1.0000
  C   C2017     1.0  0.94713  0.12758  0.21256  1.0000
  C   C2018     1.0  0.93780  0.14425  0.21327  1.0000
  C   C2019     1.0  0.94099  0.15341  0.22381  1.0000
  H   H1612     1.0  0.80532  0.21049  0.22665  1.0000
  H   H1613     1.0  0.69275  0.16603  0.24026  1.0000
  H   H1614     1.0  0.82283  0.20100  0.13590  1.0000
  H   H1615     1.0  0.94503  0.12069  0.20397  1.0000
  H   H1616     1.0  0.92845  0.15022  0.20524  1.0000
  C   C2020     1.0  0.77832  0.11878  0.25030  1.0000
  H   H1617     1.0  0.90893  0.06396  0.23637  1.0000
  C   C2021     1.0  0.79332  0.05392  0.24153  1.0000
  C   C2022     1.0  0.80678  0.04022  0.24540  1.0000
  C   C2023     1.0  0.82369  0.04270  0.24077  1.0000
  C   C2024     1.0  0.82715  0.05894  0.23244  1.0000
  C   C2025     1.0  0.81367  0.07282  0.22873  1.0000
  C   C2026     1.0  0.79674  0.07011  0.23304  1.0000
  C   C2027     1.0  0.82026  0.09664  0.19486  1.0000
  C   C2028     1.0  0.82800  0.10980  0.18351  1.0000
  C   C2029     1.0  0.82918  0.11249  0.16577  1.0000
  C   C2030     1.0  0.82288  0.10193  0.15921  1.0000
  C   C2031     1.0  0.81500  0.08895  0.17045  1.0000
  C   C2032     1.0  0.81373  0.08626  0.18820  1.0000
  H   H1618     1.0  0.78026  0.05188  0.24465  1.0000
  H   H1619     1.0  0.80415  0.02755  0.25145  1.0000
  H   H1620     1.0  0.83419  0.03190  0.24307  1.0000
  H   H1621     1.0  0.78617  0.08041  0.22968  1.0000
  H   H1622     1.0  0.83308  0.11799  0.18837  1.0000
  H   H1623     1.0  0.83503  0.12271  0.15709  1.0000
  H   H1624     1.0  0.82426  0.10368  0.14541  1.0000
  H   H1625     1.0  0.81022  0.08069  0.16537  1.0000
  H   H1626     1.0  0.77527  0.02161  0.13425  1.0000
  C   C2033     1.0  0.76176  0.18867  0.00452  1.0000
  C   C2034     1.0  0.79268  0.10700  0.24388  1.0000
  C   C2035     1.0  0.83693  0.10246  0.23692  1.0000
  C   C2036     1.0  0.79985  0.10937  0.22611  1.0000
  C   C2037     1.0  0.76211  0.18852  0.25029  1.0000
  H   H1627     1.0  0.87283  0.19319  0.14643  1.0000
  C   C2038     1.0  0.81659  0.09151  0.04720  1.0000
  P   P69       1.0  0.81796  0.09380  0.21784  1.0000
  C   C2039     1.0  0.76051  0.23068  0.15246  1.0000
  H   H1628     1.0  0.93391  0.16648  0.22387  1.0000
  H   H1629     1.0  0.69045  0.19310  0.29588  1.0000
  H   H1630     1.0  0.89697  0.06170  0.00741  1.0000
  C   C2040     1.0  0.85901  0.02637  0.11896  1.0000
  C   C2041     1.0  0.90415  0.12038  0.22456  1.0000
  C   C2042     1.0  0.80252  0.01244  0.13265  1.0000
  H   H1631     1.0  0.90135  0.12655  0.19818  1.0000
  H   H1632     1.0  0.81282  0.08737  0.07477  1.0000
  H   H1633     1.0  0.85134  0.22067  0.08344  1.0000
  C   C2043     1.0  0.76579  0.17119  0.25832  1.0000
  H   H1634     1.0  0.89482  0.19568  0.27914  1.0000
  H   H1635     1.0  0.57897  0.21744  0.30664  1.0000
  H   H1636     1.0  0.83209  0.22570  0.21842  1.0000
  H   H1637     1.0  0.99032  0.06373  0.23798  1.0000
  C   C2044     1.0  0.72134  0.02628  0.16028  1.0000
  C   C2045     1.0  0.73823  0.02741  0.15927  1.0000
  C   C2046     1.0  0.74962  0.01311  0.16620  1.0000
  C   C2047     1.0  0.74421  0.99764  0.17399  1.0000
  C   C2048     1.0  0.72724  0.99640  0.17522  1.0000
  C   C2049     1.0  0.71587  0.01083  0.16816  1.0000
  P   P70       1.0  0.71871  0.16384  0.28856  1.0000
  H   H1638     1.0  0.94803  0.14772  0.28453  1.0000
  C   C2050     1.0  0.90688  0.18861  0.27287  1.0000
  H   H1639     1.0  0.65850  0.16353  0.28991  1.0000
  C   C2051     1.0  0.86152  0.16234  0.03600  1.0000
  C   C2052     1.0  0.92637  0.02186  0.24959  1.0000
  C   C2053     1.0  0.91014  0.09839  0.00464  1.0000
  C   C2054     1.0  0.73360  0.10497  0.30588  1.0000
  H   H1640     1.0  0.73389  0.13634  0.26970  1.0000
  C   C2055     1.0  0.75274  0.16354  0.26997  1.0000
  H   H1641     1.0  0.79409  0.19838  0.20098  1.0000
  H   H1642     1.0  0.85959  0.20327  0.17375  1.0000
  H   H1643     1.0  0.95213  0.00909  0.23961  1.0000
  H   H1644     1.0  0.71256  0.03738  0.15483  1.0000
  H   H1645     1.0  0.74253  0.03932  0.15300  1.0000
  H   H1646     1.0  0.76271  0.01401  0.16548  1.0000
  C   C2056     1.0  0.81049  0.22180  0.10752  1.0000
  H   H1647     1.0  0.70282  0.01022  0.16856  1.0000
  H   H1648     1.0  0.89827  0.11656  0.02102  1.0000
  C   C2057     1.0  0.73581  0.17312  0.27333  1.0000
  C   C2058     1.0  0.92619  0.08986  0.21660  1.0000
  C   C2059     1.0  0.70502  0.22270  0.24029  1.0000
  C   C2060     1.0  0.68463  0.16429  0.28920  1.0000
  C   C2061     1.0  0.84489  0.00538  0.15961  1.0000
  C   C2062     1.0  0.84866  0.09825  0.04616  1.0000
  H   H1649     1.0  0.79307  0.23237  0.04904  1.0000
  C   C2063     1.0  0.72542  0.14093  0.29569  1.0000
  C   C2064     1.0  0.95372  0.14599  0.23361  1.0000
  H   H1650     1.0  0.98758  0.13956  0.11476  1.0000
  C   C2065     1.0  0.82315  0.20725  0.15956  1.0000
  S   S286      1.0  0.98077  0.16129  0.17640  1.0000
  H   H1651     1.0  0.52743  0.22294  0.28078  1.0000
  C   C2066     1.0  0.98485  0.06922  0.22664  1.0000
  C   C2067     1.0  0.83536  0.05258  0.10334  1.0000
  C   C2068     1.0  0.83138  0.03641  0.11074  1.0000
  C   C2069     1.0  0.73638  0.11271  0.28839  1.0000
  H   H1652     1.0  0.85022  0.01646  0.15248  1.0000
  C   C2070     1.0  0.85898  0.19739  0.15003  1.0000
  H   H1653     1.0  0.90976  0.11095  0.24990  1.0000
  H   H1654     1.0  0.85343  0.06866  0.09916  1.0000
  H   H1655     1.0  0.82615  0.06279  0.09736  1.0000
  H   H1656     1.0  0.81918  0.03449  0.10992  1.0000
  H   H1657     1.0  0.88298  0.12609  0.05823  1.0000
  C   C2071     1.0  0.98259  0.17862  0.23951  1.0000
  C   C2072     1.0  0.82627  0.19752  0.20921  1.0000
  C   C2073     1.0  0.83900  0.18251  0.20792  1.0000
  C   C2074     1.0  0.84080  0.16942  0.22248  1.0000
  C   C2075     1.0  0.82972  0.17101  0.23835  1.0000
  C   C2076     1.0  0.81695  0.18584  0.23977  1.0000
  C   C2077     1.0  0.81528  0.19907  0.22530  1.0000
  H   H1658     1.0  0.85453  0.19223  0.12738  1.0000
  C   C2078     1.0  0.92369  0.16271  0.26314  1.0000
  H   H1659     1.0  0.77400  0.21360  0.04874  1.0000
  H   H1660     1.0  0.96256  0.17513  0.20954  1.0000
  H   H1661     1.0  0.84733  0.18053  0.19571  1.0000
  H   H1662     1.0  0.85047  0.15776  0.22125  1.0000
  H   H1663     1.0  0.83093  0.16065  0.24948  1.0000
  S   S287      1.0  0.66250  0.22305  0.28932  1.0000
  H   H1664     1.0  0.92930  0.08410  0.24294  1.0000
  C   C2079     1.0  0.76255  0.17186  0.03349  1.0000
  H   H1665     1.0  0.65935  0.98926  0.18110  1.0000
  H   H1666     1.0  0.90138  0.03777  0.25651  1.0000
  C   C2080     1.0  0.67115  0.16424  0.28187  1.0000
  C   C2081     1.0  0.94285  0.02118  0.23910  1.0000
  C   C2082     1.0  0.95259  0.06141  0.16239  1.0000
  C   C2083     1.0  0.92123  0.19624  0.26648  1.0000
  H   H1667     1.0  0.74143  0.10488  0.27869  1.0000
  H   H1668     1.0  0.64852  0.98816  0.21246  1.0000
  H   H1669     1.0  0.68230  0.16323  0.30298  1.0000
  C   C2084     1.0  0.77742  0.21341  0.06063  1.0000
  H   H1670     1.0  0.90934  0.06446  0.17060  1.0000
  P   P71       1.0  0.79237  0.21158  0.11138  1.0000
  C   C2085     1.0  0.97143  0.17312  0.23278  1.0000
  H   H1671     1.0  0.97281  0.12295  0.24020  1.0000
  C   C2086     1.0  0.81739  0.00122  0.12601  1.0000
  C   C2087     1.0  0.75114  0.20261  0.01159  1.0000
  C   C2088     1.0  0.96918  0.06587  0.22616  1.0000
  C   C2089     1.0  0.85140  0.20292  0.16556  1.0000
  C   C2090     1.0  0.77415  0.22141  0.14216  1.0000
  H   H1672     1.0  0.96402  0.09117  0.18719  1.0000
  C   C2091     1.0  0.83976  0.22448  0.09272  1.0000
  P   P72       1.0  0.83815  0.00213  0.12888  1.0000
  H   H1673     1.0  0.84562  0.16315  0.01869  1.0000
  H   H1674     1.0  0.75044  0.16109  0.99934  1.0000
  C   C2092     1.0  0.82547  0.21721  0.09533  1.0000
  H   H1675     1.0  0.71941  0.19823  0.26800  1.0000
  C   C2093     1.0  0.91207  0.10840  0.23713  1.0000
  H   H1676     1.0  0.85878  0.17617  0.03473  1.0000
  C   C2094     1.0  0.95944  0.11996  0.22261  1.0000
  C   C2095     1.0  0.89473  0.07178  0.08211  1.0000
  H   H1677     1.0  0.74648  0.21459  0.00341  1.0000
  H   H1678     1.0  0.92451  0.14967  0.26207  1.0000
  H   H1679     1.0  0.89105  0.07331  0.10860  1.0000
  C   C2096     1.0  0.91851  0.10214  0.20400  1.0000
  C   C2097     1.0  0.93530  0.05170  0.22696  1.0000
  C   C2098     1.0  0.88679  0.07892  0.09660  1.0000
  C   C2099     1.0  0.72557  0.18260  0.11005  1.0000
  H   H1680     1.0  0.82607  0.20801  0.08780  1.0000
  H   H1681     1.0  0.84083  0.09285  0.07405  1.0000
  H   H1682     1.0  0.90518  0.06065  0.08292  1.0000
  S   S288      1.0  0.72186  0.22218  0.22182  1.0000
  C   C2100     1.0  0.96178  0.07335  0.21168  1.0000
  C   C2101     1.0  0.93644  0.06179  0.15967  1.0000
  C   C2102     1.0  0.83919  0.23655  0.10211  1.0000
  C   C2103     1.0  0.69472  0.21042  0.24576  1.0000
  C   C2104     1.0  0.93682  0.18716  0.25838  1.0000
  C   C2105     1.0  0.83339  0.20765  0.17057  1.0000
  C   C2106     1.0  0.78938  0.21217  0.19819  1.0000
  H   H1683     1.0  0.87523  0.07247  0.03139  1.0000
  H   H1684     1.0  0.96271  0.05780  0.23727  1.0000
  C   C2107     1.0  0.69039  0.16585  0.25387  1.0000
  H   H1685     1.0  0.98117  0.19447  0.19107  1.0000
  H   H1686     1.0  0.76696  0.15990  0.04197  1.0000
  C   C2108     1.0  0.92310  0.09320  0.23316  1.0000
  C   C2109     1.0  0.71223  0.17583  0.30558  1.0000
  H   H1687     1.0  0.69681  0.20068  0.23840  1.0000
  C   C2110     1.0  0.86778  0.10057  0.08020  1.0000
  C   C2111     1.0  0.73219  0.13058  0.28332  1.0000
  C   C2112     1.0  0.74541  0.19820  0.25393  1.0000
  H   H1688     1.0  0.91181  0.06884  0.19838  1.0000
  C   C2113     1.0  0.94727  0.03602  0.22772  1.0000
  C   C2114     1.0  0.91866  0.05222  0.23729  1.0000
  H   H1689     1.0  0.93518  0.06024  0.14741  1.0000
  H   H1690     1.0  0.89569  0.07332  0.05553  1.0000
  C   C2115     1.0  0.92184  0.06423  0.17277  1.0000
  H   H1691     1.0  0.54588  0.22560  0.29868  1.0000
  C   C2116     1.0  0.77118  0.20247  0.07580  1.0000
  C   C2117     1.0  0.97003  0.08461  0.19801  1.0000
  H   H1692     1.0  0.95995  0.03522  0.21935  1.0000
  C   C2118     1.0  0.88487  0.07984  0.02394  1.0000
  H   H1693     1.0  0.80795  0.07588  0.19663  1.0000
  C   C2119     1.0  0.85084  0.05586  0.10424  1.0000
  C   C2120     1.0  0.83082  0.20200  0.14393  1.0000
  H   H1694     1.0  0.85439  0.00276  0.09277  1.0000
  H   H1695     1.0  0.86846  0.01628  0.12473  1.0000
  C   C2121     1.0  0.84301  0.02323  0.11904  1.0000
  H   H1696     1.0  0.84036  0.06047  0.22855  1.0000
  H   H1697     1.0  0.82486  0.10686  0.24516  1.0000
  H   H1698     1.0  0.92128  0.10024  0.19098  1.0000
  C   C2122     1.0  0.90812  0.17184  0.27123  1.0000
  C   C2123     1.0  0.78657  0.01250  0.12962  1.0000
  C   C2124     1.0  0.84361  0.09920  0.03084  1.0000
  H   H1699     1.0  0.80925  0.21049  0.16315  1.0000
  H   H1700     1.0  0.77726  0.15906  0.15206  1.0000
  H   H1701     1.0  0.92290  0.01030  0.25826  1.0000
  C   C2125     1.0  0.95413  0.06381  0.17810  1.0000
  C   C2126     1.0  0.90983  0.08295  0.00074  1.0000
  C   C2127     1.0  0.77091  0.13282  0.23899  1.0000
  H   H1702     1.0  0.80698  0.14197  0.14746  1.0000
  S   S289      1.0  0.71455  0.18904  0.15896  1.0000
  P   P73       1.0  0.95827  0.15827  0.24658  1.0000
  C   C2128     1.0  0.84868  0.19690  0.13923  1.0000
  H   H1703     1.0  0.75962  0.14182  0.24383  1.0000
  C   C2129     1.0  0.83743  0.09609  0.22250  1.0000
  C   C2130     1.0  0.79215  0.12338  0.21486  1.0000
  H   H1704     1.0  0.77871  0.16365  0.25540  1.0000
  C   C2131     1.0  0.74635  0.20114  0.02949  1.0000
  H   H1705     1.0  0.89701  0.16590  0.27625  1.0000
  C   C2132     1.0  0.79712  0.18938  0.12261  1.0000
  H   H1706     1.0  0.79708  0.12545  0.20109  1.0000
  H   H1707     1.0  0.74249  0.21163  0.24770  1.0000
  C   C2133     1.0  0.91427  0.03735  0.24864  1.0000
  C   C2134     1.0  0.87329  0.09327  0.09568  1.0000
  H   H1708     1.0  0.85172  0.10838  0.25183  1.0000
  C   C2135     1.0  0.85221  0.10329  0.24081  1.0000
  C   C2136     1.0  0.77770  0.13493  0.22129  1.0000
  C   C2137     1.0  0.90739  0.11724  0.20800  1.0000
  C   C2138     1.0  0.81585  0.98935  0.11722  1.0000
  H   H1709     1.0  0.74828  0.18454  0.05429  1.0000
  C   C2139     1.0  0.96129  0.14156  0.28039  1.0000
  C   C2140     1.0  0.82154  0.09035  0.06250  1.0000
  C   C2141     1.0  0.89722  0.07367  0.01041  1.0000
  H   H1710     1.0  0.77557  0.16249  0.01044  1.0000
  H   H1711     1.0  0.85172  0.10308  0.01843  1.0000
  H   H1712     1.0  0.76277  0.19442  0.07567  1.0000
  H   H1713     1.0  0.82431  0.18449  0.11070  1.0000
  H   H1714     1.0  0.67372  0.20127  0.26488  1.0000
  H   H1715     1.0  0.97744  0.10853  0.16127  1.0000
  C   C2142     1.0  0.97018  0.13068  0.29282  1.0000
  C   C2143     1.0  0.75204  0.18576  0.04043  1.0000
  H   H1716     1.0  0.77273  0.00065  0.11872  1.0000
  C   C2144     1.0  0.77604  0.20164  0.09108  1.0000
  H   H1717     1.0  0.80828  0.18706  0.25205  1.0000
  C   C2145     1.0  0.87581  0.09357  0.06547  1.0000
  H   H1718     1.0  0.85722  0.11166  0.07979  1.0000
  C   C2146     1.0  0.85409  0.15502  0.02701  1.0000
  C   C2147     1.0  0.87206  0.15181  0.04707  1.0000
  H   H1719     1.0  0.87765  0.15751  0.05419  1.0000
  H   H1720     1.0  0.78482  0.21324  0.14769  1.0000
  C   C2148     1.0  0.80417  0.15501  0.14029  1.0000
  C   C2149     1.0  0.68165  0.21080  0.26073  1.0000
  H   H1721     1.0  0.89557  0.13215  0.22756  1.0000
  C   C2150     1.0  0.93811  0.17038  0.25650  1.0000
  C   C2151     1.0  0.78742  0.16469  0.14289  1.0000
  C   C2152     1.0  0.67405  0.16497  0.26420  1.0000
  P   P74       1.0  0.86904  0.10336  0.04527  1.0000
  H   H1722     1.0  0.70475  0.19596  0.12693  1.0000
  H   H1723     1.0  0.71892  0.18655  0.09950  1.0000
  H   H1724     1.0  0.83032  0.15468  0.12661  1.0000
  C   C2153     1.0  0.71751  0.18790  0.12560  1.0000
  H   H1725     1.0  0.87988  0.09843  0.23329  1.0000
  C   C2154     1.0  0.81734  0.16226  0.12859  1.0000
  C   C2155     1.0  0.67879  0.22341  0.27038  1.0000
  C   C2156     1.0  0.83752  0.09360  0.06201  1.0000
  H   H1726     1.0  0.80332  0.02149  0.13976  1.0000
  H   H1727     1.0  0.96390  0.05948  0.15221  1.0000
  S   S290      1.0  0.76614  0.11983  0.98437  1.0000
  C   C2157     1.0  0.86665  0.12645  0.04122  1.0000
  C   C2158     1.0  0.98582  0.08775  0.19841  1.0000
  H   H1728     1.0  0.71639  0.16690  0.25285  1.0000
  C   C2159     1.0  0.89779  0.10461  0.01815  1.0000
  C   C2160     1.0  0.85681  0.13715  0.02943  1.0000
  C   C2161     1.0  0.87482  0.13393  0.04952  1.0000
  H   H1729     1.0  0.88090  0.08742  0.20768  1.0000
  C   C2162     1.0  0.77408  0.22276  0.12481  1.0000
  H   H1730     1.0  0.94779  0.19330  0.25359  1.0000
  C   C2163     1.0  0.70379  0.16633  0.26109  1.0000
  H   H1731     1.0  0.85052  0.13182  0.02268  1.0000
  H   H1732     1.0  0.82363  0.09713  0.01952  1.0000
  C   C2164     1.0  0.78695  0.21207  0.09136  1.0000
  C   C2165     1.0  0.78385  0.18175  0.13405  1.0000
  C   C2166     1.0  0.73230  0.19053  0.26535  1.0000
  H   H1733     1.0  0.75598  0.15024  0.27629  1.0000
  C   C2167     1.0  0.81385  0.17931  0.11968  1.0000
  H   H1734     1.0  0.81871  0.13422  0.98910  1.0000
  H   H1735     1.0  0.77118  0.19292  0.10265  1.0000
  H   H1736     1.0  0.76277  0.20993  0.20527  1.0000
  H   H1737     1.0  0.86700  0.09867  0.10704  1.0000
  C   C2168     1.0  0.70098  0.16564  0.27880  1.0000
  C   C2169     1.0  0.82770  0.09575  0.03139  1.0000
  H   H1738     1.0  0.80399  0.08951  0.04755  1.0000
  H   H1739     1.0  0.77073  0.18899  0.13638  1.0000
  C   C2170     1.0  0.98681  0.13619  0.25815  1.0000
  H   H1740     1.0  0.96662  0.10706  0.22216  1.0000
  C   C2171     1.0  0.97071  0.17928  0.21531  1.0000
  C   C2172     1.0  0.79274  0.22345  0.07616  1.0000
  H   H1741     1.0  0.75932  0.23410  0.10487  1.0000
  H   H1742     1.0  0.78918  0.99332  0.17404  1.0000
  C   C2173     1.0  0.78817  0.22393  0.06082  1.0000
  C   C2174     1.0  0.70207  0.23543  0.24984  1.0000
  H   H1743     1.0  0.73668  0.09109  0.30978  1.0000
  C   C2175     1.0  0.77163  0.21863  0.20064  1.0000
  H   H1744     1.0  0.73272  0.14678  0.99036  1.0000
  H   H1745     1.0  0.96376  0.12853  0.30628  1.0000
  C   C2176     1.0  0.96953  0.14434  0.26290  1.0000
  C   C2177     1.0  0.83638  0.23394  0.20628  1.0000
  C   C2178     1.0  0.78518  0.00083  0.12068  1.0000
  C   C2179     1.0  0.69791  0.18957  0.30576  1.0000
  C   C2180     1.0  0.80206  0.17846  0.98532  1.0000
  C   C2181     1.0  0.79586  0.12759  0.98698  1.0000
  C   C2182     1.0  0.98733  0.12248  0.28788  1.0000
  C   C2183     1.0  0.68902  0.23578  0.26488  1.0000
  C   C2184     1.0  0.80988  0.23437  0.11657  1.0000
  H   H1746     1.0  0.82823  0.16914  0.98851  1.0000
  H   H1747     1.0  0.91936  0.07818  0.99023  1.0000
  H   H1748     1.0  0.76075  0.22966  0.16578  1.0000
  H   H1749     1.0  0.84999  0.00752  0.18327  1.0000
  H   H1750     1.0  0.80083  0.23194  0.07605  1.0000
  C   C2185     1.0  0.54299  0.23605  0.28811  1.0000
  C   C2186     1.0  0.83751  0.99661  0.15181  1.0000
  C   C2187     1.0  0.79979  0.98909  0.11468  1.0000
  C   C2188     1.0  0.53250  0.23449  0.27796  1.0000
  C   C2189     1.0  0.84478  0.00035  0.17724  1.0000
  C   C2190     1.0  0.76521  0.23632  0.19710  1.0000
  C   C2191     1.0  0.83717  0.98668  0.18728  1.0000
  C   C2192     1.0  0.85480  0.98689  0.11823  1.0000
  H   H1751     1.0  0.75328  0.98659  0.17898  1.0000
  C   C2193     1.0  0.49588  0.19483  0.33970  1.0000
  C   C2194     1.0  0.54856  0.22947  0.34845  1.0000
  H   H1752     1.0  0.68199  0.20967  0.31867  1.0000
  H   H1753     1.0  0.53468  0.20667  0.32600  1.0000
  C   C2195     1.0  0.51360  0.19350  0.33338  1.0000
  H   H1754     1.0  0.72519  0.17952  0.34035  1.0000
  C   C2196     1.0  0.56911  0.20852  0.33350  1.0000
  C   C2197     1.0  0.71751  0.18219  0.33076  1.0000
  C   C2198     1.0  0.57031  0.22094  0.31821  1.0000
  C   C2199     1.0  0.51053  0.22336  0.33411  1.0000
  C   C2200     1.0  0.52092  0.20776  0.33062  1.0000
  H   H1755     1.0  0.69909  0.20298  0.34110  1.0000
  H   H1756     1.0  0.54056  0.23291  0.36031  1.0000
  H   H1757     1.0  0.57691  0.19567  0.33371  1.0000
  H   H1758     1.0  0.73388  0.16259  0.31748  1.0000
  C   C2201     1.0  0.72230  0.17253  0.31789  1.0000
  H   H1759     1.0  0.51321  0.23538  0.39079  1.0000
  C   C2202     1.0  0.70287  0.19544  0.33118  1.0000
  H   H1760     1.0  0.50893  0.23147  0.36379  1.0000
  H   H1761     1.0  0.56347  0.23067  0.60623  1.0000
  H   H1762     1.0  0.55757  0.20333  0.36060  1.0000
  C   C2203     1.0  0.55822  0.21279  0.34862  1.0000
  H   H1763     1.0  0.67391  0.23000  0.39624  1.0000
  H   H1764     1.0  0.72382  0.10907  0.33182  1.0000
  H   H1765     1.0  0.71585  0.14055  0.32298  1.0000
  H   H1766     1.0  0.52167  0.18139  0.33074  1.0000
  C   C2204     1.0  0.72641  0.11511  0.31828  1.0000
  H   H1767     1.0  0.51641  0.23429  0.33199  1.0000
  C   C2205     1.0  0.66670  0.23257  0.64526  1.0000
  H   H1768     1.0  0.61572  0.23281  0.62448  1.0000
  H   H1769     1.0  0.60799  0.23479  0.59686  1.0000
  C   C2206     1.0  0.49274  0.22474  0.34074  1.0000
  H   H1770     1.0  0.68024  0.22743  0.64523  1.0000
  C   C2207     1.0  0.69316  0.19918  0.31860  1.0000
  H   H1771     1.0  0.56690  0.23502  0.63382  1.0000
  Fe  Fe145     1.0  0.80552  0.12045  0.92608  1.0000
  S   S291      1.0  0.78895  0.10193  0.94220  1.0000
  S   S292      1.0  0.83400  0.11028  0.92151  1.0000
  Fe  Fe146     1.0  0.77519  0.15018  0.92110  1.0000
  S   S293      1.0  0.75616  0.13412  0.93725  1.0000
  S   S294      1.0  0.76729  0.17869  0.91071  1.0000
  Fe  Fe147     1.0  0.77461  0.12389  0.95525  1.0000
  Fe  Fe148     1.0  0.77244  0.11379  0.92269  1.0000
  S   S295      1.0  0.75997  0.10006  0.91047  1.0000
  S   S296      1.0  0.79234  0.14166  0.94025  1.0000
  S   S297      1.0  0.79030  0.13063  0.90534  1.0000
  S   S298      1.0  0.97878  0.15732  0.83554  1.0000
  Fe  Fe149     1.0  0.88548  0.13211  0.83269  1.0000
  S   S299      1.0  0.90440  0.10733  0.83721  1.0000
  S   S300      1.0  0.87405  0.14895  0.85211  1.0000
  Fe  Fe150     1.0  0.88602  0.12989  0.79665  1.0000
  S   S301      1.0  0.90525  0.10473  0.79781  1.0000
  S   S302      1.0  0.87708  0.14405  0.77211  1.0000
  Fe  Fe151     1.0  0.88934  0.09743  0.82416  1.0000
  S   S303      1.0  0.88448  0.07089  0.83686  1.0000
  Fe  Fe152     1.0  0.91893  0.11642  0.81068  1.0000
  S   S304      1.0  0.94798  0.11152  0.80534  1.0000
  S   S305      1.0  0.86887  0.12161  0.82207  1.0000
  S   S306      1.0  0.90130  0.14225  0.80706  1.0000
  H   H1772     1.0  0.96524  0.16218  0.76258  1.0000
  Fe  Fe153     1.0  0.74454  0.18535  0.78887  1.0000
  S   S307      1.0  0.77042  0.16755  0.78362  1.0000
  S   S308      1.0  0.72465  0.18751  0.77337  1.0000
  Fe  Fe154     1.0  0.75219  0.19445  0.81932  1.0000
  S   S309      1.0  0.77880  0.17833  0.81598  1.0000
  C   C2208     1.0  0.93369  0.10935  0.86423  1.0000
  Fe  Fe155     1.0  0.78078  0.18841  0.78778  1.0000
  S   S310      1.0  0.80509  0.19568  0.77028  1.0000
  Fe  Fe156     1.0  0.76662  0.15868  0.81220  1.0000
  S   S311      1.0  0.77427  0.13275  0.82847  1.0000
  S   S312      1.0  0.75516  0.20698  0.79111  1.0000
  S   S313      1.0  0.73986  0.17412  0.81733  1.0000
  Fe  Fe157     1.0  0.80028  0.02997  0.85764  1.0000
  S   S314      1.0  0.81884  0.00805  0.84703  1.0000
  S   S315      1.0  0.80101  0.03210  0.88424  1.0000
  Fe  Fe158     1.0  0.78533  0.04311  0.82561  1.0000
  S   S316      1.0  0.80237  0.02205  0.81246  1.0000
  S   S317      1.0  0.76726  0.06462  0.81198  1.0000
  Fe  Fe159     1.0  0.79637  0.00473  0.83837  1.0000
  Fe  Fe160     1.0  0.82318  0.02723  0.82221  1.0000
  S   S318      1.0  0.84859  0.03123  0.80467  1.0000
  S   S319      1.0  0.77744  0.02543  0.85079  1.0000
  S   S320      1.0  0.80665  0.04944  0.83352  1.0000
  H   H1773     1.0  0.98564  0.11088  0.93774  1.0000
  C   C2209     1.0  0.77256  0.11423  0.82299  1.0000
  C   C2210     1.0  0.76884  0.11455  0.80726  1.0000
  C   C2211     1.0  0.76716  0.09930  0.80373  1.0000
  C   C2212     1.0  0.76930  0.08385  0.81592  1.0000
  C   C2213     1.0  0.77314  0.08367  0.83149  1.0000
  C   C2214     1.0  0.77476  0.09878  0.83503  1.0000
  H   H1774     1.0  0.76725  0.12649  0.79789  1.0000
  H   H1775     1.0  0.76437  0.09943  0.79157  1.0000
  H   H1776     1.0  0.77446  0.07190  0.84104  1.0000
  H   H1777     1.0  0.77756  0.09849  0.84723  1.0000
  C   C2215     1.0  0.90963  0.18742  0.75563  1.0000
  C   C2216     1.0  0.96516  0.19858  0.71857  1.0000
  H   H1778     1.0  0.82508  0.08437  0.90415  1.0000
  C   C2217     1.0  0.91411  0.15353  0.85515  1.0000
  H   H1779     1.0  0.83543  0.00043  0.88977  1.0000
  H   H1780     1.0  0.89610  0.16921  0.77486  1.0000
  C   C2218     1.0  0.76467  0.01343  0.90120  1.0000
  S   S321      1.0  0.74054  0.20900  0.84093  1.0000
  H   H1781     1.0  0.90722  0.12993  0.74216  1.0000
  C   C2219     1.0  0.87885  0.19299  0.76756  1.0000
  C   C2220     1.0  0.87521  0.05982  0.82726  1.0000
  C   C2221     1.0  0.87646  0.06320  0.80945  1.0000
  C   C2222     1.0  0.86874  0.05398  0.80245  1.0000
  C   C2223     1.0  0.85907  0.04204  0.81332  1.0000
  C   C2224     1.0  0.85786  0.03874  0.83110  1.0000
  C   C2225     1.0  0.86637  0.04722  0.83795  1.0000
  H   H1782     1.0  0.88342  0.07279  0.80110  1.0000
  H   H1783     1.0  0.86974  0.05653  0.78869  1.0000
  H   H1784     1.0  0.85065  0.02938  0.83956  1.0000
  H   H1785     1.0  0.86602  0.04413  0.85161  1.0000
  C   C2226     1.0  0.85675  0.15798  0.77263  1.0000
  C   C2227     1.0  0.85472  0.17153  0.75849  1.0000
  C   C2228     1.0  0.83893  0.18312  0.75823  1.0000
  C   C2229     1.0  0.82472  0.18088  0.77174  1.0000
  C   C2230     1.0  0.82658  0.16719  0.78591  1.0000
  C   C2231     1.0  0.84269  0.15585  0.78644  1.0000
  H   H1786     1.0  0.86549  0.17322  0.74776  1.0000
  H   H1787     1.0  0.83759  0.19364  0.74728  1.0000
  H   H1788     1.0  0.81567  0.16538  0.79644  1.0000
  H   H1789     1.0  0.84414  0.14532  0.79735  1.0000
  C   C2232     1.0  0.97056  0.14396  0.82760  1.0000
  C   C2233     1.0  0.95285  0.14737  0.82835  1.0000
  C   C2234     1.0  0.94580  0.13742  0.82165  1.0000
  C   C2235     1.0  0.95653  0.12407  0.81395  1.0000
  C   C2236     1.0  0.97432  0.12069  0.81305  1.0000
  H   H1790     1.0  0.72045  0.02831  0.96768  1.0000
  H   H1791     1.0  0.94467  0.15798  0.83388  1.0000
  H   H1792     1.0  0.93211  0.14017  0.82227  1.0000
  C   C2237     1.0  0.60007  0.22755  0.66794  1.0000
  H   H1793     1.0  0.95826  0.15365  0.87127  1.0000
  C   C2238     1.0  0.84458  0.12115  0.90202  1.0000
  C   C2239     1.0  0.85753  0.11175  0.89122  1.0000
  C   C2240     1.0  0.86652  0.12023  0.87575  1.0000
  C   C2241     1.0  0.86305  0.13817  0.87147  1.0000
  C   C2242     1.0  0.85037  0.14763  0.88251  1.0000
  C   C2243     1.0  0.84078  0.13910  0.89757  1.0000
  H   H1794     1.0  0.86044  0.09790  0.89476  1.0000
  H   H1795     1.0  0.87622  0.11289  0.86726  1.0000
  H   H1796     1.0  0.84764  0.16152  0.87913  1.0000
  H   H1797     1.0  0.83078  0.14637  0.90596  1.0000
  C   C2244     1.0  0.77287  0.08207  0.90232  1.0000
  C   C2245     1.0  0.77053  0.07912  0.88715  1.0000
  C   C2246     1.0  0.77932  0.06393  0.88134  1.0000
  C   C2247     1.0  0.79044  0.05159  0.89075  1.0000
  C   C2248     1.0  0.79292  0.05462  0.90584  1.0000
  C   C2249     1.0  0.78435  0.06993  0.91150  1.0000
  H   H1798     1.0  0.76195  0.08863  0.87985  1.0000
  H   H1799     1.0  0.77730  0.06164  0.86975  1.0000
  H   H1800     1.0  0.80144  0.04511  0.91320  1.0000
  H   H1801     1.0  0.78625  0.07212  0.92320  1.0000
  C   C2250     1.0  0.75913  0.18628  0.89167  1.0000
  C   C2251     1.0  0.75821  0.17524  0.88171  1.0000
  C   C2252     1.0  0.75212  0.18200  0.86627  1.0000
  C   C2253     1.0  0.74707  0.19980  0.86074  1.0000
  H   H1802     1.0  0.82789  0.02738  0.90012  1.0000
  C   C2254     1.0  0.75351  0.20401  0.88637  1.0000
  H   H1803     1.0  0.76255  0.16156  0.88574  1.0000
  H   H1804     1.0  0.75151  0.17349  0.85851  1.0000
  C   C2255     1.0  0.93929  0.17477  0.77283  1.0000
  H   H1805     1.0  0.80458  0.10244  0.88690  1.0000
  H   H1806     1.0  0.71942  0.00303  0.91858  1.0000
  H   H1807     1.0  0.73922  0.17983  0.94029  1.0000
  H   H1808     1.0  0.68997  0.19012  0.80005  1.0000
  H   H1809     1.0  0.66635  0.01870  0.91488  1.0000
  C   C2256     1.0  0.75159  0.18434  0.95827  1.0000
  C   C2257     1.0  0.71523  0.20731  0.76136  1.0000
  C   C2258     1.0  0.94384  0.13925  0.89395  1.0000
  H   H1810     1.0  0.60560  0.20481  0.72666  1.0000
  H   H1811     1.0  0.97644  0.19524  0.69254  1.0000
  H   H1812     1.0  0.89379  0.08053  0.86547  1.0000
  C   C2259     1.0  0.92753  0.11802  0.75604  1.0000
  H   H1813     1.0  0.69849  0.05594  0.89773  1.0000
  C   C2260     1.0  0.92186  0.15441  0.86809  1.0000
  H   H1814     1.0  0.90176  0.08910  0.92190  1.0000
  S   S322      1.0  0.63246  0.22358  0.70953  1.0000
  H   H1815     1.0  0.89016  0.22779  0.73805  1.0000
  C   C2261     1.0  0.58163  0.22338  0.72650  1.0000
  C   C2262     1.0  0.94762  0.17288  0.72105  1.0000
  C   C2263     1.0  0.80955  0.20377  0.89779  1.0000
  C   C2264     1.0  0.91551  0.18561  0.85956  1.0000
  H   H1816     1.0  0.80051  0.12708  0.97352  1.0000
  H   H1817     1.0  0.61295  0.22076  0.66333  1.0000
  C   C2265     1.0  0.75798  0.99439  0.88100  1.0000
  C   C2266     1.0  0.92883  0.18291  0.78616  1.0000
  H   H1818     1.0  0.88176  0.02793  0.89123  1.0000
  C   C2267     1.0  0.85415  0.02950  0.89702  1.0000
  H   H1819     1.0  0.91518  0.18755  0.78683  1.0000
  H   H1820     1.0  0.98361  0.10027  0.85335  1.0000
  C   C2268     1.0  0.94232  0.11871  0.86998  1.0000
  C   C2269     1.0  0.73428  0.16284  0.96499  1.0000
  C   C2270     1.0  0.76473  0.21238  0.97063  1.0000
  H   H1821     1.0  0.89345  0.15068  0.89301  1.0000
  H   H1822     1.0  0.92797  0.19143  0.80909  1.0000
  C   C2271     1.0  0.91427  0.10927  0.90527  1.0000
  H   H1823     1.0  0.81802  0.16219  0.94246  1.0000
  C   C2272     1.0  0.96740  0.15205  0.89387  1.0000
  C   C2273     1.0  0.90012  0.10257  0.91576  1.0000
  C   C2274     1.0  0.81291  0.21534  0.88212  1.0000
  C   C2275     1.0  0.58874  0.21844  0.68054  1.0000
  C   C2276     1.0  0.65117  0.22621  0.75754  1.0000
  H   H1824     1.0  0.82781  0.02695  0.92854  1.0000
  H   H1825     1.0  0.88916  0.00083  0.88114  1.0000
  C   C2277     1.0  0.82632  0.06522  0.94841  1.0000
  C   C2278     1.0  0.87579  0.00644  0.88573  1.0000
  H   H1826     1.0  0.78747  0.17546  0.95131  1.0000
  C   C2279     1.0  0.90834  0.18456  0.84637  1.0000
  H   H1827     1.0  0.95923  0.18113  0.80808  1.0000
  H   H1828     1.0  0.66454  0.21985  0.75440  1.0000
  C   C2280     1.0  0.73976  0.04334  0.95482  1.0000
  H   H1829     1.0  0.77205  0.99489  0.81832  1.0000
  H   H1830     1.0  0.64287  0.21328  0.74257  1.0000
  H   H1831     1.0  0.75734  0.19426  0.94881  1.0000
  C   C2281     1.0  0.79027  0.18000  0.97512  1.0000
  C   C2282     1.0  0.82160  0.07136  0.86342  1.0000
  C   C2283     1.0  0.55722  0.22870  0.76864  1.0000
  C   C2284     1.0  0.96967  0.10259  0.85663  1.0000
  C   C2285     1.0  0.84130  0.02140  0.89660  1.0000
  H   H1832     1.0  0.73744  0.21517  0.97250  1.0000
  H   H1833     1.0  0.56335  0.21997  0.69686  1.0000
  H   H1834     1.0  0.59309  0.20499  0.68589  1.0000
  C   C2286     1.0  0.74133  0.17616  0.95333  1.0000
  C   C2287     1.0  0.69810  0.22263  0.73969  1.0000
  H   H1835     1.0  0.86442  0.21775  0.75759  1.0000
  C   C2288     1.0  0.87373  0.06791  0.88176  1.0000
  C   C2289     1.0  0.67879  0.02186  0.91296  1.0000
  H   H1836     1.0  0.95188  0.13116  0.93425  1.0000
  C   C2290     1.0  0.78868  0.15061  0.85582  1.0000
  C   C2291     1.0  0.79997  0.13536  0.86083  1.0000
  C   C2292     1.0  0.81675  0.13566  0.86130  1.0000
  C   C2293     1.0  0.82236  0.15119  0.85598  1.0000
  C   C2294     1.0  0.81098  0.16659  0.85111  1.0000
  C   C2295     1.0  0.79401  0.16623  0.85147  1.0000
  P   P75       1.0  0.81752  0.18681  0.84651  1.0000
  C   C2296     1.0  0.81510  0.19317  0.86661  1.0000
  C   C2297     1.0  0.83937  0.18460  0.83414  1.0000
  C   C2298     1.0  0.85068  0.19376  0.83606  1.0000
  C   C2299     1.0  0.86732  0.19251  0.82582  1.0000
  C   C2300     1.0  0.87281  0.18199  0.81373  1.0000
  C   C2301     1.0  0.86167  0.17272  0.81186  1.0000
  C   C2302     1.0  0.84502  0.17404  0.82196  1.0000
  H   H1837     1.0  0.86883  0.13870  0.91169  1.0000
  C   C2303     1.0  0.81939  0.17093  0.98019  1.0000
  C   C2304     1.0  0.69707  0.04281  0.90325  1.0000
  C   C2305     1.0  0.80894  0.18696  0.89794  1.0000
  C   C2306     1.0  0.81164  0.18167  0.88245  1.0000
  C   C2307     1.0  0.80382  0.20285  0.83363  1.0000
  C   C2308     1.0  0.78839  0.21235  0.84170  1.0000
  H   H1838     1.0  0.72331  0.22340  0.77321  1.0000
  C   C2309     1.0  0.71631  0.22311  0.76391  1.0000
  H   H1839     1.0  0.77574  0.15032  0.85540  1.0000
  H   H1840     1.0  0.79554  0.12344  0.86427  1.0000
  H   H1841     1.0  0.82549  0.12392  0.86566  1.0000
  H   H1842     1.0  0.83548  0.15123  0.85584  1.0000
  H   H1843     1.0  0.78489  0.17800  0.84833  1.0000
  C   C2310     1.0  0.70878  0.01310  0.91494  1.0000
  H   H1844     1.0  0.81775  0.21928  0.85453  1.0000
  H   H1845     1.0  0.88577  0.18076  0.80603  1.0000
  H   H1846     1.0  0.86597  0.16432  0.80271  1.0000
  H   H1847     1.0  0.83654  0.16682  0.82023  1.0000
  C   C2311     1.0  0.90781  0.20411  0.74542  1.0000
  H   H1848     1.0  0.92684  0.10085  0.90341  1.0000
  C   C2312     1.0  0.88157  0.13055  0.91005  1.0000
  H   H1849     1.0  0.80580  0.17809  0.91005  1.0000
  H   H1850     1.0  0.81062  0.16869  0.88304  1.0000
  H   H1851     1.0  0.78449  0.21007  0.85562  1.0000
  C   C2313     1.0  0.80798  0.20543  0.81556  1.0000
  H   H1852     1.0  0.70515  0.19501  0.74720  1.0000
  H   H1853     1.0  0.55546  0.20218  0.77849  1.0000
  H   H1854     1.0  0.90867  0.15941  0.74195  1.0000
  C   C2314     1.0  0.57727  0.20769  0.78427  1.0000
  H   H1855     1.0  0.87601  0.19947  0.82747  1.0000
  C   C2315     1.0  0.82771  0.03762  0.93389  1.0000
  H   H1856     1.0  0.84009  0.04867  0.86991  1.0000
  H   H1857     1.0  0.75405  0.21263  0.89404  1.0000
  C   C2316     1.0  0.93603  0.18527  0.79876  1.0000
  H   H1858     1.0  0.82045  0.06775  0.85210  1.0000
  C   C2317     1.0  0.86283  0.99861  0.88520  1.0000
  H   H1859     1.0  0.74151  0.04553  0.96662  1.0000
  H   H1860     1.0  0.95205  0.19922  0.74475  1.0000
  H   H1861     1.0  0.73313  0.01115  0.88260  1.0000
  C   C2318     1.0  0.96096  0.09344  0.85092  1.0000
  H   H1862     1.0  0.80220  0.09443  0.86055  1.0000
  C   C2319     1.0  0.81691  0.05261  0.95758  1.0000
  C   C2320     1.0  0.79696  0.21747  0.80578  1.0000
  C   C2321     1.0  0.86749  0.05880  0.89820  1.0000
  H   H1863     1.0  0.76530  0.23126  0.83816  1.0000
  H   H1864     1.0  0.78999  0.99722  0.89840  1.0000
  C   C2322     1.0  0.91664  0.13202  0.74801  1.0000
  H   H1865     1.0  0.75571  0.98731  0.87267  1.0000
  C   C2323     1.0  0.83284  0.06053  0.87364  1.0000
  C   C2324     1.0  0.74735  0.21071  0.87112  1.0000
  P   P76       1.0  0.84821  0.05059  0.90228  1.0000
  H   H1866     1.0  0.80883  0.05375  0.97016  1.0000
  H   H1867     1.0  0.84681  0.20174  0.84550  1.0000
  C   C2325     1.0  0.89562  0.13729  0.89946  1.0000
  H   H1868     1.0  0.85624  0.99507  0.79307  1.0000
  C   C2326     1.0  0.95695  0.16867  0.77260  1.0000
  H   H1869     1.0  0.80712  0.20787  0.90985  1.0000
  C   C2327     1.0  0.84558  0.00610  0.89066  1.0000
  H   H1870     1.0  0.69124  0.22233  0.73027  1.0000
  H   H1871     1.0  0.75863  0.05772  0.93850  1.0000
  H   H1872     1.0  0.81941  0.19792  0.80891  1.0000
  H   H1873     1.0  0.91883  0.20875  0.73684  1.0000
  H   H1874     1.0  0.94856  0.13911  0.77140  1.0000
  C   C2328     1.0  0.83638  0.06405  0.93201  1.0000
  C   C2329     1.0  0.83706  0.05035  0.92449  1.0000
  C   C2330     1.0  0.81770  0.03875  0.95037  1.0000
  H   H1875     1.0  0.84325  0.07418  0.92496  1.0000
  H   H1876     1.0  0.86758  0.18866  0.77602  1.0000
  H   H1877     1.0  0.94724  0.10987  0.77089  1.0000
  H   H1878     1.0  0.65859  0.22423  0.67271  1.0000
  C   C2331     1.0  0.92208  0.17063  0.87049  1.0000
  C   C2332     1.0  0.81140  0.08648  0.86814  1.0000
  C   C2333     1.0  0.74833  0.22146  0.96800  1.0000
  C   C2334     1.0  0.83415  0.06485  0.88861  1.0000
  C   C2335     1.0  0.96043  0.11524  0.86600  1.0000
  C   C2336     1.0  0.91736  0.14876  0.74812  1.0000
  C   C2337     1.0  0.94300  0.09680  0.85474  1.0000
  C   C2338     1.0  0.87693  0.05529  0.91109  1.0000
  C   C2339     1.0  0.89503  0.18200  0.76681  1.0000
  C   C2340     1.0  0.93907  0.12076  0.76429  1.0000
  H   H1879     1.0  0.87265  0.10796  0.92576  1.0000
  C   C2341     1.0  0.94511  0.18024  0.73536  1.0000
  H   H1880     1.0  0.93633  0.08991  0.84994  1.0000
  H   H1881     1.0  0.89936  0.05861  0.91763  1.0000
  C   C2342     1.0  0.81559  0.21009  0.86658  1.0000
  H   H1882     1.0  0.86613  0.98695  0.88022  1.0000
  H   H1883     1.0  0.92674  0.10504  0.75627  1.0000
  H   H1884     1.0  0.97447  0.14792  0.91817  1.0000
  C   C2343     1.0  0.95888  0.17830  0.70568  1.0000
  C   C2344     1.0  0.93974  0.13747  0.76457  1.0000
  H   H1885     1.0  0.91003  0.07514  0.88843  1.0000
  C   C2345     1.0  0.92898  0.15164  0.75635  1.0000
  C   C2346     1.0  0.74945  0.05017  0.93899  1.0000
  H   H1886     1.0  0.67022  0.04864  0.90229  1.0000
  P   P77       1.0  0.93013  0.13493  0.88228  1.0000
  C   C2347     1.0  0.74846  0.01749  0.89693  1.0000
  C   C2348     1.0  0.73502  0.03813  0.92411  1.0000
  C   C2349     1.0  0.74724  0.04741  0.92373  1.0000
  P   P78       1.0  0.73202  0.03502  0.90419  1.0000
  C   C2350     1.0  0.73301  0.05448  0.88782  1.0000
  H   H1887     1.0  0.58157  0.19462  0.79081  1.0000
  H   H1888     1.0  0.71621  0.02361  0.94089  1.0000
  C   C2351     1.0  0.77857  0.22090  0.96488  1.0000
  H   H1889     1.0  0.96760  0.12233  0.86982  1.0000
  C   C2352     1.0  0.82430  0.08043  0.89289  1.0000
  C   C2353     1.0  0.88375  0.11319  0.91805  1.0000
  C   C2354     1.0  0.73778  0.05363  0.87033  1.0000
  C   C2355     1.0  0.73876  0.06859  0.85764  1.0000
  C   C2356     1.0  0.73514  0.08451  0.86226  1.0000
  C   C2357     1.0  0.72977  0.08559  0.87960  1.0000
  C   C2358     1.0  0.72860  0.07065  0.89235  1.0000
  C   C2359     1.0  0.71112  0.02998  0.90768  1.0000
  H   H1890     1.0  0.81027  0.02907  0.95741  1.0000
  C   C2360     1.0  0.98133  0.13054  0.82000  1.0000
  H   H1891     1.0  0.91976  0.11182  0.86695  1.0000
  H   H1892     1.0  0.82547  0.07622  0.95375  1.0000
  H   H1893     1.0  0.86679  0.07053  0.87155  1.0000
  H   H1894     1.0  0.96082  0.17250  0.69473  1.0000
  H   H1895     1.0  0.97731  0.15929  0.88688  1.0000
  H   H1896     1.0  0.97760  0.16591  0.78533  1.0000
  C   C2361     1.0  0.89155  0.21501  0.74611  1.0000
  H   H1897     1.0  0.75498  0.05266  0.91161  1.0000
  H   H1898     1.0  0.76782  0.02090  0.90852  1.0000
  C   C2362     1.0  0.74528  0.00795  0.88661  1.0000
  C   C2363     1.0  0.95315  0.13610  0.92052  1.0000
  C   C2364     1.0  0.89822  0.07051  0.89123  1.0000
  H   H1899     1.0  0.93252  0.12556  0.91898  1.0000
  H   H1900     1.0  0.74098  0.04144  0.86640  1.0000
  H   H1901     1.0  0.74281  0.06777  0.84417  1.0000
  H   H1902     1.0  0.73684  0.09593  0.85237  1.0000
  H   H1903     1.0  0.72726  0.09791  0.88320  1.0000
  H   H1904     1.0  0.72463  0.07179  0.90571  1.0000
  C   C2365     1.0  0.95656  0.14884  0.88508  1.0000
  C   C2366     1.0  0.70602  0.20717  0.74928  1.0000
  H   H1905     1.0  0.69622  0.21368  0.80934  1.0000
  C   C2367     1.0  0.81280  0.09102  0.88285  1.0000
  H   H1906     1.0  0.87255  0.04790  0.92376  1.0000
  C   C2368     1.0  0.80110  0.08546  0.75683  1.0000
  C   C2369     1.0  0.79834  0.07142  0.77029  1.0000
  C   C2370     1.0  0.80565  0.06832  0.78456  1.0000
  C   C2371     1.0  0.81525  0.07948  0.78575  1.0000
  C   C2372     1.0  0.81779  0.09383  0.77248  1.0000
  C   C2373     1.0  0.81101  0.09649  0.75778  1.0000
  P   P79       1.0  0.83118  0.10762  0.77341  1.0000
  C   C2374     1.0  0.82897  0.10885  0.79549  1.0000
  C   C2375     1.0  0.85349  0.09835  0.76574  1.0000
  C   C2376     1.0  0.86644  0.10397  0.76962  1.0000
  C   C2377     1.0  0.88374  0.09646  0.76443  1.0000
  C   C2378     1.0  0.88825  0.08308  0.75553  1.0000
  C   C2379     1.0  0.87544  0.07734  0.75167  1.0000
  C   C2380     1.0  0.85810  0.08496  0.75672  1.0000
  C   C2381     1.0  0.81885  0.12321  0.80208  1.0000
  C   C2382     1.0  0.81843  0.12426  0.81888  1.0000
  C   C2383     1.0  0.82791  0.11093  0.82919  1.0000
  C   C2384     1.0  0.83771  0.09650  0.82284  1.0000
  C   C2385     1.0  0.83821  0.09545  0.80608  1.0000
  C   C2386     1.0  0.82499  0.12885  0.76078  1.0000
  C   C2387     1.0  0.80749  0.13622  0.76119  1.0000
  C   C2388     1.0  0.80261  0.15243  0.75105  1.0000
  C   C2389     1.0  0.81509  0.16157  0.74079  1.0000
  C   C2390     1.0  0.83250  0.15434  0.74033  1.0000
  C   C2391     1.0  0.83747  0.13809  0.75033  1.0000
  H   H1907     1.0  0.79554  0.08778  0.74569  1.0000
  H   H1908     1.0  0.79049  0.06292  0.76979  1.0000
  H   H1909     1.0  0.80363  0.05740  0.79493  1.0000
  H   H1910     1.0  0.82061  0.07673  0.79706  1.0000
  H   H1911     1.0  0.81334  0.10708  0.74707  1.0000
  H   H1912     1.0  0.86311  0.11406  0.77688  1.0000
  H   H1913     1.0  0.89357  0.10090  0.76758  1.0000
  H   H1914     1.0  0.90165  0.07701  0.75184  1.0000
  H   H1915     1.0  0.87889  0.06677  0.74504  1.0000
  H   H1916     1.0  0.84837  0.08011  0.75387  1.0000
  H   H1917     1.0  0.81139  0.13369  0.79437  1.0000
  H   H1918     1.0  0.81067  0.13542  0.82389  1.0000
  H   H1919     1.0  0.82777  0.11166  0.84209  1.0000
  H   H1920     1.0  0.84506  0.08619  0.83086  1.0000
  H   H1921     1.0  0.84590  0.08422  0.80132  1.0000
  H   H1922     1.0  0.79761  0.12949  0.76945  1.0000
  H   H1923     1.0  0.78912  0.15806  0.75134  1.0000
  H   H1924     1.0  0.81122  0.17439  0.73346  1.0000
  H   H1925     1.0  0.84216  0.16155  0.73257  1.0000
  H   H1926     1.0  0.85102  0.13299  0.75002  1.0000
  C   C2392     1.0  0.72723  0.14716  0.88862  1.0000
  C   C2393     1.0  0.74351  0.13709  0.88393  1.0000
  C   C2394     1.0  0.74754  0.13001  0.86933  1.0000
  C   C2395     1.0  0.73536  0.13308  0.85929  1.0000
  C   C2396     1.0  0.71883  0.14295  0.86404  1.0000
  C   C2397     1.0  0.71488  0.15002  0.87879  1.0000
  P   P80       1.0  0.70264  0.14636  0.85165  1.0000
  C   C2398     1.0  0.70918  0.13076  0.83796  1.0000
  C   C2399     1.0  0.68269  0.14301  0.86645  1.0000
  C   C2400     1.0  0.66685  0.15230  0.86246  1.0000
  C   C2401     1.0  0.65143  0.14961  0.87396  1.0000
  C   C2402     1.0  0.65172  0.13760  0.88948  1.0000
  C   C2403     1.0  0.66744  0.12821  0.89349  1.0000
  C   C2404     1.0  0.68288  0.13085  0.88201  1.0000
  C   C2405     1.0  0.72050  0.13393  0.82193  1.0000
  C   C2406     1.0  0.72604  0.12172  0.81154  1.0000
  C   C2407     1.0  0.72077  0.10603  0.81724  1.0000
  C   C2408     1.0  0.70951  0.10273  0.83317  1.0000
  C   C2409     1.0  0.70370  0.11504  0.84350  1.0000
  C   C2410     1.0  0.69954  0.16802  0.83882  1.0000
  C   C2411     1.0  0.70258  0.18162  0.84420  1.0000
  C   C2412     1.0  0.70111  0.19809  0.83372  1.0000
  C   C2413     1.0  0.69653  0.20115  0.81784  1.0000
  C   C2414     1.0  0.69300  0.18784  0.81261  1.0000
  C   C2415     1.0  0.69432  0.17139  0.82311  1.0000
  H   H1927     1.0  0.72428  0.15276  0.89987  1.0000
  H   H1928     1.0  0.75306  0.13477  0.89158  1.0000
  H   H1929     1.0  0.76024  0.12225  0.86570  1.0000
  H   H1930     1.0  0.73901  0.12770  0.84785  1.0000
  H   H1931     1.0  0.70228  0.15777  0.88268  1.0000
  H   H1932     1.0  0.66637  0.16162  0.85048  1.0000
  H   H1933     1.0  0.63925  0.15686  0.87082  1.0000
  H   H1934     1.0  0.63976  0.13556  0.89840  1.0000
  H   H1935     1.0  0.66769  0.11889  0.90551  1.0000
  H   H1936     1.0  0.69496  0.12338  0.88526  1.0000
  H   H1937     1.0  0.72527  0.14572  0.81746  1.0000
  H   H1938     1.0  0.73479  0.12431  0.79920  1.0000
  H   H1939     1.0  0.72565  0.09634  0.80941  1.0000
  H   H1940     1.0  0.70560  0.09046  0.83763  1.0000
  H   H1941     1.0  0.69526  0.11203  0.85591  1.0000
  H   H1942     1.0  0.70690  0.17953  0.85601  1.0000
  H   H1943     1.0  0.70438  0.20827  0.83755  1.0000
  H   H1944     1.0  0.69182  0.16123  0.81862  1.0000
  H   H1945     1.0  0.94098  0.16295  0.72166  1.0000
  C   C2416     1.0  0.88906  0.07367  0.87829  1.0000
  H   H1946     1.0  0.80005  0.21916  0.79188  1.0000
  C   C2417     1.0  0.94219  0.13294  0.91179  1.0000
  C   C2418     1.0  0.87707  0.20942  0.75714  1.0000
  C   C2419     1.0  0.59964  0.21811  0.72257  1.0000
  H   H1947     1.0  0.57375  0.21410  0.73353  1.0000
  C   C2420     1.0  0.63893  0.22244  0.75095  1.0000
  C   C2421     1.0  0.68098  0.03873  0.90586  1.0000
  C   C2422     1.0  0.95390  0.19322  0.73395  1.0000
  C   C2423     1.0  0.89218  0.06127  0.90764  1.0000
  C   C2424     1.0  0.96406  0.17097  0.78528  1.0000
  P   P81       1.0  0.93061  0.17338  0.75534  1.0000
  C   C2425     1.0  0.95367  0.17952  0.79818  1.0000
  C   C2426     1.0  0.72550  0.03108  0.94010  1.0000
  H   H1948     1.0  0.91308  0.14132  0.85338  1.0000
  H   H1949     1.0  0.72676  0.15617  0.96099  1.0000
  C   C2427     1.0  0.87150  0.02184  0.89156  1.0000
  H   H1950     1.0  0.77282  0.23568  0.80635  1.0000
  H   H1951     1.0  0.90319  0.19615  0.83796  1.0000
  H   H1952     1.0  0.91591  0.19804  0.86139  1.0000
  H   H1953     1.0  0.96811  0.08410  0.84310  1.0000
  C   C2428     1.0  0.91209  0.12667  0.89691  1.0000
  C   C2429     1.0  0.72787  0.03370  0.95538  1.0000
  H   H1954     1.0  0.92716  0.17183  0.88086  1.0000
  H   H1955     1.0  0.97198  0.20852  0.71763  1.0000
  C   C2430     1.0  0.96579  0.14559  0.91154  1.0000
  C   C2431     1.0  0.90760  0.16854  0.84421  1.0000
  H   H1956     1.0  0.90177  0.16761  0.83422  1.0000
  C   C2432     1.0  0.82516  0.16514  0.96471  1.0000
  H   H1957     1.0  0.54604  0.23193  0.76292  1.0000
  C   C2433     1.0  0.56257  0.21193  0.77735  1.0000
  H   H1958     1.0  0.74320  0.22445  0.86712  1.0000
  C   C2434     1.0  0.60994  0.23009  0.71364  1.0000
  C   C2435     1.0  0.58663  0.22022  0.78244  1.0000
  H   H1959     1.0  0.61245  0.22783  0.74930  1.0000
  C   C2436     1.0  0.77744  0.22438  0.83185  1.0000
  C   C2437     1.0  0.62168  0.23075  0.75480  1.0000
  C   C2438     1.0  0.96767  0.19111  0.70445  1.0000
  H   H1960     1.0  0.59813  0.21670  0.78767  1.0000
  C   C2439     1.0  0.69268  0.00907  0.91753  1.0000
  C   C2440     1.0  0.73752  0.15765  0.98157  1.0000
  H   H1961     1.0  0.98267  0.11037  0.80709  1.0000
  C   C2441     1.0  0.78165  0.22685  0.81392  1.0000
  H   H1962     1.0  0.83852  0.15899  0.96092  1.0000
  C   C2442     1.0  0.79622  0.17432  0.95950  1.0000
  C   C2443     1.0  0.81360  0.16689  0.95435  1.0000
  H   H1963     1.0  0.81314  0.22844  0.88200  1.0000
  C   C2444     1.0  0.75459  0.17947  0.97509  1.0000
  H   H1964     1.0  0.79130  0.21424  0.96690  1.0000
  P   P82       1.0  0.76790  0.19006  0.98145  1.0000
  C   C2445     1.0  0.77734  0.99990  0.89551  1.0000
  H   H1965     1.0  0.83050  0.98877  0.81529  1.0000
  C   C2446     1.0  0.57198  0.22682  0.68664  1.0000
  C   C2447     1.0  0.77399  0.99035  0.88548  1.0000
  H   H1966     1.0  0.69102  0.99598  0.92300  1.0000
  C   C2448     1.0  0.65453  0.23084  0.66075  1.0000
  C   C2449     1.0  0.66972  0.46896  0.31443  1.0000
  S   S323      1.0  0.64638  0.37715  0.29706  1.0000
  H   H1967     1.0  0.66007  0.30368  0.24774  1.0000
  C   C2450     1.0  0.68171  0.47899  0.30436  1.0000
  H   H1968     1.0  0.51891  0.30348  0.31502  1.0000
  C   C2451     1.0  0.56082  0.30408  0.29653  1.0000
  C   C2452     1.0  0.63874  0.29081  0.25572  1.0000
  S   S324      1.0  0.64577  0.27092  0.29467  1.0000
  C   C2453     1.0  0.55541  0.27549  0.30074  1.0000
  C   C2454     1.0  0.54559  0.26429  0.27068  1.0000
  H   H1969     1.0  0.69447  0.44584  0.28153  1.0000
  H   H1970     1.0  0.63418  0.42214  0.28480  1.0000
  H   H1971     1.0  0.63415  0.23953  0.26692  1.0000
  C   C2455     1.0  0.60655  0.33889  0.29561  1.0000
  C   C2456     1.0  0.63670  0.31987  0.25856  1.0000
  H   H1972     1.0  0.56978  0.31258  0.29305  1.0000
  C   C2457     1.0  0.65348  0.32479  0.30911  1.0000
  C   C2458     1.0  0.59756  0.24821  0.29704  1.0000
  H   H1973     1.0  0.84602  0.24882  0.21820  1.0000
  H   H1974     1.0  0.59366  0.24984  0.31029  1.0000
  Fe  Fe161     1.0  0.65689  0.24353  0.30500  1.0000
  H   H1975     1.0  0.80292  0.25018  0.18383  1.0000
  C   C2459     1.0  0.63532  0.44202  0.29683  1.0000
  C   C2460     1.0  0.61000  0.32283  0.30659  1.0000
  H   H1976     1.0  0.59161  0.33564  0.24686  1.0000
  C   C2461     1.0  0.72082  0.43508  0.28338  1.0000
  C   C2462     1.0  0.60826  0.24414  0.26289  1.0000
  H   H1977     1.0  0.53920  0.32307  0.30562  1.0000
  H   H1978     1.0  0.59894  0.36641  0.29415  1.0000
  H   H1979     1.0  0.64304  0.33032  0.25691  1.0000
  C   C2463     1.0  0.61555  0.38406  0.23754  1.0000
  C   C2464     1.0  0.69724  0.43884  0.30806  1.0000
  C   C2465     1.0  0.65470  0.35501  0.29770  1.0000
  C   C2466     1.0  0.66919  0.35016  0.28519  1.0000
  C   C2467     1.0  0.67596  0.33277  0.28479  1.0000
  C   C2468     1.0  0.66809  0.32001  0.29661  1.0000
  C   C2469     1.0  0.53216  0.29883  0.30914  1.0000
  H   H1980     1.0  0.58145  0.24878  0.26269  1.0000
  H   H1981     1.0  0.67524  0.35988  0.27579  1.0000
  H   H1982     1.0  0.68725  0.32918  0.27514  1.0000
  H   H1983     1.0  0.55054  0.27594  0.26774  1.0000
  C   C2470     1.0  0.55361  0.35119  0.28257  1.0000
  C   C2471     1.0  0.84428  0.24708  0.20621  1.0000
  C   C2472     1.0  0.77659  0.24761  0.19089  1.0000
  H   H1984     1.0  0.61566  0.28070  0.26660  1.0000
  H   H1985     1.0  0.68794  0.36841  0.30738  1.0000
  C   C2473     1.0  0.64208  0.42708  0.29022  1.0000
  C   C2474     1.0  0.61510  0.24458  0.28957  1.0000
  C   C2475     1.0  0.64522  0.44796  0.30457  1.0000
  H   H1986     1.0  0.63481  0.35412  0.27573  1.0000
  C   C2476     1.0  0.49375  0.28969  0.30163  1.0000
  P   P83       1.0  0.56263  0.25354  0.29788  1.0000
  H   H1987     1.0  0.57251  0.35163  0.29573  1.0000
  C   C2477     1.0  0.64643  0.30475  0.25328  1.0000
  C   C2478     1.0  0.58519  0.24973  0.28752  1.0000
  C   C2479     1.0  0.74591  0.24177  0.12868  1.0000
  H   H1988     1.0  0.82370  0.25106  0.12114  1.0000
  H   H1989     1.0  0.62458  0.24333  0.29702  1.0000
  H   H1990     1.0  0.53723  0.34915  0.26705  1.0000
  H   H1991     1.0  0.64671  0.37954  0.25951  1.0000
  H   H1992     1.0  0.69388  0.47328  0.29709  1.0000
  C   C2480     1.0  0.65878  0.41807  0.29132  1.0000
  H   H1993     1.0  0.52054  0.24653  0.25624  1.0000
  C   C2481     1.0  0.60168  0.35384  0.30235  1.0000
  H   H1994     1.0  0.70554  0.33872  0.31061  1.0000
  H   H1995     1.0  0.85036  0.24202  0.10015  1.0000
  C   C2482     1.0  0.59066  0.24773  0.27033  1.0000
  C   C2483     1.0  0.66871  0.42394  0.29907  1.0000
  H   H1996     1.0  0.56161  0.33927  0.24417  1.0000
  C   C2484     1.0  0.53796  0.28170  0.30746  1.0000
  H   H1997     1.0  0.54298  0.35529  0.29271  1.0000
  H   H1998     1.0  0.74597  0.42403  0.28907  1.0000
  H   H1999     1.0  0.53217  0.27298  0.24979  1.0000
  H   H2000     1.0  0.61250  0.24250  0.24967  1.0000
  C   C2485     1.0  0.62141  0.29180  0.26386  1.0000
  H   H2001     1.0  0.63454  0.39883  0.23496  1.0000
  C   C2486     1.0  0.84764  0.25577  0.17525  1.0000
  H   H2002     1.0  0.52886  0.27326  0.31162  1.0000
  H   H2003     1.0  0.77155  0.26133  0.18808  1.0000
  C   C2487     1.0  0.56677  0.28690  0.29509  1.0000
  H   H2004     1.0  0.85608  0.26813  0.19068  1.0000
  H   H2005     1.0  0.59852  0.30711  0.27620  1.0000
  H   H2006     1.0  0.72540  0.43626  0.26958  1.0000
  Fe  Fe162     1.0  0.66190  0.27785  0.30879  1.0000
  H   H2007     1.0  0.59790  0.36728  0.24328  1.0000
  C   C2488     1.0  0.61169  0.30683  0.26927  1.0000
  H   H2008     1.0  0.63937  0.45919  0.31011  1.0000
  C   C2489     1.0  0.49562  0.27349  0.29819  1.0000
  C   C2490     1.0  0.53517  0.26267  0.26050  1.0000
  C   C2491     1.0  0.60863  0.36969  0.24686  1.0000
  C   C2492     1.0  0.74627  0.24066  0.14583  1.0000
  C   C2493     1.0  0.58445  0.34351  0.27136  1.0000
  C   C2494     1.0  0.73240  0.42820  0.29435  1.0000
  C   C2495     1.0  0.55039  0.34765  0.26816  1.0000
  H   H2009     1.0  0.75139  0.24121  0.19914  1.0000
  C   C2496     1.0  0.63619  0.37676  0.25579  1.0000
  C   C2497     1.0  0.58109  0.34000  0.25689  1.0000
  C   C2498     1.0  0.54960  0.25098  0.28456  1.0000
  C   C2499     1.0  0.64693  0.34228  0.30978  1.0000
  C   C2500     1.0  0.84993  0.25797  0.19071  1.0000
  C   C2501     1.0  0.54359  0.30999  0.30373  1.0000
  H   H2010     1.0  0.61016  0.39252  0.22692  1.0000
  C   C2502     1.0  0.70331  0.44043  0.29018  1.0000
  P   P84       1.0  0.60646  0.34048  0.27341  1.0000
  H   H2011     1.0  0.58031  0.28260  0.28999  1.0000
  C   C2503     1.0  0.61913  0.32116  0.26625  1.0000
  C   C2504     1.0  0.52861  0.24778  0.26415  1.0000
  C   C2505     1.0  0.61547  0.35877  0.26074  1.0000
  C   C2506     1.0  0.62930  0.38762  0.24203  1.0000
  H   H2012     1.0  0.85201  0.26422  0.16323  1.0000
  C   C2507     1.0  0.66213  0.43911  0.30555  1.0000
  H   H2013     1.0  0.64643  0.27895  0.25204  1.0000
  C   C2508     1.0  0.62936  0.36238  0.26505  1.0000
  C   C2509     1.0  0.57053  0.34910  0.28422  1.0000
  H   H2014     1.0  0.66377  0.40618  0.28668  1.0000
  H   H2015     1.0  0.49679  0.30034  0.29123  1.0000
  C   C2510     1.0  0.56412  0.34206  0.25532  1.0000
  H   H2016     1.0  0.61412  0.31115  0.30165  1.0000
  H   H2017     1.0  0.62215  0.44868  0.29651  1.0000
  C   C2511     1.0  0.62048  0.24248  0.27254  1.0000
  S   S325      1.0  0.67735  0.29836  0.29542  1.0000
  H   H2018     1.0  0.73475  0.24930  0.12361  1.0000
  H   H2019     1.0  0.68134  0.41634  0.30040  1.0000
  H   H2020     1.0  0.50004  0.27159  0.28508  1.0000
  C   C2512     1.0  0.72648  0.42672  0.31214  1.0000
  H   H2021     1.0  0.83794  0.24123  0.16317  1.0000
  H   H2022     1.0  0.68691  0.24555  0.27224  1.0000
  H   H2023     1.0  0.73540  0.24728  0.15407  1.0000
  H   H2024     1.0  0.79850  0.23863  0.12575  1.0000
  H   H2025     1.0  0.70998  0.24499  0.24568  1.0000
  C   C2513     1.0  0.82420  0.24160  0.11393  1.0000
  H   H2026     1.0  0.49253  0.24750  0.30868  1.0000
  C   C2514     1.0  0.79438  0.24119  0.18849  1.0000
  C   C2515     1.0  0.49145  0.25984  0.31164  1.0000
  C   C2516     1.0  0.83972  0.24267  0.17527  1.0000
  Fe  Fe163     1.0  0.64230  0.32716  0.57706  1.0000
  S   S326      1.0  0.63758  0.34801  0.59155  1.0000
  S   S327      1.0  0.66441  0.30434  0.57807  1.0000
  Fe  Fe164     1.0  0.61353  0.34524  0.55786  1.0000
  S   S328      1.0  0.60633  0.36777  0.57071  1.0000
  S   S329      1.0  0.59861  0.34719  0.53777  1.0000
  Fe  Fe165     1.0  0.63458  0.36613  0.56654  1.0000
  S   S330      1.0  0.64578  0.38987  0.55732  1.0000
  Fe  Fe166     1.0  0.60976  0.34801  0.59461  1.0000
  S   S331      1.0  0.59210  0.35273  0.61945  1.0000
  S   S332      1.0  0.64174  0.34534  0.55142  1.0000
  S   S333      1.0  0.61460  0.32529  0.58228  1.0000
  Fe  Fe167     1.0  0.58165  0.28478  0.45393  1.0000
  S   S334      1.0  0.59627  0.30065  0.43106  1.0000
  S   S335      1.0  0.56187  0.27221  0.45065  1.0000
  Fe  Fe168     1.0  0.60070  0.28940  0.47903  1.0000
  S   S336      1.0  0.61692  0.30553  0.45827  1.0000
  S   S337      1.0  0.60449  0.28292  0.50640  1.0000
  Fe  Fe169     1.0  0.59238  0.31804  0.44926  1.0000
  S   S338      1.0  0.58313  0.34642  0.44197  1.0000
  Fe  Fe170     1.0  0.61937  0.28641  0.44214  1.0000
  S   S339      1.0  0.64589  0.27586  0.42782  1.0000
  S   S340      1.0  0.57576  0.30344  0.47131  1.0000
  S   S341      1.0  0.60512  0.26906  0.46381  1.0000
  H   H2027     1.0  0.57112  0.31397  0.40558  1.0000
  C   C2517     1.0  0.62186  0.38615  0.51494  1.0000
  C   C2518     1.0  0.53113  0.32034  0.60136  1.0000
  S   S342      1.0  0.63673  0.37781  0.37966  1.0000
  C   C2519     1.0  0.50104  0.24115  0.38689  1.0000
  C   C2520     1.0  0.53202  0.29065  0.55474  1.0000
  H   H2028     1.0  0.70111  0.45765  0.62709  1.0000
  H   H2029     1.0  0.61405  0.43622  0.40820  1.0000
  C   C2521     1.0  0.68264  0.35947  0.64447  1.0000
  H   H2030     1.0  0.67107  0.24370  0.61814  1.0000
  C   C2522     1.0  0.60450  0.25943  0.62559  1.0000
  H   H2031     1.0  0.63068  0.26054  0.57984  1.0000
  H   H2032     1.0  0.55595  0.39479  0.50316  1.0000
  C   C2523     1.0  0.50602  0.27928  0.60457  1.0000
  Fe  Fe171     1.0  0.51544  0.28745  0.37435  1.0000
  H   H2033     1.0  0.64229  0.40055  0.46664  1.0000
  H   H2034     1.0  0.61648  0.38175  0.52847  1.0000
  C   C2524     1.0  0.71676  0.26013  0.51915  1.0000
  C   C2525     1.0  0.61394  0.42613  0.41974  1.0000
  H   H2035     1.0  0.56270  0.41989  0.39422  1.0000
  S   S343      1.0  0.52422  0.31042  0.37568  1.0000
  Fe  Fe172     1.0  0.49958  0.31591  0.39461  1.0000
  C   C2526     1.0  0.53664  0.38078  0.61132  1.0000
  S   S344      1.0  0.62436  0.43772  0.61195  1.0000
  H   H2036     1.0  0.51424  0.26740  0.60946  1.0000
  H   H2037     1.0  0.65770  0.25781  0.52805  1.0000
  H   H2038     1.0  0.55011  0.25503  0.58597  1.0000
  H   H2039     1.0  0.63943  0.39853  0.52008  1.0000
  H   H2040     1.0  0.58505  0.40059  0.49009  1.0000
  H   H2041     1.0  0.56397  0.31040  0.56785  1.0000
  H   H2042     1.0  0.52673  0.26964  0.47634  1.0000
  C   C2527     1.0  0.60235  0.33662  0.33094  1.0000
  C   C2528     1.0  0.59605  0.48107  0.62740  1.0000
  C   C2529     1.0  0.52078  0.38513  0.60643  1.0000
  H   H2043     1.0  0.51586  0.36963  0.49139  1.0000
  H   H2044     1.0  0.69039  0.38389  0.56747  1.0000
  C   C2530     1.0  0.56777  0.34102  0.40465  1.0000
  H   H2045     1.0  0.68786  0.28458  0.45530  1.0000
  C   C2531     1.0  0.69252  0.26290  0.35223  1.0000
  H   H2046     1.0  0.69301  0.33082  0.37028  1.0000
  H   H2047     1.0  0.67379  0.30260  0.33323  1.0000
  S   S345      1.0  0.63119  0.47625  0.36997  1.0000
  H   H2048     1.0  0.69434  0.25503  0.37886  1.0000
  C   C2532     1.0  0.70781  0.29421  0.64767  1.0000
  H   H2049     1.0  0.60610  0.37457  0.50637  1.0000
  C   C2533     1.0  0.68029  0.27447  0.62875  1.0000
  C   C2534     1.0  0.56723  0.27950  0.54245  1.0000
  C   C2535     1.0  0.54542  0.28667  0.44115  1.0000
  C   C2536     1.0  0.54158  0.30405  0.44189  1.0000
  C   C2537     1.0  0.52747  0.31519  0.43557  1.0000
  C   C2538     1.0  0.51775  0.30922  0.42762  1.0000
  C   C2539     1.0  0.52192  0.29191  0.42645  1.0000
  C   C2540     1.0  0.53548  0.28060  0.43353  1.0000
  H   H2050     1.0  0.54945  0.30878  0.44747  1.0000
  C   C2541     1.0  0.71705  0.36246  0.63203  1.0000
  S   S346      1.0  0.63636  0.24138  0.32929  1.0000
  H   H2051     1.0  0.53849  0.26718  0.43281  1.0000
  C   C2542     1.0  0.59846  0.35571  0.42570  1.0000
  C   C2543     1.0  0.61586  0.34758  0.42314  1.0000
  C   C2544     1.0  0.62785  0.35490  0.40952  1.0000
  C   C2545     1.0  0.62229  0.36997  0.39809  1.0000
  C   C2546     1.0  0.60498  0.37830  0.40101  1.0000
  C   C2547     1.0  0.59312  0.37131  0.41494  1.0000
  H   H2052     1.0  0.62009  0.33559  0.43151  1.0000
  H   H2053     1.0  0.64125  0.34846  0.40735  1.0000
  H   H2054     1.0  0.60074  0.39027  0.39269  1.0000
  H   H2055     1.0  0.57972  0.37775  0.41704  1.0000
  C   C2548     1.0  0.64816  0.26501  0.41118  1.0000
  H   H2056     1.0  0.65081  0.38880  0.63291  1.0000
  C   C2549     1.0  0.49386  0.39132  0.38742  1.0000
  H   H2057     1.0  0.65318  0.44300  0.62730  1.0000
  C   C2550     1.0  0.64210  0.26324  0.38426  1.0000
  C   C2551     1.0  0.63855  0.27151  0.39826  1.0000
  Fe  Fe173     1.0  0.65341  0.25071  0.34061  1.0000
  H   H2058     1.0  0.52770  0.34194  0.61296  1.0000
  C   C2552     1.0  0.68989  0.28129  0.52139  1.0000
  H   H2059     1.0  0.62869  0.28308  0.39885  1.0000
  C   C2553     1.0  0.57869  0.33797  0.62779  1.0000
  C   C2554     1.0  0.57665  0.32808  0.61732  1.0000
  C   C2555     1.0  0.56643  0.31576  0.62422  1.0000
  C   C2556     1.0  0.60476  0.45411  0.34103  1.0000
  C   C2557     1.0  0.55257  0.37148  0.33351  1.0000
  H   H2060     1.0  0.69134  0.29082  0.48191  1.0000
  H   H2061     1.0  0.58273  0.33009  0.60387  1.0000
  H   H2062     1.0  0.56492  0.30807  0.61613  1.0000
  C   C2558     1.0  0.64217  0.40071  0.49276  1.0000
  Fe  Fe174     1.0  0.50929  0.32436  0.35522  1.0000
  C   C2559     1.0  0.63922  0.40304  0.57265  1.0000
  C   C2560     1.0  0.64501  0.41843  0.56877  1.0000
  C   C2561     1.0  0.64010  0.42908  0.58080  1.0000
  C   C2562     1.0  0.62951  0.42436  0.59690  1.0000
  C   C2563     1.0  0.62359  0.40901  0.60077  1.0000
  C   C2564     1.0  0.62843  0.39837  0.58866  1.0000
  H   H2063     1.0  0.65328  0.42214  0.55642  1.0000
  H   H2064     1.0  0.64468  0.44091  0.57772  1.0000
  H   H2065     1.0  0.61513  0.40541  0.61299  1.0000
  H   H2066     1.0  0.62374  0.38659  0.59172  1.0000
  C   C2565     1.0  0.66989  0.29316  0.59794  1.0000
  C   C2566     1.0  0.68502  0.28055  0.59752  1.0000
  H   H2067     1.0  0.62079  0.28910  0.62555  1.0000
  C   C2567     1.0  0.65420  0.47697  0.32377  1.0000
  C   C2568     1.0  0.65141  0.28135  0.49635  1.0000
  C   C2569     1.0  0.65983  0.29647  0.61388  1.0000
  H   H2068     1.0  0.69283  0.27792  0.58530  1.0000
  C   C2570     1.0  0.53077  0.37610  0.46576  1.0000
  C   C2571     1.0  0.61334  0.42991  0.43551  1.0000
  H   H2069     1.0  0.64814  0.30627  0.61432  1.0000
  C   C2572     1.0  0.60060  0.32905  0.52939  1.0000
  C   C2573     1.0  0.59622  0.33150  0.51348  1.0000
  C   C2574     1.0  0.59774  0.31743  0.50617  1.0000
  C   C2575     1.0  0.60323  0.30074  0.51502  1.0000
  C   C2576     1.0  0.60745  0.29822  0.53109  1.0000
  C   C2577     1.0  0.60622  0.31238  0.53824  1.0000
  H   H2070     1.0  0.59157  0.34437  0.50679  1.0000
  H   H2071     1.0  0.59441  0.31949  0.49382  1.0000
  H   H2072     1.0  0.61177  0.28533  0.53795  1.0000
  H   H2073     1.0  0.60956  0.31040  0.55057  1.0000
  C   C2578     1.0  0.68914  0.32928  0.33451  1.0000
  H   H2074     1.0  0.51390  0.34071  0.55422  1.0000
  C   C2579     1.0  0.66499  0.31362  0.51207  1.0000
  C   C2580     1.0  0.70107  0.26775  0.51410  1.0000
  C   C2581     1.0  0.64802  0.29112  0.54872  1.0000
  C   C2582     1.0  0.63916  0.28341  0.56464  1.0000
  C   C2583     1.0  0.60216  0.47199  0.33895  1.0000
  C   C2584     1.0  0.67860  0.32239  0.50715  1.0000
  C   C2585     1.0  0.67518  0.34035  0.50383  1.0000
  C   C2586     1.0  0.65820  0.34960  0.50530  1.0000
  C   C2587     1.0  0.64466  0.34090  0.50995  1.0000
  C   C2588     1.0  0.64805  0.32299  0.51310  1.0000
  H   H2075     1.0  0.65033  0.30383  0.54726  1.0000
  H   H2076     1.0  0.63468  0.29023  0.57514  1.0000
  C   C2589     1.0  0.67974  0.28695  0.48194  1.0000
  H   H2077     1.0  0.69183  0.31543  0.50585  1.0000
  H   H2078     1.0  0.68566  0.34712  0.50026  1.0000
  H   H2079     1.0  0.65554  0.36347  0.50298  1.0000
  H   H2080     1.0  0.63148  0.34797  0.51139  1.0000
  H   H2081     1.0  0.63745  0.31643  0.51645  1.0000
  H   H2082     1.0  0.64152  0.24458  0.55602  1.0000
  H   H2083     1.0  0.73325  0.25970  0.53577  1.0000
  C   C2590     1.0  0.53501  0.28491  0.48896  1.0000
  C   C2591     1.0  0.53168  0.30062  0.49397  1.0000
  C   C2592     1.0  0.51680  0.31302  0.49117  1.0000
  C   C2593     1.0  0.65464  0.28208  0.53528  1.0000
  P   P85       1.0  0.51274  0.33391  0.49643  1.0000
  C   C2594     1.0  0.66971  0.36278  0.33113  1.0000
  C   C2595     1.0  0.52303  0.33338  0.51347  1.0000
  C   C2596     1.0  0.64485  0.47543  0.64847  1.0000
  C   C2597     1.0  0.52144  0.33782  0.54199  1.0000
  C   C2598     1.0  0.53931  0.33591  0.53842  1.0000
  C   C2599     1.0  0.54905  0.33260  0.52253  1.0000
  C   C2600     1.0  0.54099  0.33157  0.51001  1.0000
  S   S347      1.0  0.52070  0.34234  0.33131  1.0000
  C   C2601     1.0  0.52211  0.34863  0.47808  1.0000
  C   C2602     1.0  0.53101  0.34302  0.46284  1.0000
  C   C2603     1.0  0.53965  0.35382  0.44919  1.0000
  C   C2604     1.0  0.53961  0.37033  0.45063  1.0000
  C   C2605     1.0  0.54131  0.35919  0.39691  1.0000
  C   C2606     1.0  0.52215  0.36524  0.47952  1.0000
  C   C2607     1.0  0.50184  0.30843  0.58785  1.0000
  C   C2608     1.0  0.66724  0.41862  0.34397  1.0000
  H   H2084     1.0  0.64496  0.46944  0.33182  1.0000
  H   H2085     1.0  0.54101  0.30311  0.49956  1.0000
  C   C2609     1.0  0.66977  0.43558  0.33926  1.0000
  C   C2610     1.0  0.69736  0.31040  0.64352  1.0000
  H   H2086     1.0  0.54359  0.28831  0.62093  1.0000
  H   H2087     1.0  0.54565  0.33728  0.54781  1.0000
  H   H2088     1.0  0.56287  0.33112  0.51980  1.0000
  H   H2089     1.0  0.54880  0.32961  0.49751  1.0000
  H   H2090     1.0  0.53177  0.33013  0.46160  1.0000
  H   H2091     1.0  0.54687  0.34912  0.43766  1.0000
  C   C2611     1.0  0.62281  0.38780  0.48473  1.0000
  C   C2612     1.0  0.56123  0.28244  0.55918  1.0000
  C   C2613     1.0  0.69431  0.28663  0.53423  1.0000
  C   C2614     1.0  0.66218  0.31180  0.39983  1.0000
  C   C2615     1.0  0.66679  0.28531  0.49698  1.0000
  C   C2616     1.0  0.67164  0.31835  0.38362  1.0000
  H   H2092     1.0  0.65152  0.30588  0.40086  1.0000
  C   C2617     1.0  0.54754  0.32842  0.39807  1.0000
  C   C2618     1.0  0.53653  0.34452  0.39547  1.0000
  C   C2619     1.0  0.56147  0.36062  0.34596  1.0000
  H   H2093     1.0  0.54681  0.37841  0.44014  1.0000
  C   C2620     1.0  0.66447  0.35007  0.34514  1.0000
  C   C2621     1.0  0.67776  0.28360  0.46683  1.0000
  C   C2622     1.0  0.54358  0.28812  0.56547  1.0000
  H   H2094     1.0  0.54382  0.31716  0.39694  1.0000
  H   H2095     1.0  0.52420  0.34531  0.39268  1.0000
  H   H2096     1.0  0.57085  0.33667  0.57047  1.0000
  H   H2097     1.0  0.59363  0.32329  0.37866  1.0000
  C   C2623     1.0  0.58384  0.26046  0.34474  1.0000
  C   C2624     1.0  0.68551  0.32573  0.38265  1.0000
  C   C2625     1.0  0.66911  0.44413  0.35221  1.0000
  C   C2626     1.0  0.58137  0.39013  0.48719  1.0000
  C   C2627     1.0  0.68094  0.34516  0.57121  1.0000
  C   C2628     1.0  0.68433  0.36152  0.56360  1.0000
  C   C2629     1.0  0.68843  0.37096  0.57326  1.0000
  C   C2630     1.0  0.68921  0.36401  0.59054  1.0000
  C   C2631     1.0  0.68579  0.34757  0.59829  1.0000
  C   C2632     1.0  0.68138  0.33834  0.58856  1.0000
  C   C2633     1.0  0.66098  0.25012  0.41023  1.0000
  H   H2098     1.0  0.65956  0.41303  0.38757  1.0000
  C   C2634     1.0  0.65019  0.33187  0.45587  1.0000
  C   C2635     1.0  0.70670  0.43034  0.62733  1.0000
  H   H2099     1.0  0.65242  0.40779  0.48911  1.0000
  C   C2636     1.0  0.50760  0.36783  0.42752  1.0000
  S   S348      1.0  0.64173  0.27870  0.33308  1.0000
  C   C2637     1.0  0.61410  0.39630  0.43370  1.0000
  P   P86       1.0  0.61506  0.38272  0.46840  1.0000
  H   H2100     1.0  0.56378  0.43352  0.36339  1.0000
  C   C2638     1.0  0.65547  0.45085  0.63484  1.0000
  H   H2101     1.0  0.51007  0.35583  0.42332  1.0000
  C   C2639     1.0  0.62764  0.34740  0.47510  1.0000
  C   C2640     1.0  0.68439  0.35868  0.31859  1.0000
  C   C2641     1.0  0.63688  0.26665  0.56728  1.0000
  Fe  Fe175     1.0  0.62327  0.38671  0.35743  1.0000
  C   C2642     1.0  0.49859  0.23914  0.37140  1.0000
  C   C2643     1.0  0.66382  0.41049  0.36132  1.0000
  H   H2102     1.0  0.71636  0.40400  0.62427  1.0000
  H   H2103     1.0  0.67725  0.33800  0.56392  1.0000
  H   H2104     1.0  0.68312  0.36715  0.55040  1.0000
  H   H2105     1.0  0.69183  0.37176  0.59792  1.0000
  H   H2106     1.0  0.67775  0.32606  0.59453  1.0000
  H   H2107     1.0  0.70732  0.31516  0.59978  1.0000
  H   H2108     1.0  0.60629  0.34366  0.38658  1.0000
  S   S349      1.0  0.61206  0.39808  0.64961  1.0000
  C   C2644     1.0  0.63632  0.39669  0.48007  1.0000
  C   C2645     1.0  0.62913  0.36297  0.46335  1.0000
  H   H2109     1.0  0.49622  0.41132  0.44207  1.0000
  C   C2646     1.0  0.61591  0.38221  0.50230  1.0000
  H   H2110     1.0  0.60017  0.33590  0.34462  1.0000
  H   H2111     1.0  0.61268  0.42014  0.46246  1.0000
  S   S350      1.0  0.63280  0.40372  0.33250  1.0000
  C   C2647     1.0  0.72689  0.44931  0.61382  1.0000
  H   H2112     1.0  0.61826  0.34723  0.48708  1.0000
  H   H2113     1.0  0.66159  0.34744  0.43229  1.0000
  C   C2648     1.0  0.66508  0.39996  0.60834  1.0000
  C   C2649     1.0  0.56484  0.38692  0.49456  1.0000
  H   H2114     1.0  0.58087  0.27510  0.53770  1.0000
  C   C2650     1.0  0.57131  0.36343  0.47980  1.0000
  C   C2651     1.0  0.68987  0.32645  0.39773  1.0000
  C   C2652     1.0  0.68050  0.31971  0.41382  1.0000
  C   C2653     1.0  0.66660  0.31247  0.41486  1.0000
  H   H2115     1.0  0.64079  0.28098  0.50741  1.0000
  H   H2116     1.0  0.59541  0.46912  0.62454  1.0000
  C   C2654     1.0  0.64196  0.36293  0.44820  1.0000
  H   H2117     1.0  0.70060  0.33215  0.39690  1.0000
  H   H2118     1.0  0.68403  0.32005  0.42548  1.0000
  H   H2119     1.0  0.65926  0.30712  0.42724  1.0000
  C   C2655     1.0  0.67643  0.41094  0.59981  1.0000
  C   C2656     1.0  0.67863  0.29248  0.34322  1.0000
  H   H2120     1.0  0.65305  0.35359  0.35461  1.0000
  H   H2121     1.0  0.71312  0.28304  0.54937  1.0000
  H   H2122     1.0  0.59088  0.28593  0.62341  1.0000
  S   S351      1.0  0.49194  0.29161  0.39521  1.0000
  C   C2657     1.0  0.63242  0.33181  0.37670  1.0000
  H   H2123     1.0  0.54719  0.37077  0.49692  1.0000
  C   C2658     1.0  0.51300  0.29318  0.59374  1.0000
  H   H2124     1.0  0.59656  0.35861  0.46388  1.0000
  C   C2659     1.0  0.66545  0.43602  0.36957  1.0000
  C   C2660     1.0  0.55588  0.41578  0.38693  1.0000
  H   H2125     1.0  0.61460  0.40646  0.40663  1.0000
  H   H2126     1.0  0.57974  0.33961  0.40851  1.0000
  H   H2127     1.0  0.68038  0.28339  0.38568  1.0000
  H   H2128     1.0  0.50560  0.36894  0.34873  1.0000
  C   C2661     1.0  0.61423  0.40935  0.41887  1.0000
  C   C2662     1.0  0.59321  0.37957  0.47658  1.0000
  C   C2663     1.0  0.70994  0.27894  0.53931  1.0000
  H   H2129     1.0  0.55073  0.36676  0.63099  1.0000
  C   C2664     1.0  0.65224  0.34739  0.44435  1.0000
  H   H2130     1.0  0.54682  0.27558  0.49052  1.0000
  C   C2665     1.0  0.63487  0.39553  0.51019  1.0000
  C   C2666     1.0  0.54699  0.40244  0.39469  1.0000
  C   C2667     1.0  0.50807  0.36890  0.63399  1.0000
  H   H2131     1.0  0.53383  0.39972  0.35970  1.0000
  H   H2132     1.0  0.56742  0.35320  0.47668  1.0000
  C   C2668     1.0  0.55571  0.28216  0.53181  1.0000
  H   H2133     1.0  0.61284  0.44301  0.43619  1.0000
  Fe  Fe176     1.0  0.59308  0.38267  0.34520  1.0000
  C   C2669     1.0  0.60745  0.32192  0.37605  1.0000
  H   H2134     1.0  0.73042  0.36344  0.62733  1.0000
  H   H2135     1.0  0.49943  0.33832  0.53261  1.0000
  C   C2670     1.0  0.49689  0.36949  0.44357  1.0000
  C   C2671     1.0  0.55958  0.33223  0.57893  1.0000
  C   C2672     1.0  0.54930  0.34134  0.59144  1.0000
  H   H2136     1.0  0.57040  0.28032  0.56719  1.0000
  C   C2673     1.0  0.54116  0.31125  0.58858  1.0000
  C   C2674     1.0  0.55563  0.31718  0.57757  1.0000
  P   P87       1.0  0.53606  0.29157  0.58729  1.0000
  C   C2675     1.0  0.54635  0.27368  0.60169  1.0000
  C   C2676     1.0  0.55178  0.25722  0.59779  1.0000
  P   P88       1.0  0.68399  0.33949  0.62117  1.0000
  H   H2137     1.0  0.68551  0.29653  0.54062  1.0000
  C   C2677     1.0  0.55542  0.26197  0.62895  1.0000
  C   C2678     1.0  0.54805  0.27588  0.61744  1.0000
  H   H2138     1.0  0.52459  0.32861  0.43606  1.0000
  C   C2679     1.0  0.56298  0.32660  0.40297  1.0000
  H   H2139     1.0  0.67110  0.45717  0.34908  1.0000
  C   C2680     1.0  0.62191  0.45035  0.36206  1.0000
  C   C2681     1.0  0.61408  0.29130  0.63825  1.0000
  H   H2140     1.0  0.52908  0.28939  0.52991  1.0000
  C   C2682     1.0  0.64270  0.46510  0.63850  1.0000
  C   C2683     1.0  0.63601  0.30745  0.36390  1.0000
  P   P89       1.0  0.68568  0.42662  0.63923  1.0000
  H   H2141     1.0  0.56053  0.27986  0.51881  1.0000
  H   H2142     1.0  0.65793  0.31980  0.45284  1.0000
  C   C2684     1.0  0.63801  0.33190  0.47133  1.0000
  H   H2143     1.0  0.70204  0.26172  0.61226  1.0000
  C   C2685     1.0  0.51330  0.33647  0.52962  1.0000
  S   S352      1.0  0.50186  0.30085  0.35274  1.0000
  H   H2144     1.0  0.63772  0.34063  0.38041  1.0000
  C   C2686     1.0  0.54094  0.36546  0.32784  1.0000
  S   S353      1.0  0.53493  0.26278  0.37302  1.0000
  C   C2687     1.0  0.67382  0.33308  0.34670  1.0000
  H   H2145     1.0  0.61264  0.29987  0.36463  1.0000
  P   P90       1.0  0.66640  0.31645  0.36434  1.0000
  C   C2688     1.0  0.66271  0.27896  0.46653  1.0000
  C   C2689     1.0  0.65219  0.26525  0.53802  1.0000
  C   C2690     1.0  0.68241  0.28179  0.37261  1.0000
  C   C2691     1.0  0.55263  0.28440  0.34774  1.0000
  H   H2146     1.0  0.68841  0.27440  0.32655  1.0000
  H   H2147     1.0  0.50695  0.31931  0.57964  1.0000
  C   C2692     1.0  0.69037  0.26562  0.36880  1.0000
  C   C2693     1.0  0.67678  0.29546  0.35972  1.0000
  H   H2148     1.0  0.54061  0.29362  0.34835  1.0000
  H   H2149     1.0  0.65972  0.39434  0.60098  1.0000
  C   C2694     1.0  0.61817  0.30889  0.36787  1.0000
  H   H2150     1.0  0.64402  0.29716  0.35777  1.0000
  H   H2151     1.0  0.75195  0.43763  0.60094  1.0000
  C   C2695     1.0  0.55986  0.34346  0.35151  1.0000
  C   C2696     1.0  0.66495  0.28698  0.62934  1.0000
  C   C2697     1.0  0.64330  0.31891  0.36828  1.0000
  C   C2698     1.0  0.66275  0.41921  0.37413  1.0000
  H   H2152     1.0  0.66116  0.27625  0.45488  1.0000
  H   H2153     1.0  0.66173  0.39748  0.36482  1.0000
  H   H2154     1.0  0.56642  0.30168  0.32806  1.0000
  H   H2155     1.0  0.54691  0.39642  0.40806  1.0000
  S   S354      1.0  0.59597  0.40094  0.35964  1.0000
  C   C2699     1.0  0.53515  0.33534  0.60272  1.0000
  C   C2700     1.0  0.55988  0.37344  0.49102  1.0000
  H   H2156     1.0  0.59521  0.36414  0.32518  1.0000
  C   C2701     1.0  0.55709  0.35725  0.40148  1.0000
  H   H2157     1.0  0.64394  0.37476  0.43917  1.0000
  H   H2158     1.0  0.66420  0.44302  0.37947  1.0000
  H   H2159     1.0  0.54775  0.32409  0.34971  1.0000
  C   C2702     1.0  0.61435  0.39982  0.44944  1.0000
  H   H2160     1.0  0.53102  0.38882  0.46693  1.0000
  H   H2161     1.0  0.61647  0.42955  0.35455  1.0000
  C   C2703     1.0  0.56927  0.25612  0.35704  1.0000
  C   C2704     1.0  0.69023  0.27136  0.61279  1.0000
  H   H2162     1.0  0.56124  0.36816  0.40272  1.0000
  C   C2705     1.0  0.53949  0.40436  0.36761  1.0000
  C   C2706     1.0  0.61340  0.41686  0.45035  1.0000
  C   C2707     1.0  0.52430  0.36384  0.63841  1.0000
  C   C2708     1.0  0.61451  0.44333  0.35273  1.0000
  H   H2163     1.0  0.55276  0.35265  0.59285  1.0000
  C   C2709     1.0  0.53845  0.39680  0.38516  1.0000
  H   H2164     1.0  0.59259  0.26246  0.58206  1.0000
  C   C2710     1.0  0.61457  0.33340  0.38044  1.0000
  C   C2711     1.0  0.55359  0.26810  0.35844  1.0000
  C   C2712     1.0  0.58789  0.36653  0.47253  1.0000
  H   H2165     1.0  0.54769  0.38553  0.60278  1.0000
  Fe  Fe177     1.0  0.62699  0.38518  0.32012  1.0000
  H   H2166     1.0  0.59583  0.25111  0.34338  1.0000
  H   H2167     1.0  0.56680  0.33496  0.36101  1.0000
  C   C2713     1.0  0.53839  0.37009  0.62725  1.0000
  H   H2168     1.0  0.62956  0.44190  0.37095  1.0000
  H   H2169     1.0  0.61403  0.38342  0.43280  1.0000
  H   H2170     1.0  0.67970  0.41383  0.58586  1.0000
  P   P91       1.0  0.52651  0.37985  0.39525  1.0000
  C   C2714     1.0  0.54846  0.41764  0.35987  1.0000
  H   H2171     1.0  0.63638  0.31989  0.48029  1.0000
  S   S355      1.0  0.59960  0.28226  0.31695  1.0000
  C   C2715     1.0  0.65481  0.32818  0.64306  1.0000
  S   S356      1.0  0.68791  0.26234  0.64733  1.0000
  C   C2716     1.0  0.51479  0.37378  0.36883  1.0000
  H   H2172     1.0  0.51462  0.28718  0.42021  1.0000
  C   C2717     1.0  0.65495  0.24826  0.38346  1.0000
  C   C2718     1.0  0.60774  0.32169  0.32426  1.0000
  H   H2173     1.0  0.51956  0.39321  0.59393  1.0000
  H   H2174     1.0  0.72522  0.28660  0.60738  1.0000
  S   S357      1.0  0.61981  0.36709  0.34502  1.0000
  C   C2719     1.0  0.54866  0.33739  0.34550  1.0000
  C   C2720     1.0  0.55649  0.42349  0.36956  1.0000
  H   H2175     1.0  0.63084  0.46760  0.63419  1.0000
  H   H2176     1.0  0.52043  0.31564  0.61057  1.0000
  H   H2177     1.0  0.54960  0.42311  0.34623  1.0000
  H   H2178     1.0  0.73546  0.42145  0.32065  1.0000
  C   C2721     1.0  0.50236  0.37518  0.35953  1.0000
  C   C2722     1.0  0.51060  0.38165  0.38300  1.0000
  H   H2179     1.0  0.52763  0.36648  0.36504  1.0000
  H   H2180     1.0  0.57010  0.24350  0.36534  1.0000
  C   C2723     1.0  0.60961  0.47904  0.34833  1.0000
  P   P92       1.0  0.66907  0.29054  0.51612  1.0000
  H   H2181     1.0  0.66850  0.24506  0.42008  1.0000
  C   C2724     1.0  0.58268  0.27682  0.33401  1.0000
  C   C2725     1.0  0.57006  0.33596  0.64505  1.0000
  H   H2182     1.0  0.69114  0.42775  0.60230  1.0000
  C   C2726     1.0  0.64952  0.27794  0.48125  1.0000
  C   C2727     1.0  0.52367  0.28153  0.48090  1.0000
  C   C2728     1.0  0.66660  0.40455  0.63572  1.0000
  H   H2183     1.0  0.61746  0.48535  0.60639  1.0000
  H   H2184     1.0  0.66311  0.31618  0.64740  1.0000
  H   H2185     1.0  0.51833  0.29481  0.55919  1.0000
  C   C2729     1.0  0.55922  0.24332  0.60931  1.0000
  C   C2730     1.0  0.69255  0.35215  0.63043  1.0000
  C   C2731     1.0  0.61180  0.30754  0.64182  1.0000
  S   S358      1.0  0.57135  0.36883  0.35763  1.0000
  C   C2732     1.0  0.64415  0.24917  0.63018  1.0000
  C   C2733     1.0  0.56109  0.24571  0.62487  1.0000
  H   H2186     1.0  0.63773  0.27458  0.48092  1.0000
  H   H2187     1.0  0.61638  0.31786  0.63188  1.0000
  C   C2734     1.0  0.56720  0.28884  0.33589  1.0000
  H   H2188     1.0  0.63483  0.26833  0.37423  1.0000
  C   C2735     1.0  0.68289  0.41876  0.60922  1.0000
  C   C2736     1.0  0.61970  0.46818  0.35974  1.0000
  C   C2737     1.0  0.51454  0.38173  0.41672  1.0000
  C   C2738     1.0  0.71766  0.29340  0.61742  1.0000
  C   C2739     1.0  0.69669  0.31807  0.62626  1.0000
  H   H2189     1.0  0.59456  0.48037  0.32996  1.0000
  C   C2740     1.0  0.53808  0.28763  0.53801  1.0000
  C   C2741     1.0  0.60450  0.24601  0.60256  1.0000
  C   C2742     1.0  0.73936  0.43559  0.60829  1.0000
  H   H2190     1.0  0.74513  0.40868  0.60768  1.0000
  H   H2191     1.0  0.72982  0.46200  0.61072  1.0000
  C   C2743     1.0  0.50654  0.37917  0.61769  1.0000
  C   C2744     1.0  0.67820  0.41545  0.62731  1.0000
  C   C2745     1.0  0.59516  0.27485  0.61750  1.0000
  Fe  Fe178     1.0  0.61359  0.42572  0.63938  1.0000
  C   C2746     1.0  0.54985  0.24201  0.33323  1.0000
  C   C2747     1.0  0.59111  0.27602  0.60171  1.0000
  C   C2748     1.0  0.69421  0.34196  0.32037  1.0000
  Fe  Fe179     1.0  0.60504  0.41649  0.33371  1.0000
  C   C2749     1.0  0.56069  0.23782  0.31792  1.0000
  C   C2750     1.0  0.70716  0.30954  0.61321  1.0000
  H   H2192     1.0  0.64049  0.25682  0.61835  1.0000
  H   H2193     1.0  0.55674  0.26385  0.64105  1.0000
  C   C2751     1.0  0.51023  0.39749  0.42202  1.0000
  H   H2194     1.0  0.69759  0.26277  0.50485  1.0000
  H   H2195     1.0  0.58414  0.28808  0.59544  1.0000
  C   C2752     1.0  0.66127  0.34129  0.63026  1.0000
  C   C2753     1.0  0.64317  0.25764  0.55392  1.0000
  C   C2754     1.0  0.73552  0.41928  0.61212  1.0000
  H   H2196     1.0  0.71774  0.34764  0.61379  1.0000
  H   H2197     1.0  0.66208  0.37570  0.32971  1.0000
  H   H2198     1.0  0.65433  0.36646  0.61442  1.0000
  C   C2755     1.0  0.63224  0.35862  0.63209  1.0000
  C   C2756     1.0  0.53833  0.34860  0.33459  1.0000
  C   C2757     1.0  0.64980  0.35641  0.62466  1.0000
  H   H2199     1.0  0.64733  0.31505  0.31835  1.0000
  C   C2758     1.0  0.55835  0.31331  0.64160  1.0000
  C   C2759     1.0  0.70897  0.43205  0.31899  1.0000
  H   H2200     1.0  0.69814  0.25023  0.34946  1.0000
  C   C2760     1.0  0.66008  0.39686  0.62627  1.0000
  P   P93       1.0  0.67462  0.44582  0.31676  1.0000
  H   H2201     1.0  0.60984  0.30921  0.33276  1.0000
  C   C2761     1.0  0.71924  0.41667  0.62155  1.0000
  S   S359      1.0  0.50094  0.32360  0.41854  1.0000
  C   C2762     1.0  0.59576  0.26160  0.59425  1.0000
  C   C2763     1.0  0.70983  0.35358  0.62436  1.0000
  C   C2764     1.0  0.67028  0.44638  0.64174  1.0000
  C   C2765     1.0  0.60891  0.24494  0.61815  1.0000
  H   H2202     1.0  0.65713  0.28936  0.64164  1.0000
  Fe  Fe180     1.0  0.62654  0.26936  0.31970  1.0000
  H   H2203     1.0  0.66778  0.41164  0.33433  1.0000
  C   C2766     1.0  0.72121  0.26575  0.53171  1.0000
  C   C2767     1.0  0.71059  0.44675  0.62324  1.0000
  H   H2204     1.0  0.51458  0.40869  0.41356  1.0000
  H   H2205     1.0  0.62337  0.37021  0.62761  1.0000
  P   P94       1.0  0.60955  0.25748  0.64613  1.0000
  C   C2768     1.0  0.71794  0.28572  0.63463  1.0000
  S   S360      1.0  0.67494  0.25032  0.31708  1.0000
  C   C2769     1.0  0.70708  0.36980  0.64594  1.0000
  H   H2206     1.0  0.49473  0.31939  0.47928  1.0000
  C   C2770     1.0  0.50573  0.30969  0.48258  1.0000
  C   C2771     1.0  0.68679  0.27639  0.33942  1.0000
  S   S361      1.0  0.66039  0.23736  0.36625  1.0000
  C   C2772     1.0  0.66407  0.24159  0.39670  1.0000
  H   H2207     1.0  0.55361  0.38483  0.32935  1.0000
  C   C2773     1.0  0.62600  0.34579  0.64520  1.0000
  H   H2208     1.0  0.54279  0.25497  0.33377  1.0000
  H   H2209     1.0  0.57515  0.47977  0.64956  1.0000
  H   H2210     1.0  0.72546  0.27287  0.63795  1.0000
  C   C2774     1.0  0.63181  0.24722  0.64566  1.0000
  S   S362      1.0  0.59616  0.44526  0.32874  1.0000
  C   C2775     1.0  0.49956  0.39911  0.43811  1.0000
  H   H2211     1.0  0.70466  0.43089  0.33280  1.0000
  H   H2212     1.0  0.72535  0.24966  0.51352  1.0000
  C   C2776     1.0  0.59951  0.35264  0.31996  1.0000
  H   H2213     1.0  0.69711  0.31650  0.33568  1.0000
  H   H2214     1.0  0.50092  0.29169  0.47039  1.0000
  C   C2777     1.0  0.50218  0.31045  0.64677  1.0000
  C   C2778     1.0  0.50206  0.32643  0.64972  1.0000
  H   H2215     1.0  0.53309  0.37421  0.31927  1.0000
  H   H2216     1.0  0.63576  0.34587  0.31947  1.0000
  C   C2779     1.0  0.49286  0.38513  0.44885  1.0000
  C   C2780     1.0  0.50912  0.29397  0.47757  1.0000
  C   C2781     1.0  0.66151  0.24176  0.62999  1.0000
  C   C2782     1.0  0.49085  0.30905  0.63750  1.0000
  S   S363      1.0  0.59981  0.39948  0.31911  1.0000
  H   H2217     1.0  0.49157  0.35863  0.45169  1.0000
  H   H2218     1.0  0.49438  0.38257  0.61368  1.0000
  H   H2219     1.0  0.66933  0.35836  0.64965  1.0000
  H   H2220     1.0  0.66220  0.40213  0.64953  1.0000
  Fe  Fe181     1.0  0.53512  0.31221  0.70860  1.0000
  S   S364      1.0  0.52028  0.29305  0.72715  1.0000
  S   S365      1.0  0.54251  0.33201  0.71813  1.0000
  Fe  Fe182     1.0  0.53783  0.29642  0.67841  1.0000
  S   S366      1.0  0.52367  0.27603  0.69422  1.0000
  Fe  Fe183     1.0  0.50585  0.29728  0.70618  1.0000
  H   H2221     1.0  0.71273  0.37644  0.65203  1.0000
  Fe  Fe184     1.0  0.53969  0.27363  0.71325  1.0000
  C   C2783     1.0  0.63021  0.48222  0.69949  1.0000
  S   S367      1.0  0.51907  0.31804  0.68896  1.0000
  S   S368      1.0  0.55543  0.29250  0.69618  1.0000
  C   C2784     1.0  0.49948  0.36909  0.67538  1.0000
  S   S369      1.0  0.64438  0.26247  0.72002  1.0000
  H   H2222     1.0  0.60837  0.26056  0.73366  1.0000
  Fe  Fe185     1.0  0.67160  0.26345  0.67387  1.0000
  S   S370      1.0  0.67204  0.28196  0.68941  1.0000
  C   C2785     1.0  0.57038  0.29822  0.74375  1.0000
  Fe  Fe186     1.0  0.67309  0.25913  0.71161  1.0000
  Fe  Fe187     1.0  0.64350  0.28394  0.69681  1.0000
  S   S371      1.0  0.62312  0.30804  0.69804  1.0000
  C   C2786     1.0  0.64845  0.37255  0.75438  1.0000
  S   S372      1.0  0.64294  0.26728  0.67945  1.0000
  S   S373      1.0  0.59673  0.40799  0.68819  1.0000
  Fe  Fe188     1.0  0.62257  0.40023  0.67122  1.0000
  S   S374      1.0  0.64484  0.37984  0.67902  1.0000
  C   C2787     1.0  0.61649  0.24285  0.76543  1.0000
  C   C2788     1.0  0.60672  0.46649  0.69266  1.0000
  C   C2789     1.0  0.63594  0.46668  0.69368  1.0000
  H   H2223     1.0  0.64946  0.46070  0.69179  1.0000
  C   C2790     1.0  0.62957  0.32777  0.69275  1.0000
  C   C2791     1.0  0.64689  0.32861  0.68973  1.0000
  C   C2792     1.0  0.65163  0.34463  0.68524  1.0000
  C   C2793     1.0  0.63905  0.35981  0.68378  1.0000
  C   C2794     1.0  0.62176  0.35894  0.68668  1.0000
  C   C2795     1.0  0.61703  0.34294  0.69125  1.0000
  H   H2224     1.0  0.65658  0.31696  0.69088  1.0000
  H   H2225     1.0  0.66500  0.34527  0.68296  1.0000
  H   H2226     1.0  0.60361  0.34235  0.69345  1.0000
  C   C2796     1.0  0.54980  0.34925  0.70248  1.0000
  C   C2797     1.0  0.55992  0.35843  0.70640  1.0000
  C   C2798     1.0  0.56485  0.37299  0.69462  1.0000
  C   C2799     1.0  0.55926  0.37871  0.67907  1.0000
  C   C2800     1.0  0.54931  0.36939  0.67506  1.0000
  C   C2801     1.0  0.54485  0.35453  0.68659  1.0000
  H   H2227     1.0  0.56386  0.35436  0.71862  1.0000
  H   H2228     1.0  0.57251  0.38009  0.69781  1.0000
  H   H2229     1.0  0.53716  0.34748  0.68340  1.0000
  H   H2230     1.0  0.59995  0.28403  0.77711  1.0000
  H   H2231     1.0  0.67819  0.29908  0.79441  1.0000
  H   H2232     1.0  0.59448  0.29528  0.80347  1.0000
  H   H2233     1.0  0.70583  0.35328  0.68276  1.0000
  H   H2234     1.0  0.65588  0.24140  0.77273  1.0000
  H   H2235     1.0  0.73322  0.24558  0.95737  1.0000
  C   C2802     1.0  0.68720  0.39473  0.69430  1.0000
  H   H2236     1.0  0.49308  0.35346  0.71863  1.0000
  C   C2803     1.0  0.59485  0.24527  0.66175  1.0000
  H   H2237     1.0  0.57843  0.26576  0.70865  1.0000
  C   C2804     1.0  0.64159  0.37755  0.72644  1.0000
  H   H2238     1.0  0.55365  0.32176  0.66545  1.0000
  C   C2805     1.0  0.67151  0.40321  0.68973  1.0000
  H   H2239     1.0  0.65085  0.35654  0.71340  1.0000
  C   C2806     1.0  0.58857  0.27085  0.75368  1.0000
  H   H2240     1.0  0.71203  0.32792  0.66941  1.0000
  S   S375      1.0  0.56328  0.39814  0.66504  1.0000
  C   C2807     1.0  0.59757  0.29738  0.67112  1.0000
  H   H2241     1.0  0.59141  0.29981  0.68387  1.0000
  P   P95       1.0  0.59397  0.25298  0.77079  1.0000
  H   H2242     1.0  0.70895  0.25074  0.75665  1.0000
  C   C2808     1.0  0.70813  0.23859  0.75452  1.0000
  S   S376      1.0  0.62633  0.42714  0.65974  1.0000
  C   C2809     1.0  0.65028  0.36085  0.72490  1.0000
  H   H2243     1.0  0.61010  0.25653  0.70164  1.0000
  C   C2810     1.0  0.70217  0.30066  0.77612  1.0000
  S   S377      1.0  0.67538  0.24028  0.69530  1.0000
  C   C2811     1.0  0.70260  0.39623  0.68227  1.0000
  C   C2812     1.0  0.58419  0.25247  0.71232  1.0000
  H   H2244     1.0  0.54506  0.37371  0.66301  1.0000
  H   H2245     1.0  0.55356  0.25073  0.68489  1.0000
  C   C2813     1.0  0.57449  0.28436  0.75706  1.0000
  H   H2246     1.0  0.61195  0.37056  0.68553  1.0000
  H   H2247     1.0  0.59516  0.27118  0.67781  1.0000
  H   H2248     1.0  0.68684  0.35350  0.71142  1.0000
  Fe  Fe189     1.0  0.58634  0.40801  0.66547  1.0000
  C   C2814     1.0  0.56646  0.24423  0.67994  1.0000
  Fe  Fe190     1.0  0.59973  0.43501  0.67481  1.0000
  H   H2249     1.0  0.56665  0.28421  0.76991  1.0000
  H   H2250     1.0  0.50578  0.37852  0.66574  1.0000
  C   C2815     1.0  0.64528  0.28701  0.74735  1.0000
  C   C2816     1.0  0.62895  0.29454  0.74390  1.0000
  H   H2251     1.0  0.68068  0.30232  0.71401  1.0000
  C   C2817     1.0  0.65719  0.29719  0.74500  1.0000
  C   C2818     1.0  0.59422  0.27675  0.78934  1.0000
  C   C2819     1.0  0.68652  0.41418  0.66078  1.0000
  H   H2252     1.0  0.51116  0.32735  0.65662  1.0000
  C   C2820     1.0  0.62452  0.31229  0.73810  1.0000
  C   C2821     1.0  0.60093  0.48140  0.69948  1.0000
  C   C2822     1.0  0.60218  0.24724  0.70844  1.0000
  S   S378      1.0  0.68859  0.25816  0.73112  1.0000
  C   C2823     1.0  0.69989  0.31497  0.74683  1.0000
  P   P96       1.0  0.66861  0.32794  0.73605  1.0000
  C   C2824     1.0  0.67410  0.31227  0.76905  1.0000
  H   H2253     1.0  0.56245  0.25399  0.75936  1.0000
  C   C2825     1.0  0.62429  0.45900  0.68994  1.0000
  H   H2254     1.0  0.75783  0.26041  0.94704  1.0000
  H   H2255     1.0  0.60106  0.28492  0.71048  1.0000
  H   H2256     1.0  0.68213  0.37388  0.66302  1.0000
  C   C2826     1.0  0.59373  0.28487  0.72351  1.0000
  C   C2827     1.0  0.59117  0.28315  0.80426  1.0000
  H   H2257     1.0  0.71478  0.38991  0.68593  1.0000
  C   C2828     1.0  0.63639  0.32255  0.73576  1.0000
  H   H2258     1.0  0.50766  0.37445  0.69591  1.0000
  H   H2259     1.0  0.78681  0.24464  0.95193  1.0000
  C   C2829     1.0  0.67118  0.41304  0.67315  1.0000
  H   H2260     1.0  0.66999  0.29092  0.74714  1.0000
  H   H2261     1.0  0.63243  0.32039  0.66054  1.0000
  C   C2830     1.0  0.59965  0.28122  0.66756  1.0000
  H   H2262     1.0  0.72390  0.30375  0.75504  1.0000
  H   H2263     1.0  0.64908  0.27318  0.75110  1.0000
  C   C2831     1.0  0.70229  0.40599  0.66559  1.0000
  C   C2832     1.0  0.70999  0.30634  0.75898  1.0000
  H   H2264     1.0  0.58149  0.27892  0.83172  1.0000
  C   C2833     1.0  0.65787  0.34970  0.73819  1.0000
  H   H2265     1.0  0.69964  0.30237  0.68548  1.0000
  H   H2266     1.0  0.63465  0.48614  0.65171  1.0000
  Fe  Fe191     1.0  0.64647  0.24549  0.70198  1.0000
  H   H2267     1.0  0.63544  0.38585  0.71619  1.0000
  H   H2268     1.0  0.70624  0.31895  0.73358  1.0000
  C   C2834     1.0  0.58994  0.26107  0.79020  1.0000
  H   H2269     1.0  0.66282  0.34754  0.76336  1.0000
  H   H2270     1.0  0.71003  0.29373  0.78545  1.0000
  C   C2835     1.0  0.64069  0.38344  0.74116  1.0000
  C   C2836     1.0  0.56660  0.24125  0.76668  1.0000
  C   C2837     1.0  0.65699  0.35572  0.75294  1.0000
  C   C2838     1.0  0.58385  0.27395  0.82016  1.0000
  H   H2271     1.0  0.57387  0.25120  0.83347  1.0000
  H   H2272     1.0  0.63273  0.33615  0.73071  1.0000
  H   H2273     1.0  0.68737  0.38718  0.70721  1.0000
  C   C2839     1.0  0.68936  0.34236  0.70580  1.0000
  H   H2274     1.0  0.61999  0.28659  0.74501  1.0000
  S   S379      1.0  0.55117  0.24692  0.72626  1.0000
  H   H2275     1.0  0.66021  0.31422  0.77306  1.0000
  H   H2276     1.0  0.64772  0.37713  0.76581  1.0000
  H   H2277     1.0  0.57704  0.30930  0.71664  1.0000
  H   H2278     1.0  0.61214  0.31799  0.73460  1.0000
  C   C2840     1.0  0.57383  0.24061  0.72133  1.0000
  C   C2841     1.0  0.75974  0.24706  0.95368  1.0000
  C   C2842     1.0  0.68423  0.30368  0.78116  1.0000
  C   C2843     1.0  0.59789  0.27105  0.73675  1.0000
  C   C2844     1.0  0.57778  0.25343  0.66746  1.0000
  C   C2845     1.0  0.65283  0.31508  0.73930  1.0000
  C   C2846     1.0  0.68185  0.31796  0.75178  1.0000
  C   C2847     1.0  0.58012  0.29854  0.72699  1.0000
  C   C2848     1.0  0.68991  0.36829  0.65216  1.0000
  H   H2279     1.0  0.65886  0.41962  0.66998  1.0000
  H   H2280     1.0  0.55957  0.30870  0.74627  1.0000
  S   S380      1.0  0.59149  0.45795  0.68765  1.0000
  H   H2281     1.0  0.65951  0.40216  0.69898  1.0000
  H   H2282     1.0  0.63390  0.39640  0.74234  1.0000
  H   H2283     1.0  0.62891  0.44731  0.68501  1.0000
  C   C2849     1.0  0.70022  0.34225  0.68955  1.0000
  C   C2850     1.0  0.70376  0.32796  0.68208  1.0000
  C   C2851     1.0  0.69670  0.31362  0.69103  1.0000
  C   C2852     1.0  0.68586  0.31367  0.70729  1.0000
  C   C2853     1.0  0.68183  0.32818  0.71466  1.0000
  C   C2854     1.0  0.64621  0.23834  0.76795  1.0000
  H   H2284     1.0  0.62547  0.25600  0.77997  1.0000
  H   H2285     1.0  0.70763  0.28788  0.66100  1.0000
  C   C2855     1.0  0.58258  0.25189  0.80622  1.0000
  C   C2856     1.0  0.69898  0.23842  0.74239  1.0000
  H   H2286     1.0  0.68961  0.31682  0.65381  1.0000
  C   C2857     1.0  0.57956  0.25833  0.82114  1.0000
  C   C2858     1.0  0.50028  0.36711  0.69256  1.0000
  C   C2859     1.0  0.49103  0.35871  0.67079  1.0000
  C   C2860     1.0  0.74587  0.23871  0.95951  1.0000
  C   C2861     1.0  0.62893  0.24665  0.77192  1.0000
  C   C2862     1.0  0.49200  0.35533  0.70539  1.0000
  H   H2287     1.0  0.57332  0.26702  0.66263  1.0000
  H   H2288     1.0  0.66126  0.47922  0.66302  1.0000
  H   H2289     1.0  0.49120  0.27547  0.68882  1.0000
  C   C2863     1.0  0.63719  0.23830  0.66099  1.0000
  S   S381      1.0  0.58708  0.43576  0.65347  1.0000
  C   C2864     1.0  0.65980  0.47141  0.65493  1.0000
  H   H2290     1.0  0.68334  0.45322  0.65786  1.0000
  H   H2291     1.0  0.71437  0.40710  0.65661  1.0000
  H   H2292     1.0  0.60117  0.32318  0.66101  1.0000
  H   H2293     1.0  0.57912  0.23982  0.80728  1.0000
  C   C2865     1.0  0.77606  0.23817  0.95642  1.0000
  C   C2866     1.0  0.67230  0.45671  0.65193  1.0000
  C   C2867     1.0  0.60335  0.31058  0.65821  1.0000
  H   H2294     1.0  0.57156  0.34371  0.65314  1.0000
  C   C2868     1.0  0.58136  0.23711  0.77362  1.0000
  H   H2295     1.0  0.62808  0.23751  0.67326  1.0000
  C   C2869     1.0  0.55994  0.32354  0.65200  1.0000
  H   H2296     1.0  0.51090  0.29909  0.65192  1.0000
  C   C2870     1.0  0.60741  0.27820  0.65095  1.0000
  H   H2297     1.0  0.52616  0.35519  0.65052  1.0000
  C   C2871     1.0  0.63726  0.33049  0.65051  1.0000
  H   H2298     1.0  0.61239  0.34776  0.65108  1.0000
  S   S382      1.0  0.54648  0.29726  0.65028  1.0000
  C   C2872     1.0  0.59417  0.55196  0.29587  1.0000
  H   H2299     1.0  0.76192  0.69714  0.20067  1.0000
  C   C2873     1.0  0.59627  0.56894  0.29230  1.0000
  Fe  Fe192     1.0  0.67045  0.64065  0.30896  1.0000
  C   C2874     1.0  0.77181  0.69950  0.23751  1.0000
  C   C2875     1.0  0.77072  0.71583  0.28694  1.0000
  Fe  Fe193     1.0  0.63858  0.66154  0.29604  1.0000
  H   H2300     1.0  0.68324  0.60209  0.25543  1.0000
  S   S383      1.0  0.66526  0.65146  0.28257  1.0000
  C   C2876     1.0  0.79574  0.72587  0.25817  1.0000
  H   H2301     1.0  0.70418  0.73420  0.19348  1.0000
  C   C2877     1.0  0.71556  0.70956  0.28030  1.0000
  C   C2878     1.0  0.85395  0.69793  0.22764  1.0000
  S   S384      1.0  0.61733  0.65812  0.28573  1.0000
  H   H2302     1.0  0.77619  0.69206  0.27856  1.0000
  H   H2303     1.0  0.84653  0.73430  0.02688  1.0000
  H   H2304     1.0  0.72554  0.64944  0.29095  1.0000
  P   P97       1.0  0.80325  0.69472  0.24722  1.0000
  C   C2879     1.0  0.64490  0.60622  0.28413  1.0000
  C   C2880     1.0  0.81320  0.73097  0.15382  1.0000
  C   C2881     1.0  0.50870  0.60494  0.31474  1.0000
  C   C2882     1.0  0.71350  0.64186  0.27468  1.0000
  C   C2883     1.0  0.72317  0.65170  0.27812  1.0000
  C   C2884     1.0  0.72950  0.66465  0.26512  1.0000
  C   C2885     1.0  0.72588  0.66797  0.24874  1.0000
  C   C2886     1.0  0.71566  0.65853  0.24532  1.0000
  C   C2887     1.0  0.70986  0.64514  0.25833  1.0000
  P   P98       1.0  0.71103  0.66270  0.22412  1.0000
  C   C2888     1.0  0.70859  0.68550  0.21470  1.0000
  C   C2889     1.0  0.72897  0.65127  0.21057  1.0000
  C   C2890     1.0  0.73155  0.65656  0.19257  1.0000
  C   C2891     1.0  0.74537  0.64773  0.18198  1.0000
  C   C2892     1.0  0.75662  0.63349  0.18927  1.0000
  C   C2893     1.0  0.75403  0.62805  0.20717  1.0000
  C   C2894     1.0  0.74023  0.63687  0.21781  1.0000
  C   C2895     1.0  0.69225  0.69622  0.21447  1.0000
  H   H2305     1.0  0.80526  0.73019  0.24711  1.0000
  H   H2306     1.0  0.66357  0.71283  0.30577  1.0000
  H   H2307     1.0  0.58159  0.54937  0.29722  1.0000
  C   C2896     1.0  0.72329  0.69264  0.20715  1.0000
  C   C2897     1.0  0.69169  0.65514  0.22591  1.0000
  C   C2898     1.0  0.67679  0.65988  0.23815  1.0000
  C   C2899     1.0  0.66210  0.65336  0.24037  1.0000
  C   C2900     1.0  0.66216  0.64197  0.23042  1.0000
  C   C2901     1.0  0.67687  0.63722  0.21811  1.0000
  C   C2902     1.0  0.69159  0.64376  0.21584  1.0000
  H   H2308     1.0  0.70852  0.63187  0.28481  1.0000
  C   C2903     1.0  0.83898  0.69260  0.23788  1.0000
  H   H2309     1.0  0.73668  0.67255  0.26788  1.0000
  H   H2310     1.0  0.73051  0.67836  0.23908  1.0000
  H   H2311     1.0  0.70225  0.63738  0.25603  1.0000
  H   H2312     1.0  0.72286  0.66750  0.18672  1.0000
  H   H2313     1.0  0.74733  0.65192  0.16809  1.0000
  H   H2314     1.0  0.76730  0.62664  0.18105  1.0000
  H   H2315     1.0  0.76269  0.61696  0.21283  1.0000
  H   H2316     1.0  0.73840  0.63240  0.23164  1.0000
  H   H2317     1.0  0.68066  0.69129  0.22034  1.0000
  C   C2904     1.0  0.78984  0.69466  0.23302  1.0000
  H   H2318     1.0  0.58422  0.65046  0.29000  1.0000
  H   H2319     1.0  0.63516  0.71752  0.26756  1.0000
  H   H2320     1.0  0.73601  0.68468  0.20718  1.0000
  H   H2321     1.0  0.67659  0.66849  0.24615  1.0000
  H   H2322     1.0  0.65070  0.65700  0.25000  1.0000
  H   H2323     1.0  0.65080  0.63681  0.23235  1.0000
  H   H2324     1.0  0.67688  0.62840  0.21039  1.0000
  H   H2325     1.0  0.70284  0.63975  0.20636  1.0000
  H   H2326     1.0  0.69789  0.69225  0.29014  1.0000
  H   H2327     1.0  0.71847  0.70830  0.29269  1.0000
  H   H2328     1.0  0.63508  0.53123  0.29896  1.0000
  S   S385      1.0  0.64419  0.68665  0.29604  1.0000
  H   H2329     1.0  0.84009  0.68192  0.24870  1.0000
  C   C2905     1.0  0.70787  0.71283  0.24842  1.0000
  C   C2906     1.0  0.78748  0.69047  0.20561  1.0000
  C   C2907     1.0  0.59967  0.60932  0.27677  1.0000
  H   H2330     1.0  0.79354  0.68718  0.19317  1.0000
  H   H2331     1.0  0.80940  0.63143  0.26165  1.0000
  H   H2332     1.0  0.50253  0.57565  0.29576  1.0000
  C   C2908     1.0  0.59328  0.62963  0.25080  1.0000
  S   S386      1.0  0.68614  0.61375  0.31374  1.0000
  H   H2333     1.0  0.61828  0.61418  0.25284  1.0000
  H   H2334     1.0  0.81876  0.62792  0.28887  1.0000
  C   C2909     1.0  0.85292  0.71178  0.21363  1.0000
  C   C2910     1.0  0.57069  0.62627  0.27638  1.0000
  C   C2911     1.0  0.77426  0.73223  0.28345  1.0000
  C   C2912     1.0  0.81583  0.64061  0.28090  1.0000
  C   C2913     1.0  0.63654  0.59665  0.27833  1.0000
  H   H2335     1.0  0.86445  0.71621  0.20592  1.0000
  C   C2914     1.0  0.84346  0.72629  0.09867  1.0000
  C   C2915     1.0  0.58236  0.61388  0.28507  1.0000
  C   C2916     1.0  0.80115  0.72462  0.16798  1.0000
  H   H2336     1.0  0.68761  0.50432  0.29645  1.0000
  C   C2917     1.0  0.84414  0.73077  0.11372  1.0000
  C   C2918     1.0  0.81055  0.64260  0.26556  1.0000
  H   H2337     1.0  0.63868  0.61210  0.29514  1.0000
  H   H2338     1.0  0.56713  0.64404  0.25266  1.0000
  H   H2339     1.0  0.63889  0.56105  0.29275  1.0000
  C   C2919     1.0  0.69985  0.70230  0.26298  1.0000
  C   C2920     1.0  0.76963  0.69591  0.20990  1.0000
  C   C2921     1.0  0.72168  0.71015  0.19957  1.0000
  C   C2922     1.0  0.64522  0.58914  0.26407  1.0000
  C   C2923     1.0  0.77951  0.70451  0.27594  1.0000
  C   C2924     1.0  0.66199  0.59114  0.25579  1.0000
  C   C2925     1.0  0.62642  0.55869  0.29324  1.0000
  H   H2340     1.0  0.80264  0.66020  0.24347  1.0000
  C   C2926     1.0  0.61241  0.57244  0.29109  1.0000
  H   H2341     1.0  0.73303  0.71568  0.19392  1.0000
  C   C2927     1.0  0.80799  0.67350  0.26038  1.0000
  C   C2928     1.0  0.57614  0.63420  0.25926  1.0000
  H   H2342     1.0  0.76541  0.70340  0.24961  1.0000
  C   C2929     1.0  0.56357  0.68182  0.31259  1.0000
  H   H2343     1.0  0.86638  0.69147  0.23067  1.0000
  S   S387      1.0  0.67936  0.66394  0.30994  1.0000
  H   H2344     1.0  0.58515  0.57923  0.29098  1.0000
  H   H2345     1.0  0.74796  0.70462  0.22914  1.0000
  H   H2346     1.0  0.90451  0.72656  0.14849  1.0000
  S   S388      1.0  0.68523  0.69130  0.26070  1.0000
  H   H2347     1.0  0.55748  0.62993  0.28316  1.0000
  C   C2930     1.0  0.58251  0.66100  0.29624  1.0000
  C   C2931     1.0  0.81732  0.65500  0.28595  1.0000
  H   H2348     1.0  0.63900  0.58172  0.25942  1.0000
  H   H2349     1.0  0.84995  0.71369  0.09614  1.0000
  C   C2932     1.0  0.70383  0.70055  0.27891  1.0000
  C   C2933     1.0  0.66164  0.60817  0.27582  1.0000
  C   C2934     1.0  0.76179  0.70022  0.22591  1.0000
  H   H2350     1.0  0.60532  0.62679  0.29924  1.0000
  C   C2935     1.0  0.81348  0.67138  0.27571  1.0000
  H   H2351     1.0  0.66867  0.58518  0.24491  1.0000
  C   C2936     1.0  0.60502  0.61722  0.25950  1.0000
  Fe  Fe194     1.0  0.67145  0.67564  0.28463  1.0000
  H   H2352     1.0  0.67804  0.72184  0.20665  1.0000
  H   H2353     1.0  0.76056  0.71222  0.29773  1.0000
  H   H2354     1.0  0.59754  0.63596  0.23760  1.0000
  C   C2937     1.0  0.67020  0.60064  0.26168  1.0000
  H   H2355     1.0  0.66807  0.61528  0.28063  1.0000
  C   C2938     1.0  0.80670  0.65897  0.25529  1.0000
  P   P99       1.0  0.61479  0.59417  0.28875  1.0000
  C   C2939     1.0  0.87747  0.73037  0.16015  1.0000
  H   H2356     1.0  0.81141  0.68593  0.21338  1.0000
  C   C2940     1.0  0.59670  0.66754  0.29592  1.0000
  C   C2941     1.0  0.72330  0.72036  0.26577  1.0000
  H   H2357     1.0  0.51385  0.60241  0.28841  1.0000
  H   H2358     1.0  0.79463  0.71516  0.16708  1.0000
  C   C2942     1.0  0.79756  0.68987  0.21709  1.0000
  C   C2943     1.0  0.82195  0.71505  0.22001  1.0000
  C   C2944     1.0  0.70538  0.72064  0.19932  1.0000
  H   H2359     1.0  0.81475  0.68242  0.27977  1.0000
  H   H2360     1.0  0.60646  0.52519  0.30136  1.0000
  C   C2945     1.0  0.79204  0.70947  0.26140  1.0000
  C   C2946     1.0  0.82284  0.70117  0.23414  1.0000
  H   H2361     1.0  0.70492  0.71412  0.23607  1.0000
  C   C2947     1.0  0.83692  0.72027  0.20980  1.0000
  C   C2948     1.0  0.71946  0.72194  0.24981  1.0000
  C   C2949     1.0  0.67825  0.49665  0.30397  1.0000
  C   C2950     1.0  0.50237  0.58191  0.30586  1.0000
  H   H2362     1.0  0.82144  0.65347  0.29783  1.0000
  H   H2363     1.0  0.80962  0.72206  0.21713  1.0000
  C   C2951     1.0  0.69069  0.71368  0.20674  1.0000
  H   H2364     1.0  0.57793  0.60822  0.29847  1.0000
  H   H2365     1.0  0.64055  0.72855  0.29035  1.0000
  C   C2952     1.0  0.79685  0.73110  0.18301  1.0000
  C   C2953     1.0  0.57762  0.68888  0.31163  1.0000
  H   H2366     1.0  0.51377  0.61654  0.31157  1.0000
  C   C2954     1.0  0.60937  0.59952  0.30967  1.0000
  C   C2955     1.0  0.62430  0.54173  0.29681  1.0000
  H   H2367     1.0  0.68098  0.56091  0.30118  1.0000
  C   C2956     1.0  0.50875  0.59696  0.30170  1.0000
  H   H2368     1.0  0.69486  0.58526  0.29744  1.0000
  C   C2957     1.0  0.64515  0.72485  0.26455  1.0000
  C   C2958     1.0  0.64833  0.73104  0.27746  1.0000
  H   H2369     1.0  0.60515  0.68659  0.30350  1.0000
  H   H2370     1.0  0.78718  0.72650  0.19376  1.0000
  C   C2959     1.0  0.87383  0.72643  0.02466  1.0000
  C   C2960     1.0  0.89154  0.73123  0.14628  1.0000
  C   C2961     1.0  0.59427  0.68145  0.30371  1.0000
  H   H2371     1.0  0.87344  0.71293  0.02929  1.0000
  C   C2962     1.0  0.68285  0.58442  0.30668  1.0000
  S   S389      1.0  0.73733  0.73212  0.26793  1.0000
  H   H2372     1.0  0.81602  0.72614  0.14214  1.0000
  H   H2373     1.0  0.65302  0.72235  0.23807  1.0000
  H   H2374     1.0  0.76084  0.72870  0.15581  1.0000
  H   H2375     1.0  0.85118  0.72150  0.12276  1.0000
  C   C2963     1.0  0.56605  0.66780  0.30499  1.0000
  C   C2964     1.0  0.66287  0.50439  0.31364  1.0000
  C   C2965     1.0  0.67502  0.57060  0.30885  1.0000
  H   H2376     1.0  0.55524  0.66234  0.30562  1.0000
  C   C2966     1.0  0.65516  0.72764  0.24788  1.0000
  C   C2967     1.0  0.67517  0.59722  0.31627  1.0000
  C   C2968     1.0  0.67301  0.71637  0.31042  1.0000
  H   H2377     1.0  0.90138  0.72221  0.02127  1.0000
  C   C2969     1.0  0.60817  0.53835  0.29821  1.0000
  C   C2970     1.0  0.88957  0.73165  0.02014  1.0000
  H   H2378     1.0  0.72542  0.73016  0.23852  1.0000
  H   H2379     1.0  0.60821  0.72717  0.30460  1.0000
  C   C2971     1.0  0.67674  0.73288  0.30464  1.0000
  H   H2380     1.0  0.91147  0.73507  0.22933  1.0000
  C   C2972     1.0  0.60443  0.61685  0.31079  1.0000
  H   H2381     1.0  0.87957  0.72504  0.17310  1.0000
  C   C2973     1.0  0.59622  0.73009  0.31373  1.0000
  H   H2382     1.0  0.66039  0.51795  0.31374  1.0000
  H   H2383     1.0  0.83608  0.73126  0.19920  1.0000
  H   H2384     1.0  0.83353  0.73460  0.07538  1.0000
  H   H2385     1.0  0.85014  0.73641  0.16841  1.0000
  H   H2386     1.0  0.58115  0.56644  0.40746  1.0000
  C   C2974     1.0  0.68305  0.55797  0.42905  1.0000
  S   S390      1.0  0.54274  0.64392  0.34910  1.0000
  Fe  Fe195     1.0  0.60092  0.53798  0.37313  1.0000
  S   S391      1.0  0.61179  0.51492  0.39144  1.0000
  S   S392      1.0  0.57269  0.54908  0.38078  1.0000
  C   C2975     1.0  0.59441  0.69992  0.54396  1.0000
  S   S393      1.0  0.64900  0.51660  0.36514  1.0000
  H   H2387     1.0  0.57577  0.65303  0.34493  1.0000
  Fe  Fe196     1.0  0.62650  0.50486  0.36789  1.0000
  H   H2388     1.0  0.51384  0.54350  0.43674  1.0000
  Fe  Fe197     1.0  0.63316  0.52864  0.38729  1.0000
  S   S394      1.0  0.64474  0.52716  0.40961  1.0000
  C   C2976     1.0  0.60235  0.69363  0.50525  1.0000
  S   S395      1.0  0.62120  0.55269  0.37086  1.0000
  C   C2977     1.0  0.57581  0.67918  0.57136  1.0000
  C   C2978     1.0  0.60015  0.68204  0.54747  1.0000
  S   S396      1.0  0.64239  0.68842  0.34230  1.0000
  Fe  Fe198     1.0  0.64895  0.65464  0.55499  1.0000
  S   S397      1.0  0.63931  0.63135  0.57099  1.0000
  S   S398      1.0  0.65389  0.65915  0.52600  1.0000
  Fe  Fe199     1.0  0.65271  0.66556  0.58637  1.0000
  S   S399      1.0  0.64358  0.64297  0.60474  1.0000
  S   S400      1.0  0.66051  0.68621  0.59446  1.0000
  Fe  Fe200     1.0  0.65995  0.62767  0.58525  1.0000
  S   S401      1.0  0.67389  0.60082  0.59451  1.0000
  Fe  Fe201     1.0  0.62367  0.64841  0.58907  1.0000
  S   S402      1.0  0.59755  0.64320  0.60212  1.0000
  S   S403      1.0  0.67113  0.64983  0.56785  1.0000
  S   S404      1.0  0.63131  0.67240  0.57189  1.0000
  Fe  Fe202     1.0  0.59067  0.64605  0.43564  1.0000
  S   S405      1.0  0.61117  0.62693  0.42242  1.0000
  S   S406      1.0  0.57015  0.66432  0.42253  1.0000
  Fe  Fe203     1.0  0.60653  0.63741  0.46724  1.0000
  S   S407      1.0  0.62862  0.61817  0.45632  1.0000
  S   S408      1.0  0.60079  0.63925  0.49519  1.0000
  Fe  Fe204     1.0  0.62918  0.63732  0.43132  1.0000
  S   S409      1.0  0.65455  0.64063  0.41352  1.0000
  Fe  Fe205     1.0  0.60877  0.60950  0.44847  1.0000
  S   S410      1.0  0.60864  0.58133  0.45692  1.0000
  S   S411      1.0  0.60892  0.65773  0.44290  1.0000
  S   S412      1.0  0.58646  0.62761  0.46091  1.0000
  H   H2389     1.0  0.63921  0.70727  0.46760  1.0000
  C   C2979     1.0  0.58426  0.65837  0.61392  1.0000
  C   C2980     1.0  0.58473  0.67586  0.60850  1.0000
  H   H2390     1.0  0.69261  0.54693  0.43322  1.0000
  C   C2981     1.0  0.57207  0.65288  0.62832  1.0000
  H   H2391     1.0  0.59416  0.68014  0.59731  1.0000
  H   H2392     1.0  0.57211  0.70146  0.61255  1.0000
  C   C2982     1.0  0.60095  0.71770  0.59764  1.0000
  C   C2983     1.0  0.65911  0.59104  0.61138  1.0000
  C   C2984     1.0  0.66481  0.57722  0.62404  1.0000
  H   H2393     1.0  0.50247  0.70291  0.38682  1.0000
  C   C2985     1.0  0.60854  0.49023  0.61719  1.0000
  C   C2986     1.0  0.62954  0.58986  0.62588  1.0000
  C   C2987     1.0  0.64146  0.59737  0.61242  1.0000
  H   H2394     1.0  0.67843  0.57226  0.62325  1.0000
  H   H2395     1.0  0.64641  0.66976  0.63024  1.0000
  H   H2396     1.0  0.61591  0.59493  0.62660  1.0000
  H   H2397     1.0  0.63687  0.60808  0.60288  1.0000
  C   C2988     1.0  0.66573  0.68387  0.61462  1.0000
  H   H2398     1.0  0.49096  0.56771  0.42691  1.0000
  H   H2399     1.0  0.56881  0.67114  0.58212  1.0000
  H   H2400     1.0  0.54711  0.54058  0.35571  1.0000
  H   H2401     1.0  0.58572  0.55815  0.34400  1.0000
  C   C2989     1.0  0.53257  0.64387  0.40486  1.0000
  C   C2990     1.0  0.65209  0.58166  0.33097  1.0000
  H   H2402     1.0  0.57406  0.63159  0.37495  1.0000
  C   C2991     1.0  0.55222  0.59223  0.33922  1.0000
  C   C2992     1.0  0.63972  0.65254  0.51754  1.0000
  C   C2993     1.0  0.64261  0.65374  0.49971  1.0000
  C   C2994     1.0  0.63116  0.64895  0.49270  1.0000
  C   C2995     1.0  0.61652  0.64344  0.50349  1.0000
  C   C2996     1.0  0.61380  0.64199  0.52130  1.0000
  C   C2997     1.0  0.62548  0.64627  0.52833  1.0000
  H   H2403     1.0  0.65365  0.65850  0.49129  1.0000
  H   H2404     1.0  0.63333  0.65009  0.47893  1.0000
  H   H2405     1.0  0.60250  0.63772  0.52967  1.0000
  H   H2406     1.0  0.62321  0.64513  0.54207  1.0000
  C   C2998     1.0  0.65174  0.65464  0.39390  1.0000
  C   C2999     1.0  0.66317  0.65141  0.37858  1.0000
  C   C3000     1.0  0.66025  0.66163  0.36266  1.0000
  C   C3001     1.0  0.64653  0.67581  0.36213  1.0000
  C   C3002     1.0  0.63575  0.67971  0.37753  1.0000
  C   C3003     1.0  0.63800  0.66881  0.39337  1.0000
  Fe  Fe206     1.0  0.52863  0.66878  0.33569  1.0000
  H   H2407     1.0  0.66867  0.65860  0.35083  1.0000
  H   H2408     1.0  0.62541  0.69091  0.37724  1.0000
  H   H2409     1.0  0.62926  0.67148  0.40518  1.0000
  C   C3004     1.0  0.63545  0.54313  0.42187  1.0000
  C   C3005     1.0  0.63519  0.53862  0.43950  1.0000
  C   C3006     1.0  0.62690  0.55053  0.45000  1.0000
  C   C3007     1.0  0.61946  0.56730  0.44285  1.0000
  C   C3008     1.0  0.62020  0.57214  0.42506  1.0000
  C   C3009     1.0  0.62802  0.55994  0.41459  1.0000
  H   H2410     1.0  0.64089  0.52568  0.44517  1.0000
  H   H2411     1.0  0.62622  0.54668  0.46372  1.0000
  H   H2412     1.0  0.61433  0.58506  0.41948  1.0000
  H   H2413     1.0  0.62810  0.56342  0.40100  1.0000
  C   C3010     1.0  0.54955  0.59027  0.45219  1.0000
  C   C3011     1.0  0.64485  0.72207  0.64925  1.0000
  H   H2414     1.0  0.65279  0.62113  0.38682  1.0000
  H   H2415     1.0  0.61203  0.67617  0.53982  1.0000
  C   C3012     1.0  0.70008  0.64698  0.60707  1.0000
  C   C3013     1.0  0.59081  0.67170  0.56101  1.0000
  C   C3014     1.0  0.55357  0.66168  0.39895  1.0000
  H   H2416     1.0  0.61167  0.72693  0.55356  1.0000
  C   C3015     1.0  0.60015  0.65415  0.34922  1.0000
  H   H2417     1.0  0.66614  0.55186  0.39356  1.0000
  C   C3016     1.0  0.56115  0.59602  0.47390  1.0000
  H   H2418     1.0  0.56972  0.55953  0.59245  1.0000
  C   C3017     1.0  0.62399  0.71944  0.54845  1.0000
  C   C3018     1.0  0.62514  0.70966  0.49331  1.0000
  H   H2419     1.0  0.64027  0.58056  0.34042  1.0000
  C   C3019     1.0  0.69210  0.55731  0.34643  1.0000
  C   C3020     1.0  0.68630  0.60171  0.37409  1.0000
  C   C3021     1.0  0.56461  0.56514  0.36453  1.0000
  C   C3022     1.0  0.54888  0.57634  0.36879  1.0000
  C   C3023     1.0  0.54286  0.59007  0.35623  1.0000
  H   H2420     1.0  0.56077  0.67077  0.39008  1.0000
  H   H2421     1.0  0.70420  0.65631  0.59569  1.0000
  H   H2422     1.0  0.54142  0.57450  0.38185  1.0000
  C   C3024     1.0  0.53513  0.63793  0.42178  1.0000
  C   C3025     1.0  0.54708  0.64367  0.42722  1.0000
  C   C3026     1.0  0.55627  0.65564  0.41579  1.0000
  Fe  Fe207     1.0  0.52975  0.63199  0.33593  1.0000
  H   H2423     1.0  0.52794  0.62882  0.43063  1.0000
  H   H2424     1.0  0.54900  0.63904  0.44028  1.0000
  H   H2425     1.0  0.50608  0.62597  0.63544  1.0000
  C   C3027     1.0  0.63088  0.63335  0.64667  1.0000
  H   H2426     1.0  0.57176  0.63939  0.63271  1.0000
  C   C3028     1.0  0.56744  0.61129  0.61890  1.0000
  S   S413      1.0  0.65100  0.55094  0.32349  1.0000
  H   H2427     1.0  0.57852  0.61626  0.61079  1.0000
  H   H2428     1.0  0.70310  0.59110  0.62885  1.0000
  C   C3029     1.0  0.58303  0.68585  0.35808  1.0000
  C   C3030     1.0  0.57959  0.70744  0.55471  1.0000
  C   C3031     1.0  0.58269  0.66020  0.34901  1.0000
  C   C3032     1.0  0.57030  0.69705  0.56834  1.0000
  C   C3033     1.0  0.57413  0.67594  0.35347  1.0000
  C   C3034     1.0  0.55387  0.61103  0.61182  1.0000
  C   C3035     1.0  0.59424  0.54855  0.62274  1.0000
  H   H2429     1.0  0.56072  0.68041  0.35285  1.0000
  H   H2430     1.0  0.55452  0.61568  0.59814  1.0000
  C   C3036     1.0  0.69213  0.63446  0.60580  1.0000
  S   S414      1.0  0.51804  0.63602  0.39813  1.0000
  H   H2431     1.0  0.57847  0.73386  0.63295  1.0000
  H   H2432     1.0  0.60850  0.56542  0.62655  1.0000
  H   H2433     1.0  0.55736  0.61146  0.37271  1.0000
  H   H2434     1.0  0.57588  0.58109  0.45514  1.0000
  C   C3037     1.0  0.65753  0.52497  0.64145  1.0000
  H   H2435     1.0  0.59192  0.68968  0.51547  1.0000
  C   C3038     1.0  0.54313  0.70467  0.38753  1.0000
  C   C3039     1.0  0.58502  0.72802  0.37579  1.0000
  C   C3040     1.0  0.67879  0.69170  0.61486  1.0000
  H   H2436     1.0  0.59316  0.63498  0.32704  1.0000
  S   S415      1.0  0.54531  0.60988  0.32358  1.0000
  Fe  Fe208     1.0  0.63530  0.53963  0.34886  1.0000
  C   C3041     1.0  0.51654  0.54312  0.39249  1.0000
  H   H2437     1.0  0.59867  0.67904  0.48870  1.0000
  H   H2438     1.0  0.53096  0.59890  0.35973  1.0000
  H   H2439     1.0  0.66775  0.69087  0.53182  1.0000
  C   C3042     1.0  0.68316  0.69099  0.63039  1.0000
  H   H2440     1.0  0.65526  0.64015  0.64217  1.0000
  C   C3043     1.0  0.58461  0.48711  0.64146  1.0000
  H   H2441     1.0  0.50111  0.58940  0.37913  1.0000
  C   C3044     1.0  0.68388  0.56477  0.41146  1.0000
  C   C3045     1.0  0.61142  0.70068  0.62297  1.0000
  H   H2442     1.0  0.55109  0.70243  0.39678  1.0000
  C   C3046     1.0  0.61227  0.70383  0.60528  1.0000
  C   C3047     1.0  0.60598  0.68771  0.48996  1.0000
  C   C3048     1.0  0.65091  0.59834  0.37973  1.0000
  H   H2443     1.0  0.67388  0.64056  0.37904  1.0000
  S   S416      1.0  0.51735  0.65685  0.32079  1.0000
  C   C3049     1.0  0.52230  0.70844  0.36437  1.0000
  H   H2444     1.0  0.59670  0.69136  0.41404  1.0000
  C   C3050     1.0  0.63519  0.57632  0.63872  1.0000
  C   C3051     1.0  0.63142  0.71649  0.64634  1.0000
  C   C3052     1.0  0.55009  0.70799  0.36973  1.0000
  C   C3053     1.0  0.53828  0.59958  0.64031  1.0000
  H   H2445     1.0  0.59048  0.61247  0.35404  1.0000
  H   H2446     1.0  0.52221  0.60349  0.42260  1.0000
  H   H2447     1.0  0.68574  0.69823  0.60290  1.0000
  H   H2448     1.0  0.60699  0.64221  0.34530  1.0000
  H   H2449     1.0  0.67077  0.52393  0.64199  1.0000
  H   H2450     1.0  0.57814  0.53553  0.61580  1.0000
  H   H2451     1.0  0.54079  0.54913  0.43951  1.0000
  C   C3054     1.0  0.58808  0.72548  0.62539  1.0000
  H   H2452     1.0  0.62236  0.68753  0.46480  1.0000
  H   H2453     1.0  0.57205  0.59461  0.47958  1.0000
  C   C3055     1.0  0.67368  0.55345  0.38050  1.0000
  C   C3056     1.0  0.60023  0.56386  0.61906  1.0000
  C   C3057     1.0  0.54178  0.65583  0.39346  1.0000
  H   H2454     1.0  0.60285  0.70757  0.33261  1.0000
  H   H2455     1.0  0.64815  0.59703  0.41449  1.0000
  C   C3058     1.0  0.57229  0.68790  0.61705  1.0000
  C   C3059     1.0  0.62281  0.52877  0.64058  1.0000
  C   C3060     1.0  0.61003  0.50509  0.62142  1.0000
  C   C3061     1.0  0.58629  0.69851  0.39124  1.0000
  H   H2456     1.0  0.62406  0.63720  0.38244  1.0000
  C   C3062     1.0  0.59350  0.70167  0.40338  1.0000
  C   C3063     1.0  0.62886  0.70356  0.47809  1.0000
  C   C3064     1.0  0.62857  0.62423  0.38016  1.0000
  C   C3065     1.0  0.58457  0.57576  0.59613  1.0000
  C   C3066     1.0  0.53944  0.71011  0.35822  1.0000
  S   S417      1.0  0.50677  0.63041  0.35759  1.0000
  H   H2457     1.0  0.62166  0.69539  0.59756  1.0000
  H   H2458     1.0  0.64338  0.69488  0.51834  1.0000
  H   H2459     1.0  0.62019  0.68980  0.62868  1.0000
  C   C3067     1.0  0.57828  0.56070  0.59987  1.0000
  H   H2460     1.0  0.62011  0.51173  0.61370  1.0000
  C   C3068     1.0  0.58199  0.71163  0.37737  1.0000
  H   H2461     1.0  0.57722  0.60548  0.64207  1.0000
  H   H2462     1.0  0.54460  0.71219  0.34447  1.0000
  H   H2463     1.0  0.55094  0.66024  0.64825  1.0000
  C   C3069     1.0  0.53246  0.53829  0.38177  1.0000
  C   C3070     1.0  0.65376  0.70694  0.55003  1.0000
  C   C3071     1.0  0.59307  0.71892  0.32969  1.0000
  H   H2464     1.0  0.60784  0.49282  0.34647  1.0000
  C   C3072     1.0  0.57100  0.62134  0.38576  1.0000
  C   C3073     1.0  0.68526  0.61280  0.35806  1.0000
  C   C3074     1.0  0.63452  0.53492  0.62579  1.0000
  C   C3075     1.0  0.58559  0.50237  0.64529  1.0000
  P   P100      1.0  0.57290  0.70722  0.36167  1.0000
  H   H2465     1.0  0.61533  0.59329  0.36955  1.0000
  C   C3076     1.0  0.65174  0.53320  0.62629  1.0000
  C   C3077     1.0  0.69624  0.62439  0.35089  1.0000
  C   C3078     1.0  0.50278  0.55374  0.38540  1.0000
  C   C3079     1.0  0.50275  0.57020  0.42829  1.0000
  S   S418      1.0  0.54428  0.69709  0.64233  1.0000
  H   H2466     1.0  0.54867  0.58946  0.39788  1.0000
  C   C3080     1.0  0.53089  0.55986  0.43546  1.0000
  C   C3081     1.0  0.67870  0.56909  0.37214  1.0000
  H   H2467     1.0  0.63039  0.54139  0.61392  1.0000
  Fe  Fe209     1.0  0.51863  0.64458  0.36965  1.0000
  H   H2468     1.0  0.69537  0.63276  0.33844  1.0000
  C   C3082     1.0  0.50487  0.55965  0.36749  1.0000
  C   C3083     1.0  0.65567  0.69924  0.53620  1.0000
  C   C3084     1.0  0.69817  0.60275  0.38309  1.0000
  H   H2469     1.0  0.52913  0.60470  0.61670  1.0000
  H   H2470     1.0  0.67594  0.61248  0.35106  1.0000
  H   H2471     1.0  0.66048  0.53865  0.61506  1.0000
  C   C3085     1.0  0.53459  0.54396  0.36394  1.0000
  C   C3086     1.0  0.58310  0.54711  0.61312  1.0000
  C   C3087     1.0  0.70898  0.61455  0.37600  1.0000
  H   H2472     1.0  0.64437  0.57752  0.37285  1.0000
  C   C3088     1.0  0.61796  0.61637  0.37540  1.0000
  C   C3089     1.0  0.68826  0.62346  0.63666  1.0000
  C   C3090     1.0  0.69969  0.58178  0.64044  1.0000
  C   C3091     1.0  0.57372  0.56694  0.34743  1.0000
  C   C3092     1.0  0.66972  0.56524  0.44122  1.0000
  H   H2473     1.0  0.69045  0.63374  0.59344  1.0000
  C   C3093     1.0  0.59864  0.51126  0.63557  1.0000
  C   C3094     1.0  0.65733  0.57939  0.43581  1.0000
  C   C3095     1.0  0.59764  0.62152  0.32668  1.0000
  C   C3096     1.0  0.60846  0.58681  0.32483  1.0000
  C   C3097     1.0  0.70228  0.64771  0.62310  1.0000
  C   C3098     1.0  0.62368  0.59951  0.37291  1.0000
  H   H2474     1.0  0.69891  0.59469  0.39567  1.0000
  C   C3099     1.0  0.68593  0.62304  0.62056  1.0000
  H   H2475     1.0  0.71548  0.56060  0.62904  1.0000
  H   H2476     1.0  0.60132  0.71979  0.58405  1.0000
  H   H2477     1.0  0.50257  0.60422  0.34184  1.0000
  H   H2478     1.0  0.71791  0.61549  0.38313  1.0000
  C   C3100     1.0  0.65667  0.67564  0.63030  1.0000
  H   H2479     1.0  0.53985  0.66056  0.38041  1.0000
  C   C3101     1.0  0.67409  0.68307  0.64610  1.0000
  H   H2480     1.0  0.51503  0.53882  0.40629  1.0000
  C   C3102     1.0  0.49747  0.61760  0.63650  1.0000
  H   H2481     1.0  0.52093  0.69969  0.40739  1.0000
  C   C3103     1.0  0.52596  0.70304  0.39365  1.0000
  H   H2482     1.0  0.63253  0.71834  0.49433  1.0000
  C   C3104     1.0  0.64017  0.59053  0.37494  1.0000
  C   C3105     1.0  0.65285  0.57007  0.63793  1.0000
  C   C3106     1.0  0.64175  0.70158  0.52852  1.0000
  C   C3107     1.0  0.68799  0.57092  0.35500  1.0000
  H   H2483     1.0  0.69890  0.55896  0.33309  1.0000
  C   C3108     1.0  0.52043  0.59035  0.42598  1.0000
  H   H2484     1.0  0.70803  0.65770  0.62418  1.0000
  C   C3109     1.0  0.61933  0.69252  0.47646  1.0000
  H   H2485     1.0  0.67901  0.61398  0.61955  1.0000
  C   C3110     1.0  0.65961  0.59598  0.32828  1.0000
  C   C3111     1.0  0.67788  0.53986  0.37193  1.0000
  C   C3112     1.0  0.62580  0.71168  0.53458  1.0000
  H   H2486     1.0  0.60526  0.62331  0.37381  1.0000
  P   P101      1.0  0.67196  0.58685  0.38313  1.0000
  C   C3113     1.0  0.68693  0.54184  0.35483  1.0000
  C   C3114     1.0  0.50225  0.59795  0.33195  1.0000
  H   H2487     1.0  0.67376  0.52793  0.37852  1.0000
  P   P102      1.0  0.60045  0.53108  0.63998  1.0000
  C   C3115     1.0  0.56058  0.59663  0.41468  1.0000
  P   P103      1.0  0.60704  0.71282  0.52656  1.0000
  P   P104      1.0  0.55315  0.58120  0.43344  1.0000
  H   H2488     1.0  0.64689  0.58493  0.44522  1.0000
  H   H2489     1.0  0.66889  0.55987  0.45483  1.0000
  C   C3116     1.0  0.59614  0.60888  0.34173  1.0000
  C   C3117     1.0  0.56016  0.66479  0.63716  1.0000
  C   C3118     1.0  0.50516  0.58707  0.42444  1.0000
  C   C3119     1.0  0.59562  0.57730  0.60566  1.0000
  C   C3120     1.0  0.60896  0.66372  0.35423  1.0000
  C   C3121     1.0  0.57124  0.60709  0.41544  1.0000
  C   C3122     1.0  0.60049  0.67956  0.35842  1.0000
  H   H2490     1.0  0.63332  0.71223  0.63448  1.0000
  C   C3123     1.0  0.55627  0.59783  0.39896  1.0000
  C   C3124     1.0  0.50098  0.60023  0.64481  1.0000
  H   H2491     1.0  0.69421  0.55893  0.40217  1.0000
  H   H2492     1.0  0.58416  0.68575  0.39262  1.0000
  H   H2493     1.0  0.62250  0.65915  0.35441  1.0000
  C   C3125     1.0  0.67125  0.57879  0.40591  1.0000
  H   H2494     1.0  0.51446  0.70930  0.35533  1.0000
  C   C3126     1.0  0.51562  0.55660  0.43382  1.0000
  H   H2495     1.0  0.69356  0.69684  0.63021  1.0000
  C   C3127     1.0  0.53338  0.57679  0.43164  1.0000
  H   H2496     1.0  0.61239  0.57330  0.32438  1.0000
  H   H2497     1.0  0.58090  0.58626  0.58586  1.0000
  C   C3128     1.0  0.59945  0.71158  0.63315  1.0000
  H   H2498     1.0  0.60771  0.68718  0.36141  1.0000
  H   H2499     1.0  0.71635  0.63453  0.35444  1.0000
  H   H2500     1.0  0.57525  0.60612  0.42722  1.0000
  H   H2501     1.0  0.63899  0.50042  0.33120  1.0000
  H   H2502     1.0  0.65681  0.72202  0.63973  1.0000
  H   H2503     1.0  0.54332  0.53051  0.38724  1.0000
  C   C3129     1.0  0.59661  0.71796  0.40169  1.0000
  H   H2504     1.0  0.58371  0.62821  0.40198  1.0000
  C   C3130     1.0  0.51558  0.70480  0.38208  1.0000
  H   H2505     1.0  0.60055  0.58895  0.60283  1.0000
  H   H2506     1.0  0.52310  0.55919  0.34297  1.0000
  H   H2507     1.0  0.49526  0.59769  0.42019  1.0000
  S   S419      1.0  0.64324  0.64887  0.32251  1.0000
  C   C3131     1.0  0.56671  0.60524  0.63653  1.0000
  C   C3132     1.0  0.69330  0.70840  0.32918  1.0000
  H   H2508     1.0  0.68965  0.53150  0.34801  1.0000
  S   S420      1.0  0.50551  0.67062  0.35748  1.0000
  C   C3133     1.0  0.56331  0.58830  0.46004  1.0000
  C   C3134     1.0  0.57629  0.61952  0.40104  1.0000
  H   H2509     1.0  0.60026  0.58176  0.35248  1.0000
  C   C3135     1.0  0.65651  0.53974  0.57051  1.0000
  C   C3136     1.0  0.64263  0.53257  0.58082  1.0000
  C   C3137     1.0  0.62580  0.54119  0.57968  1.0000
  C   C3138     1.0  0.62284  0.55701  0.56827  1.0000
  C   C3139     1.0  0.63670  0.56440  0.55801  1.0000
  C   C3140     1.0  0.65359  0.55549  0.55899  1.0000
  P   P105      1.0  0.63283  0.58395  0.54209  1.0000
  C   C3141     1.0  0.61276  0.59733  0.55064  1.0000
  C   C3142     1.0  0.64970  0.59580  0.53786  1.0000
  C   C3143     1.0  0.65455  0.60589  0.52145  1.0000
  C   C3144     1.0  0.66744  0.61519  0.51824  1.0000
  C   C3145     1.0  0.67546  0.61469  0.53138  1.0000
  C   C3146     1.0  0.67075  0.60471  0.54773  1.0000
  C   C3147     1.0  0.65782  0.59542  0.55104  1.0000
  C   C3148     1.0  0.59746  0.59842  0.54551  1.0000
  C   C3149     1.0  0.58240  0.60980  0.55135  1.0000
  C   C3150     1.0  0.58235  0.61973  0.56278  1.0000
  C   C3151     1.0  0.59724  0.61798  0.56868  1.0000
  C   C3152     1.0  0.61234  0.60679  0.56271  1.0000
  C   C3153     1.0  0.63223  0.57837  0.52243  1.0000
  C   C3154     1.0  0.64019  0.56186  0.51925  1.0000
  C   C3155     1.0  0.63947  0.55742  0.50421  1.0000
  C   C3156     1.0  0.63070  0.56936  0.49232  1.0000
  C   C3157     1.0  0.62278  0.58579  0.49536  1.0000
  C   C3158     1.0  0.62387  0.59044  0.51013  1.0000
  H   H2510     1.0  0.66957  0.53301  0.57128  1.0000
  H   H2511     1.0  0.64496  0.52028  0.58961  1.0000
  H   H2512     1.0  0.61503  0.53556  0.58750  1.0000
  H   H2513     1.0  0.60976  0.56334  0.56727  1.0000
  H   H2514     1.0  0.66453  0.56057  0.55069  1.0000
  H   H2515     1.0  0.64821  0.60700  0.51116  1.0000
  H   H2516     1.0  0.67079  0.62333  0.50570  1.0000
  H   H2517     1.0  0.68498  0.62244  0.52901  1.0000
  H   H2518     1.0  0.67678  0.60458  0.55799  1.0000
  H   H2519     1.0  0.65403  0.58824  0.56398  1.0000
  H   H2520     1.0  0.59712  0.59080  0.53676  1.0000
  H   H2521     1.0  0.57089  0.61118  0.54666  1.0000
  H   H2522     1.0  0.57084  0.62887  0.56699  1.0000
  H   H2523     1.0  0.59724  0.62555  0.57763  1.0000
  H   H2524     1.0  0.62373  0.60569  0.56740  1.0000
  H   H2525     1.0  0.64701  0.55236  0.52827  1.0000
  H   H2526     1.0  0.64561  0.54471  0.50177  1.0000
  H   H2527     1.0  0.63004  0.56590  0.48073  1.0000
  H   H2528     1.0  0.61572  0.59492  0.48627  1.0000
  H   H2529     1.0  0.61805  0.60344  0.51194  1.0000
  C   C3159     1.0  0.56951  0.56178  0.43477  1.0000
  C   C3160     1.0  0.58159  0.55803  0.41995  1.0000
  C   C3161     1.0  0.59465  0.54335  0.42113  1.0000
  C   C3162     1.0  0.59571  0.53218  0.43698  1.0000
  C   C3163     1.0  0.58353  0.53563  0.45176  1.0000
  C   C3164     1.0  0.57040  0.55035  0.45067  1.0000
  C   C3165     1.0  0.53940  0.60501  0.62245  1.0000
  C   C3166     1.0  0.54522  0.60602  0.47994  1.0000
  C   C3167     1.0  0.53138  0.60802  0.47227  1.0000
  C   C3168     1.0  0.53349  0.60012  0.45850  1.0000
  H   H2530     1.0  0.59546  0.65791  0.56377  1.0000
  H   H2531     1.0  0.60430  0.54097  0.40977  1.0000
  H   H2532     1.0  0.60619  0.52104  0.43774  1.0000
  H   H2533     1.0  0.58449  0.52707  0.46408  1.0000
  H   H2534     1.0  0.56113  0.55297  0.46224  1.0000
  H   H2535     1.0  0.54372  0.61243  0.49035  1.0000
  H   H2536     1.0  0.51909  0.61600  0.47675  1.0000
  H   H2537     1.0  0.52268  0.60212  0.45262  1.0000
  C   C3169     1.0  0.70808  0.62532  0.35988  1.0000
  H   H2538     1.0  0.65364  0.60576  0.33584  1.0000
  C   C3170     1.0  0.65807  0.58619  0.41825  1.0000
  C   C3171     1.0  0.60175  0.59154  0.34083  1.0000
  C   C3172     1.0  0.56136  0.61021  0.38458  1.0000
  C   C3173     1.0  0.61218  0.70435  0.50721  1.0000
  C   C3174     1.0  0.56739  0.58036  0.33475  1.0000
  S   S421      1.0  0.61392  0.52686  0.34959  1.0000
  H   H2539     1.0  0.69173  0.58289  0.34799  1.0000
  C   C3175     1.0  0.55220  0.59940  0.64717  1.0000
  C   C3176     1.0  0.63793  0.71709  0.55612  1.0000
  C   C3177     1.0  0.64492  0.61517  0.38251  1.0000
  H   H2540     1.0  0.69957  0.69895  0.33871  1.0000
  C   C3178     1.0  0.53924  0.55964  0.64829  1.0000
  H   H2541     1.0  0.57459  0.58195  0.32162  1.0000
  H   H2542     1.0  0.60232  0.72032  0.41107  1.0000
  S   S422      1.0  0.54303  0.69015  0.32382  1.0000
  C   C3179     1.0  0.65984  0.56894  0.32121  1.0000
  C   C3180     1.0  0.57734  0.72221  0.34145  1.0000
  C   C3181     1.0  0.55995  0.68235  0.63140  1.0000
  H   H2543     1.0  0.66438  0.70463  0.55637  1.0000
  C   C3182     1.0  0.69650  0.63595  0.63784  1.0000
  C   C3183     1.0  0.52089  0.55461  0.35679  1.0000
  H   H2544     1.0  0.70638  0.72807  0.32865  1.0000
  Fe  Fe210     1.0  0.65147  0.67324  0.32132  1.0000
  H   H2545     1.0  0.55899  0.70280  0.57682  1.0000
  C   C3184     1.0  0.70688  0.56438  0.64051  1.0000
  H   H2546     1.0  0.63642  0.72265  0.56714  1.0000
  C   C3185     1.0  0.64805  0.63011  0.64801  1.0000
  H   H2547     1.0  0.55499  0.53496  0.64463  1.0000
  H   H2548     1.0  0.67802  0.69167  0.32737  1.0000
  H   H2549     1.0  0.62501  0.64577  0.63994  1.0000
  H   H2550     1.0  0.54737  0.56653  0.63757  1.0000
  C   C3186     1.0  0.69708  0.72479  0.32355  1.0000
  C   C3187     1.0  0.65081  0.49455  0.32344  1.0000
  Fe  Fe211     1.0  0.49531  0.65632  0.34382  1.0000
  C   C3188     1.0  0.68122  0.70425  0.32269  1.0000
  C   C3189     1.0  0.59236  0.73115  0.38791  1.0000
  H   H2551     1.0  0.57531  0.72124  0.55281  1.0000
  C   C3190     1.0  0.49546  0.58308  0.33622  1.0000
  C   C3191     1.0  0.58887  0.72853  0.60768  1.0000
  H   H2552     1.0  0.65726  0.55964  0.64788  1.0000
  C   C3192     1.0  0.59526  0.73455  0.52124  1.0000
  H   H2553     1.0  0.57311  0.72674  0.51859  1.0000
  C   C3193     1.0  0.66068  0.67545  0.64610  1.0000
  C   C3194     1.0  0.49584  0.57492  0.32307  1.0000
  H   H2554     1.0  0.49116  0.56314  0.32608  1.0000
  H   H2555     1.0  0.57569  0.69970  0.31753  1.0000
  Fe  Fe212     1.0  0.53695  0.64448  0.68594  1.0000
  S   S423      1.0  0.51945  0.65043  0.71048  1.0000
  S   S424      1.0  0.55081  0.61927  0.67920  1.0000
  Fe  Fe213     1.0  0.53241  0.68143  0.66722  1.0000
  S   S425      1.0  0.51397  0.69095  0.68992  1.0000
  C   C3195     1.0  0.54365  0.54168  0.65225  1.0000
  Fe  Fe214     1.0  0.53279  0.67256  0.70509  1.0000
  S   S426      1.0  0.54127  0.67993  0.72567  1.0000
  Fe  Fe215     1.0  0.50226  0.66806  0.69306  1.0000
  S   S427      1.0  0.55180  0.66475  0.68227  1.0000
  S   S428      1.0  0.51900  0.66041  0.66895  1.0000
  H   H2556     1.0  0.60317  0.71986  0.68465  1.0000
  Fe  Fe216     1.0  0.64733  0.55256  0.70819  1.0000
  S   S429      1.0  0.62364  0.57025  0.70099  1.0000
  S   S430      1.0  0.66728  0.56203  0.71578  1.0000
  Fe  Fe217     1.0  0.63713  0.52069  0.70392  1.0000
  S   S431      1.0  0.61237  0.53602  0.69698  1.0000
  H   H2557     1.0  0.77111  0.64042  0.69021  1.0000
  C   C3196     1.0  0.55416  0.69162  0.77229  1.0000
  Fe  Fe218     1.0  0.60995  0.54971  0.71797  1.0000
  S   S432      1.0  0.58414  0.55979  0.73373  1.0000
  C   C3197     1.0  0.53370  0.53240  0.66628  1.0000
  S   S433      1.0  0.63349  0.53258  0.72679  1.0000
  Fe  Fe219     1.0  0.66629  0.68188  0.69241  1.0000
  S   S434      1.0  0.64318  0.67040  0.70627  1.0000
  H   H2558     1.0  0.68140  0.64744  0.76742  1.0000
  Fe  Fe220     1.0  0.67091  0.69187  0.72482  1.0000
  S   S435      1.0  0.64807  0.68071  0.74120  1.0000
  S   S436      1.0  0.68934  0.70620  0.73010  1.0000
  Fe  Fe221     1.0  0.65794  0.65858  0.72726  1.0000
  S   S437      1.0  0.65864  0.63091  0.74183  1.0000
  Fe  Fe222     1.0  0.63478  0.69303  0.71895  1.0000
  S   S438      1.0  0.60715  0.70784  0.72291  1.0000
  S   S439      1.0  0.68179  0.66858  0.71266  1.0000
  S   S440      1.0  0.65681  0.70573  0.70343  1.0000
  C   C3198     1.0  0.83158  0.69980  0.85570  1.0000
  C   C3199     1.0  0.51473  0.55901  0.67234  1.0000
  C   C3200     1.0  0.55831  0.67648  0.76610  1.0000
  C   C3201     1.0  0.62885  0.52036  0.65570  1.0000
  C   C3202     1.0  0.82879  0.70515  0.77912  1.0000
  C   C3203     1.0  0.69641  0.71305  0.74569  1.0000
  C   C3204     1.0  0.68852  0.71047  0.76323  1.0000
  S   S441      1.0  0.61977  0.56743  0.65538  1.0000
  C   C3205     1.0  0.53703  0.69835  0.77922  1.0000
  H   H2559     1.0  0.80486  0.71542  0.83371  1.0000
  C   C3206     1.0  0.57825  0.55241  0.66171  1.0000
  H   H2560     1.0  0.49619  0.49506  0.72271  1.0000
  H   H2561     1.0  0.82850  0.71292  0.85737  1.0000
  C   C3207     1.0  0.66444  0.58211  0.72155  1.0000
  C   C3208     1.0  0.65174  0.59660  0.71703  1.0000
  C   C3209     1.0  0.65023  0.61209  0.72237  1.0000
  C   C3210     1.0  0.66122  0.61298  0.73248  1.0000
  C   C3211     1.0  0.67379  0.59848  0.73687  1.0000
  C   C3212     1.0  0.67563  0.58336  0.73115  1.0000
  H   H2562     1.0  0.64313  0.59586  0.70948  1.0000
  H   H2563     1.0  0.64027  0.62312  0.71913  1.0000
  H   H2564     1.0  0.68216  0.59888  0.74484  1.0000
  H   H2565     1.0  0.68547  0.57232  0.73467  1.0000
  H   H2566     1.0  0.86437  0.70825  0.84511  1.0000
  P   P106      1.0  0.73726  0.65452  0.70962  1.0000
  H   H2567     1.0  0.65058  0.51209  0.66787  1.0000
  H   H2568     1.0  0.50933  0.69811  0.75078  1.0000
  C   C3213     1.0  0.89352  0.72860  0.81480  1.0000
  H   H2569     1.0  0.60792  0.50096  0.70775  1.0000
  C   C3214     1.0  0.84415  0.69569  0.77114  1.0000
  H   H2570     1.0  0.84474  0.69176  0.75938  1.0000
  H   H2571     1.0  0.86943  0.69359  0.79852  1.0000
  C   C3215     1.0  0.86193  0.71945  0.81868  1.0000
  H   H2572     1.0  0.76664  0.70381  0.68572  1.0000
  C   C3216     1.0  0.80315  0.73343  0.89846  1.0000
  C   C3217     1.0  0.60778  0.64946  0.67785  1.0000
  C   C3218     1.0  0.72396  0.65553  0.68125  1.0000
  H   H2573     1.0  0.55967  0.54566  0.70443  1.0000
  H   H2574     1.0  0.89100  0.71823  0.88788  1.0000
  C   C3219     1.0  0.49607  0.66532  0.79495  1.0000
  H   H2575     1.0  0.57152  0.67167  0.76008  1.0000
  C   C3220     1.0  0.52808  0.67474  0.77367  1.0000
  H   H2576     1.0  0.69269  0.62489  0.75011  1.0000
  C   C3221     1.0  0.55934  0.60308  0.69495  1.0000
  C   C3222     1.0  0.57349  0.59075  0.68946  1.0000
  C   C3223     1.0  0.58066  0.57737  0.70145  1.0000
  C   C3224     1.0  0.57397  0.57627  0.71908  1.0000
  C   C3225     1.0  0.55963  0.58856  0.72469  1.0000
  C   C3226     1.0  0.55232  0.60208  0.71258  1.0000
  H   H2577     1.0  0.57906  0.59152  0.67586  1.0000
  H   H2578     1.0  0.59141  0.56789  0.69685  1.0000
  H   H2579     1.0  0.55441  0.58773  0.73832  1.0000
  H   H2580     1.0  0.54129  0.61166  0.71675  1.0000
  C   C3227     1.0  0.55991  0.68842  0.72191  1.0000
  C   C3228     1.0  0.57643  0.67991  0.71483  1.0000
  C   C3229     1.0  0.59115  0.68568  0.71490  1.0000
  C   C3230     1.0  0.58937  0.70018  0.72167  1.0000
  C   C3231     1.0  0.57284  0.70897  0.72803  1.0000
  C   C3232     1.0  0.55827  0.70301  0.72837  1.0000
  H   H2581     1.0  0.57794  0.66862  0.70979  1.0000
  H   H2582     1.0  0.60384  0.67882  0.70993  1.0000
  H   H2583     1.0  0.57130  0.72020  0.73322  1.0000
  H   H2584     1.0  0.54565  0.70955  0.73404  1.0000
  C   C3233     1.0  0.54534  0.66809  0.76677  1.0000
  C   C3234     1.0  0.50184  0.62013  0.69215  1.0000
  C   C3235     1.0  0.73915  0.71197  0.68872  1.0000
  C   C3236     1.0  0.86746  0.68342  0.88706  1.0000
  C   C3237     1.0  0.88543  0.68025  0.88352  1.0000
  C   C3238     1.0  0.89384  0.69282  0.88388  1.0000
  C   C3239     1.0  0.88428  0.70862  0.88765  1.0000
  C   C3240     1.0  0.86621  0.71203  0.89092  1.0000
  C   C3241     1.0  0.85786  0.69921  0.89085  1.0000
  H   H2585     1.0  0.60993  0.63579  0.68297  1.0000
  H   H2586     1.0  0.74770  0.64416  0.74306  1.0000
  H   H2587     1.0  0.68867  0.54728  0.68160  1.0000
  C   C3242     1.0  0.75725  0.64310  0.71603  1.0000
  H   H2588     1.0  0.54882  0.65683  0.76130  1.0000
  P   P107      1.0  0.84185  0.71328  0.82073  1.0000
  C   C3243     1.0  0.71046  0.72143  0.74020  1.0000
  C   C3244     1.0  0.62130  0.62055  0.65376  1.0000
  C   C3245     1.0  0.56598  0.70882  0.67690  1.0000
  C   C3246     1.0  0.73813  0.67699  0.70135  1.0000
  C   C3247     1.0  0.64613  0.51843  0.65608  1.0000
  C   C3248     1.0  0.80726  0.72832  0.83032  1.0000
  H   H2589     1.0  0.71676  0.72352  0.72673  1.0000
  Fe  Fe223     1.0  0.62784  0.55526  0.68053  1.0000
  C   C3249     1.0  0.86044  0.72367  0.94475  1.0000
  H   H2590     1.0  0.89213  0.71632  0.84149  1.0000
  C   C3250     1.0  0.71648  0.72714  0.75195  1.0000
  H   H2591     1.0  0.86094  0.67363  0.88689  1.0000
  H   H2592     1.0  0.89286  0.66802  0.88059  1.0000
  H   H2593     1.0  0.90778  0.69035  0.88123  1.0000
  H   H2594     1.0  0.76595  0.67318  0.69665  1.0000
  H   H2595     1.0  0.84395  0.70138  0.89363  1.0000
  C   C3251     1.0  0.68441  0.57418  0.66989  1.0000
  H   H2596     1.0  0.81751  0.70871  0.77351  1.0000
  C   C3252     1.0  0.52479  0.56847  0.65841  1.0000
  H   H2597     1.0  0.54335  0.61837  0.74275  1.0000
  C   C3253     1.0  0.82407  0.73125  0.82361  1.0000
  H   H2598     1.0  0.71707  0.62763  0.72533  1.0000
  H   H2599     1.0  0.56801  0.69518  0.67770  1.0000
  C   C3254     1.0  0.81902  0.73158  0.90264  1.0000
  C   C3255     1.0  0.56689  0.54275  0.69208  1.0000
  C   C3256     1.0  0.62789  0.72664  0.67719  1.0000
  H   H2600     1.0  0.82006  0.72680  0.91596  1.0000
  C   C3257     1.0  0.61453  0.72087  0.67443  1.0000
  H   H2601     1.0  0.77511  0.62883  0.75148  1.0000
  P   P108      1.0  0.51106  0.66410  0.77460  1.0000
  C   C3258     1.0  0.83849  0.69603  0.83924  1.0000
  C   C3259     1.0  0.50233  0.66185  0.81007  1.0000
  C   C3260     1.0  0.75395  0.68233  0.69594  1.0000
  C   C3261     1.0  0.78852  0.62582  0.72578  1.0000
  C   C3262     1.0  0.84240  0.67887  0.83742  1.0000
  C   C3263     1.0  0.83926  0.66574  0.85184  1.0000
  C   C3264     1.0  0.83216  0.66964  0.86814  1.0000
  C   C3265     1.0  0.82832  0.68668  0.87006  1.0000
  H   H2602     1.0  0.74725  0.61964  0.70265  1.0000
  C   C3266     1.0  0.74023  0.62789  0.69309  1.0000
  C   C3267     1.0  0.54738  0.73462  0.68544  1.0000
  C   C3268     1.0  0.61731  0.65929  0.68145  1.0000
  H   H2603     1.0  0.84768  0.67559  0.82490  1.0000
  H   H2604     1.0  0.84213  0.65254  0.85033  1.0000
  H   H2605     1.0  0.82946  0.65949  0.87925  1.0000
  H   H2606     1.0  0.82258  0.68979  0.88264  1.0000
  C   C3269     1.0  0.77178  0.63777  0.70366  1.0000
  C   C3270     1.0  0.57561  0.52599  0.69091  1.0000
  H   H2607     1.0  0.53380  0.71025  0.78376  1.0000
  H   H2608     1.0  0.79849  0.62499  0.69895  1.0000
  C   C3271     1.0  0.61531  0.64292  0.77767  1.0000
  C   C3272     1.0  0.61607  0.65763  0.76465  1.0000
  C   C3273     1.0  0.61257  0.65814  0.74880  1.0000
  C   C3274     1.0  0.60802  0.64403  0.74599  1.0000
  C   C3275     1.0  0.60673  0.62938  0.75923  1.0000
  C   C3276     1.0  0.61060  0.62887  0.77501  1.0000
  P   P109      1.0  0.59792  0.61223  0.75727  1.0000
  C   C3277     1.0  0.59055  0.61782  0.73731  1.0000
  C   C3278     1.0  0.61336  0.59204  0.75838  1.0000
  C   C3279     1.0  0.60928  0.57768  0.75541  1.0000
  C   C3280     1.0  0.62101  0.56199  0.75624  1.0000
  C   C3281     1.0  0.63711  0.56054  0.75967  1.0000
  C   C3282     1.0  0.64133  0.57475  0.76257  1.0000
  C   C3283     1.0  0.62958  0.59049  0.76182  1.0000
  C   C3284     1.0  0.59941  0.60946  0.72365  1.0000
  C   C3285     1.0  0.59345  0.61379  0.70837  1.0000
  C   C3286     1.0  0.57906  0.62694  0.70632  1.0000
  C   C3287     1.0  0.57037  0.63553  0.71968  1.0000
  C   C3288     1.0  0.57609  0.63102  0.73511  1.0000
  C   C3289     1.0  0.57947  0.61088  0.77508  1.0000
  C   C3290     1.0  0.57510  0.59502  0.78394  1.0000
  C   C3291     1.0  0.56159  0.59419  0.79844  1.0000
  C   C3292     1.0  0.55230  0.60916  0.80422  1.0000
  C   C3293     1.0  0.55633  0.62501  0.79534  1.0000
  C   C3294     1.0  0.56984  0.62587  0.78088  1.0000
  H   H2609     1.0  0.61837  0.64244  0.78982  1.0000
  H   H2610     1.0  0.61951  0.66861  0.76678  1.0000
  H   H2611     1.0  0.61344  0.66950  0.73868  1.0000
  H   H2612     1.0  0.60535  0.64478  0.73360  1.0000
  H   H2613     1.0  0.60971  0.61766  0.78535  1.0000
  H   H2614     1.0  0.59708  0.57865  0.75218  1.0000
  H   H2615     1.0  0.61764  0.55106  0.75394  1.0000
  H   H2616     1.0  0.64646  0.54852  0.75964  1.0000
  H   H2617     1.0  0.65397  0.57372  0.76483  1.0000
  H   H2618     1.0  0.63351  0.60144  0.76340  1.0000
  H   H2619     1.0  0.61091  0.59959  0.72464  1.0000
  H   H2620     1.0  0.60002  0.60697  0.69807  1.0000
  H   H2621     1.0  0.57461  0.63040  0.69437  1.0000
  H   H2622     1.0  0.55923  0.64576  0.71803  1.0000
  H   H2623     1.0  0.56933  0.63800  0.74517  1.0000
  H   H2624     1.0  0.58215  0.58319  0.77999  1.0000
  H   H2625     1.0  0.55845  0.58187  0.80525  1.0000
  H   H2626     1.0  0.54193  0.60846  0.81551  1.0000
  H   H2627     1.0  0.54911  0.63666  0.79972  1.0000
  H   H2628     1.0  0.57301  0.63823  0.77443  1.0000
  H   H2629     1.0  0.87266  0.71262  0.92252  1.0000
  C   C3295     1.0  0.52918  0.63816  0.75676  1.0000
  C   C3296     1.0  0.85874  0.69153  0.77821  1.0000
  C   C3297     1.0  0.69452  0.71619  0.77496  1.0000
  C   C3298     1.0  0.62868  0.60477  0.66285  1.0000
  P   P110      1.0  0.51975  0.59174  0.65432  1.0000
  H   H2630     1.0  0.81606  0.71836  0.79962  1.0000
  C   C3299     1.0  0.52403  0.68996  0.77992  1.0000
  H   H2631     1.0  0.62658  0.65318  0.68955  1.0000
  H   H2632     1.0  0.50366  0.56558  0.68038  1.0000
  H   H2633     1.0  0.62108  0.59501  0.66856  1.0000
  C   C3300     1.0  0.88587  0.71962  0.83069  1.0000
  H   H2634     1.0  0.53062  0.57554  0.68725  1.0000
  H   H2635     1.0  0.49673  0.49988  0.69157  1.0000
  H   H2636     1.0  0.67594  0.57781  0.68145  1.0000
  C   C3301     1.0  0.50523  0.61493  0.67650  1.0000
  H   H2637     1.0  0.74256  0.60729  0.68043  1.0000
  C   C3302     1.0  0.59603  0.65714  0.66715  1.0000
  H   H2638     1.0  0.86913  0.71504  0.95258  1.0000
  C   C3303     1.0  0.84265  0.70660  0.80122  1.0000
  H   H2639     1.0  0.56169  0.56889  0.67846  1.0000
  C   C3304     1.0  0.67823  0.63586  0.69109  1.0000
  C   C3305     1.0  0.50851  0.60920  0.70598  1.0000
  H   H2640     1.0  0.50620  0.61348  0.71793  1.0000
  C   C3306     1.0  0.69471  0.60381  0.68333  1.0000
  H   H2641     1.0  0.87069  0.68431  0.77194  1.0000
  C   C3307     1.0  0.52219  0.58783  0.68850  1.0000
  H   H2642     1.0  0.80057  0.61913  0.72957  1.0000
  C   C3308     1.0  0.51955  0.64194  0.77266  1.0000
  H   H2643     1.0  0.51079  0.69550  0.78506  1.0000
  C   C3309     1.0  0.51519  0.59857  0.67460  1.0000
  H   H2644     1.0  0.66444  0.63903  0.67142  1.0000
  H   H2645     1.0  0.62226  0.68434  0.67783  1.0000
  H   H2646     1.0  0.72723  0.73355  0.74743  1.0000
  C   C3310     1.0  0.50138  0.69111  0.74789  1.0000
  C   C3311     1.0  0.82803  0.71065  0.79406  1.0000
  C   C3312     1.0  0.55042  0.71703  0.68591  1.0000
  H   H2647     1.0  0.73945  0.72548  0.68408  1.0000
  C   C3313     1.0  0.70853  0.72461  0.76949  1.0000
  C   C3314     1.0  0.51868  0.59304  0.70416  1.0000
  C   C3315     1.0  0.85799  0.69688  0.79323  1.0000
  S   S442      1.0  0.68117  0.68233  0.66488  1.0000
  H   H2648     1.0  0.53171  0.64841  0.74571  1.0000
  H   H2649     1.0  0.56420  0.69836  0.77126  1.0000
  C   C3316     1.0  0.53213  0.60769  0.76886  1.0000
  H   H2650     1.0  0.52439  0.58482  0.71469  1.0000
  H   H2651     1.0  0.67770  0.70414  0.76777  1.0000
  H   H2652     1.0  0.79204  0.73070  0.90850  1.0000
  C   C3317     1.0  0.72291  0.68937  0.70006  1.0000
  S   S443      1.0  0.65310  0.53921  0.68591  1.0000
  S   S444      1.0  0.64531  0.49236  0.70267  1.0000
  H   H2653     1.0  0.65364  0.73115  0.66701  1.0000
  H   H2654     1.0  0.55177  0.59498  0.66080  1.0000
  H   H2655     1.0  0.70172  0.59158  0.68022  1.0000
  C   C3318     1.0  0.78733  0.62910  0.70855  1.0000
  C   C3319     1.0  0.73373  0.64542  0.69336  1.0000
  C   C3320     1.0  0.53564  0.62113  0.75497  1.0000
  P   P111      1.0  0.85396  0.73271  0.89513  1.0000
  H   H2656     1.0  0.67234  0.64846  0.69363  1.0000
  H   H2657     1.0  0.69507  0.67273  0.76019  1.0000
  C   C3321     1.0  0.69239  0.64854  0.75679  1.0000
  C   C3322     1.0  0.69875  0.63584  0.74698  1.0000
  H   H2658     1.0  0.53736  0.51849  0.66950  1.0000
  C   C3323     1.0  0.72341  0.70675  0.69386  1.0000
  C   C3324     1.0  0.70006  0.66276  0.75271  1.0000
  C   C3325     1.0  0.69039  0.62515  0.70026  1.0000
  H   H2659     1.0  0.69329  0.62929  0.71043  1.0000
  H   H2660     1.0  0.51606  0.65846  0.80956  1.0000
  H   H2661     1.0  0.65359  0.66928  0.65815  1.0000
  C   C3326     1.0  0.67380  0.63042  0.67846  1.0000
  C   C3327     1.0  0.56811  0.55588  0.67745  1.0000
  C   C3328     1.0  0.71251  0.63753  0.73284  1.0000
  H   H2662     1.0  0.71054  0.68567  0.70417  1.0000
  H   H2663     1.0  0.65140  0.58868  0.67042  1.0000
  C   C3329     1.0  0.73753  0.62080  0.68057  1.0000
  H   H2664     1.0  0.72584  0.62549  0.65882  1.0000
  C   C3330     1.0  0.83322  0.73598  0.88977  1.0000
  H   H2665     1.0  0.50805  0.63081  0.79882  1.0000
  H   H2666     1.0  0.58877  0.64947  0.66413  1.0000
  C   C3331     1.0  0.69171  0.55684  0.67000  1.0000
  C   C3332     1.0  0.61487  0.67694  0.67467  1.0000
  C   C3333     1.0  0.69847  0.60901  0.69654  1.0000
  C   C3334     1.0  0.51919  0.54106  0.67627  1.0000
  H   H2667     1.0  0.70768  0.60056  0.70387  1.0000
  C   C3335     1.0  0.64597  0.60130  0.66391  1.0000
  C   C3336     1.0  0.71388  0.66446  0.73862  1.0000
  C   C3337     1.0  0.58703  0.53556  0.66034  1.0000
  C   C3338     1.0  0.68222  0.61447  0.67425  1.0000
  C   C3339     1.0  0.75860  0.63991  0.73330  1.0000
  C   C3340     1.0  0.75442  0.69976  0.68969  1.0000
  H   H2668     1.0  0.71822  0.66890  0.68140  1.0000
  C   C3341     1.0  0.72808  0.63104  0.66840  1.0000
  C   C3342     1.0  0.58566  0.52241  0.67515  1.0000
  C   C3343     1.0  0.71994  0.65206  0.72832  1.0000
  C   C3344     1.0  0.72118  0.64836  0.66884  1.0000
  C   C3345     1.0  0.77417  0.63126  0.73813  1.0000
  C   C3346     1.0  0.61260  0.48941  0.70261  1.0000
  H   H2669     1.0  0.51159  0.53387  0.68727  1.0000
  H   H2670     1.0  0.59264  0.50941  0.67458  1.0000
  H   H2671     1.0  0.71146  0.71616  0.69340  1.0000
  H   H2672     1.0  0.71949  0.67569  0.73566  1.0000
  C   C3347     1.0  0.64307  0.72718  0.66464  1.0000
  C   C3348     1.0  0.86969  0.72852  0.80279  1.0000
  H   H2673     1.0  0.71345  0.65626  0.65969  1.0000
  H   H2674     1.0  0.57501  0.51591  0.70239  1.0000
  H   H2675     1.0  0.54082  0.70965  0.69345  1.0000
  H   H2676     1.0  0.62039  0.51527  0.66731  1.0000
  H   H2677     1.0  0.50016  0.62387  0.66598  1.0000
  C   C3349     1.0  0.85115  0.73351  0.91749  1.0000
  C   C3350     1.0  0.57864  0.71817  0.66727  1.0000
  P   P112      1.0  0.59904  0.70772  0.65588  1.0000
  C   C3351     1.0  0.51583  0.62836  0.78654  1.0000
  C   C3352     1.0  0.52204  0.61130  0.78458  1.0000
  C   C3353     1.0  0.60293  0.68483  0.66408  1.0000
  H   H2678     1.0  0.86348  0.73237  0.79189  1.0000
  H   H2679     1.0  0.62658  0.73021  0.68933  1.0000
  H   H2680     1.0  0.69805  0.63713  0.65006  1.0000
  H   H2681     1.0  0.49433  0.71142  0.72686  1.0000
  C   C3354     1.0  0.87010  0.71509  0.83268  1.0000
  C   C3355     1.0  0.50024  0.67432  0.75698  1.0000
  C   C3356     1.0  0.61608  0.71598  0.65887  1.0000
  C   C3357     1.0  0.86237  0.72230  0.92770  1.0000
  C   C3358     1.0  0.59369  0.67476  0.66018  1.0000
  H   H2682     1.0  0.51914  0.60085  0.79528  1.0000
  H   H2683     1.0  0.53717  0.59448  0.76741  1.0000
  H   H2684     1.0  0.57949  0.56305  0.65084  1.0000
  H   H2685     1.0  0.68820  0.71412  0.78843  1.0000
  H   H2686     1.0  0.49433  0.63284  0.69344  1.0000
  S   S445      1.0  0.75593  0.73427  0.80278  1.0000
  H   H2687     1.0  0.60812  0.62288  0.65232  1.0000
  P   P113      1.0  0.67886  0.60924  0.65559  1.0000
  C   C3359     1.0  0.65596  0.61387  0.65618  1.0000
  C   C3360     1.0  0.49289  0.69872  0.73426  1.0000
  H   H2688     1.0  0.73077  0.73490  0.88292  1.0000
  C   C3361     1.0  0.68823  0.58683  0.65512  1.0000
  H   H2689     1.0  0.70836  0.53843  0.65533  1.0000
  C   C3362     1.0  0.70284  0.55190  0.65526  1.0000
  H   H2690     1.0  0.49581  0.66013  0.83754  1.0000
  S   S446      1.0  0.71520  0.73181  0.78513  1.0000
  C   C3363     1.0  0.88544  0.73299  0.80085  1.0000
  H   H2691     1.0  0.90553  0.73249  0.81333  1.0000
  H   H2692     1.0  0.57624  0.50691  0.65595  1.0000
  H   H2693     1.0  0.49162  0.57653  0.65256  1.0000
  C   C3364     1.0  0.57542  0.73589  0.66675  1.0000
  H   H2694     1.0  0.58730  0.48679  0.70223  1.0000
  H   H2695     1.0  0.58448  0.68058  0.65196  1.0000
  C   C3365     1.0  0.49091  0.66277  0.82593  1.0000
  C   C3366     1.0  0.84739  0.73627  0.95168  1.0000
  H   H2696     1.0  0.78545  0.79740  0.26855  1.0000
  C   C3367     1.0  0.67607  0.79711  0.26960  1.0000
  C   C3368     1.0  0.66153  0.74020  0.27374  1.0000
  C   C3369     1.0  0.82044  0.81130  0.13117  1.0000
  C   C3370     1.0  0.97824  0.78080  0.22118  1.0000
  S   S447      1.0  0.96540  0.82989  0.18505  1.0000
  C   C3371     1.0  0.79961  0.75958  0.05554  1.0000
  Fe  Fe224     1.0  0.89578  0.78517  0.12877  1.0000
  S   S448      1.0  0.87417  0.79195  0.15080  1.0000
  S   S449      1.0  0.89076  0.78001  0.10511  1.0000
  Fe  Fe225     1.0  0.92357  0.78375  0.14752  1.0000
  S   S450      1.0  0.90422  0.79019  0.17100  1.0000
  S   S451      1.0  0.95192  0.77830  0.14740  1.0000
  Fe  Fe226     1.0  0.89023  0.77184  0.16743  1.0000
  C   C3372     1.0  0.77225  0.79000  0.99893  1.0000
  Fe  Fe227     1.0  0.89020  0.80960  0.15216  1.0000
  S   S452      1.0  0.87985  0.83593  0.15772  1.0000
  S   S453      1.0  0.91086  0.76365  0.14542  1.0000
  S   S454      1.0  0.91049  0.80464  0.12874  1.0000
  Fe  Fe228     1.0  0.77729  0.91932  0.15947  1.0000
  S   S455      1.0  0.79447  0.89505  0.17007  1.0000
  S   S456      1.0  0.78393  0.94558  0.15250  1.0000
  Fe  Fe229     1.0  0.75297  0.90016  0.15400  1.0000
  S   S457      1.0  0.76781  0.87440  0.16422  1.0000
  S   S458      1.0  0.72971  0.90239  0.14366  1.0000
  Fe  Fe230     1.0  0.76991  0.88655  0.18465  1.0000
  S   S459      1.0  0.76895  0.86996  0.21119  1.0000
  Fe  Fe231     1.0  0.79099  0.88475  0.14884  1.0000
  S   S460      1.0  0.81063  0.86808  0.13223  1.0000
  S   S461      1.0  0.75274  0.91182  0.17597  1.0000
  S   S462      1.0  0.77597  0.90969  0.13682  1.0000
  Fe  Fe232     1.0  0.77892  0.76586  0.22418  1.0000
  S   S463      1.0  0.75605  0.77343  0.24474  1.0000
  S   S464      1.0  0.76913  0.77585  0.98768  1.0000
  Fe  Fe233     1.0  0.75690  0.75686  0.20464  1.0000
  S   S465      1.0  0.73252  0.76404  0.22361  1.0000
  C   C3373     1.0  0.66720  0.78389  0.27834  1.0000
  Fe  Fe234     1.0  0.74312  0.78672  0.22277  1.0000
  S   S466      1.0  0.72612  0.81297  0.22184  1.0000
  Fe  Fe235     1.0  0.74766  0.75003  0.24373  1.0000
  C   C3374     1.0  0.78769  0.98013  0.17746  1.0000
  S   S467      1.0  0.76642  0.78084  0.20199  1.0000
  H   H2697     1.0  0.89990  0.85317  0.18466  1.0000
  Fe  Fe236     1.0  0.78529  0.81936  0.05463  1.0000
  S   S468      1.0  0.76289  0.81224  0.07513  1.0000
  S   S469      1.0  0.78692  0.82439  0.02599  1.0000
  Fe  Fe237     1.0  0.80339  0.82414  0.08034  1.0000
  S   S470      1.0  0.78226  0.81776  0.10320  1.0000
  S   S471      1.0  0.82639  0.83334  0.08165  1.0000
  Fe  Fe238     1.0  0.78249  0.79659  0.09066  1.0000
  S   S472      1.0  0.78117  0.76917  0.10422  1.0000
  Fe  Fe239     1.0  0.76437  0.83399  0.08609  1.0000
  S   S473      1.0  0.73923  0.85187  0.09405  1.0000
  S   S474      1.0  0.80506  0.80173  0.06896  1.0000
  S   S475      1.0  0.78535  0.84235  0.06438  1.0000
  C   C3375     1.0  0.82492  0.81809  0.17202  1.0000
  H   H2698     1.0  0.60354  0.77858  0.29672  1.0000
  C   C3376     1.0  0.78022  0.81123  0.01638  1.0000
  C   C3377     1.0  0.77688  0.79505  0.02519  1.0000
  C   C3378     1.0  0.77292  0.78445  0.01644  1.0000
  C   C3379     1.0  0.81368  0.75326  0.02235  1.0000
  C   C3380     1.0  0.85896  0.75615  0.01736  1.0000
  H   H2699     1.0  0.65357  0.78725  0.28355  1.0000
  H   H2700     1.0  0.77764  0.79064  0.03860  1.0000
  H   H2701     1.0  0.77053  0.77189  0.02318  1.0000
  C   C3381     1.0  0.87254  0.97881  0.09166  1.0000
  H   H2702     1.0  0.82914  0.86992  0.08624  1.0000
  C   C3382     1.0  0.76211  0.75188  0.16243  1.0000
  C   C3383     1.0  0.76614  0.76822  0.15600  1.0000
  C   C3384     1.0  0.77181  0.77389  0.13808  1.0000
  C   C3385     1.0  0.77377  0.76314  0.12670  1.0000
  C   C3386     1.0  0.93075  0.76025  0.19358  1.0000
  C   C3387     1.0  0.85567  0.85971  0.20832  1.0000
  H   H2703     1.0  0.76467  0.77654  0.16474  1.0000
  H   H2704     1.0  0.77477  0.78653  0.13308  1.0000
  C   C3388     1.0  0.82982  0.87253  0.19712  1.0000
  C   C3389     1.0  0.91809  0.81027  0.21356  1.0000
  H   H2705     1.0  0.81845  0.76334  0.08150  1.0000
  C   C3390     1.0  0.77475  0.80650  0.99049  1.0000
  H   H2706     1.0  0.71629  0.77308  0.25935  1.0000
  C   C3391     1.0  0.61361  0.77098  0.30342  1.0000
  H   H2707     1.0  0.97878  0.83111  0.10383  1.0000
  H   H2708     1.0  0.84709  0.81070  0.12936  1.0000
  H   H2709     1.0  0.87654  0.98182  0.07776  1.0000
  C   C3392     1.0  0.83429  0.73805  0.08696  1.0000
  C   C3393     1.0  0.92334  0.74654  0.20379  1.0000
  C   C3394     1.0  0.73309  0.88845  0.12956  1.0000
  C   C3395     1.0  0.71902  0.88705  0.12393  1.0000
  C   C3396     1.0  0.72114  0.87576  0.11307  1.0000
  C   C3397     1.0  0.73739  0.86594  0.10754  1.0000
  C   C3398     1.0  0.75159  0.86749  0.11290  1.0000
  C   C3399     1.0  0.74943  0.87866  0.12403  1.0000
  H   H2710     1.0  0.70638  0.89455  0.12815  1.0000
  H   H2711     1.0  0.71014  0.87462  0.10893  1.0000
  H   H2712     1.0  0.76418  0.86001  0.10853  1.0000
  H   H2713     1.0  0.76042  0.87972  0.12825  1.0000
  C   C3400     1.0  0.75724  0.85406  0.21373  1.0000
  C   C3401     1.0  0.76290  0.83723  0.22227  1.0000
  C   C3402     1.0  0.75358  0.82449  0.22449  1.0000
  C   C3403     1.0  0.73821  0.82868  0.21865  1.0000
  C   C3404     1.0  0.73253  0.84551  0.21007  1.0000
  C   C3405     1.0  0.74219  0.85811  0.20736  1.0000
  H   H2714     1.0  0.77465  0.83398  0.22693  1.0000
  H   H2715     1.0  0.75814  0.81151  0.23096  1.0000
  H   H2716     1.0  0.72081  0.84875  0.20528  1.0000
  H   H2717     1.0  0.73783  0.87104  0.20060  1.0000
  C   C3406     1.0  0.83759  0.80315  0.13117  1.0000
  C   C3407     1.0  0.78500  0.95495  0.16896  1.0000
  C   C3408     1.0  0.78361  0.94597  0.18605  1.0000
  C   C3409     1.0  0.78436  0.95411  0.19881  1.0000
  H   H2718     1.0  0.78195  0.93282  0.18942  1.0000
  H   H2719     1.0  0.78346  0.94713  0.21200  1.0000
  C   C3410     1.0  0.86104  0.84531  0.15004  1.0000
  C   C3411     1.0  0.84977  0.85919  0.15645  1.0000
  C   C3412     1.0  0.83429  0.86640  0.15091  1.0000
  C   C3413     1.0  0.83026  0.85995  0.13869  1.0000
  C   C3414     1.0  0.84199  0.84668  0.13159  1.0000
  C   C3415     1.0  0.85726  0.83912  0.13748  1.0000
  H   H2720     1.0  0.85290  0.86416  0.16591  1.0000
  H   H2721     1.0  0.82560  0.87697  0.15602  1.0000
  H   H2722     1.0  0.83909  0.84215  0.12170  1.0000
  H   H2723     1.0  0.86626  0.82878  0.13205  1.0000
  C   C3416     1.0  0.87327  0.79485  0.09777  1.0000
  C   C3417     1.0  0.87071  0.81220  0.09815  1.0000
  C   C3418     1.0  0.85639  0.82387  0.09287  1.0000
  C   C3419     1.0  0.84427  0.81821  0.08776  1.0000
  C   C3420     1.0  0.84674  0.80082  0.08747  1.0000
  C   C3421     1.0  0.86148  0.78923  0.09203  1.0000
  H   H2724     1.0  0.87969  0.81661  0.10263  1.0000
  H   H2725     1.0  0.85430  0.83726  0.09330  1.0000
  H   H2726     1.0  0.83736  0.79637  0.08363  1.0000
  H   H2727     1.0  0.86340  0.77583  0.09168  1.0000
  H   H2728     1.0  0.58613  0.75318  0.29691  1.0000
  H   H2729     1.0  0.83010  0.93295  0.03017  1.0000
  H   H2730     1.0  0.98996  0.77936  0.09534  1.0000
  H   H2731     1.0  0.80275  0.92049  0.09547  1.0000
  H   H2732     1.0  0.77525  0.91380  0.09550  1.0000
  C   C3422     1.0  0.84592  0.76523  0.19161  1.0000
  H   H2733     1.0  0.88680  0.82785  0.19035  1.0000
  H   H2734     1.0  0.98557  0.79699  0.17758  1.0000
  H   H2735     1.0  0.81847  0.77475  0.19374  1.0000
  C   C3423     1.0  0.82980  0.97791  0.17967  1.0000
  C   C3424     1.0  0.96224  0.81549  0.17428  1.0000
  C   C3425     1.0  0.94730  0.81939  0.16774  1.0000
  C   C3426     1.0  0.94418  0.80806  0.15938  1.0000
  C   C3427     1.0  0.95606  0.79276  0.15743  1.0000
  C   C3428     1.0  0.97106  0.78881  0.16391  1.0000
  C   C3429     1.0  0.97415  0.80015  0.17236  1.0000
  H   H2736     1.0  0.93815  0.83131  0.16899  1.0000
  H   H2737     1.0  0.93260  0.81127  0.15437  1.0000
  H   H2738     1.0  0.78939  0.75003  0.26623  1.0000
  C   C3430     1.0  0.74881  0.94439  0.22778  1.0000
  H   H2739     1.0  0.81665  0.82521  0.12924  1.0000
  C   C3431     1.0  0.80815  0.80146  0.13388  1.0000
  C   C3432     1.0  0.81638  0.75049  0.16976  1.0000
  C   C3433     1.0  0.84533  0.91252  0.06659  1.0000
  C   C3434     1.0  0.82037  0.81842  0.20233  1.0000
  H   H2740     1.0  0.82195  0.83313  0.02044  1.0000
  H   H2741     1.0  0.88215  0.85042  0.07519  1.0000
  H   H2742     1.0  0.74881  0.97374  0.15368  1.0000
  C   C3435     1.0  0.85021  0.84409  0.21449  1.0000
  C   C3436     1.0  0.64350  0.75640  0.30265  1.0000
  H   H2743     1.0  0.86789  0.86076  0.21012  1.0000
  H   H2744     1.0  0.78566  0.83767  0.15918  1.0000
  C   C3437     1.0  0.87986  0.96309  0.10105  1.0000
  C   C3438     1.0  0.83040  0.80678  0.01761  1.0000
  H   H2745     1.0  0.87253  0.80869  0.26976  1.0000
  C   C3439     1.0  0.82442  0.85688  0.20304  1.0000
  C   C3440     1.0  0.84545  0.87394  0.19970  1.0000
  H   H2746     1.0  0.74522  0.80036  0.13609  1.0000
  C   C3441     1.0  0.63036  0.76628  0.29410  1.0000
  C   C3442     1.0  0.87218  0.74526  0.12685  1.0000
  C   C3443     1.0  0.95224  0.80871  0.09805  1.0000
  H   H2747     1.0  0.79477  0.80761  0.13444  1.0000
  P   P114      1.0  0.83932  0.77207  0.01571  1.0000
  H   H2748     1.0  0.92460  0.85116  0.19771  1.0000
  H   H2749     1.0  0.74470  0.79365  0.10880  1.0000
  H   H2750     1.0  0.89979  0.74007  0.11893  1.0000
  H   H2751     1.0  0.96778  0.80151  0.25438  1.0000
  C   C3444     1.0  0.76994  0.74680  0.13328  1.0000
  C   C3445     1.0  0.74435  0.95604  0.14121  1.0000
  C   C3446     1.0  0.82858  0.76795  0.20058  1.0000
  H   H2752     1.0  0.87041  0.75133  0.11392  1.0000
  C   C3447     1.0  0.74028  0.96557  0.15406  1.0000
  C   C3448     1.0  0.85649  0.92872  0.03228  1.0000
  C   C3449     1.0  0.76396  0.74129  0.15097  1.0000
  H   H2753     1.0  0.82194  0.88351  0.19034  1.0000
  H   H2754     1.0  0.70565  0.88327  0.16704  1.0000
  H   H2755     1.0  0.93602  0.82418  0.21611  1.0000
  C   C3450     1.0  0.72195  0.81306  0.10498  1.0000
  C   C3451     1.0  0.82969  0.93772  0.12609  1.0000
  C   C3452     1.0  0.84664  0.79995  0.24276  1.0000
  H   H2756     1.0  0.88219  0.76792  0.23838  1.0000
  C   C3453     1.0  0.83920  0.92767  0.03857  1.0000
  C   C3454     1.0  0.71973  0.94298  0.15515  1.0000
  H   H2757     1.0  0.77473  0.88588  0.08993  1.0000
  C   C3455     1.0  0.89007  0.74906  0.01418  1.0000
  H   H2758     1.0  0.92947  0.76892  0.26132  1.0000
  H   H2759     1.0  0.90226  0.75313  0.01070  1.0000
  H   H2760     1.0  0.74770  0.92215  0.21926  1.0000
  H   H2761     1.0  0.71633  0.76324  0.18130  1.0000
  H   H2762     1.0  0.87544  0.77474  0.00812  1.0000
  C   C3456     1.0  0.72578  0.96398  0.16750  1.0000
  C   C3457     1.0  0.82288  0.92289  0.13140  1.0000
  S   S476      1.0  0.78576  0.98171  0.21083  1.0000
  H   H2763     1.0  0.83461  0.74978  0.24122  1.0000
  S   S477      1.0  0.77155  0.74122  0.22506  1.0000
  H   H2764     1.0  0.69145  0.74981  0.30779  1.0000
  C   C3458     1.0  0.90475  0.84136  0.19303  1.0000
  H   H2765     1.0  0.89421  0.84555  0.10110  1.0000
  H   H2766     1.0  0.78858  0.97876  0.15151  1.0000
  H   H2767     1.0  0.82719  0.94624  0.13494  1.0000
  C   C3459     1.0  0.83576  0.74711  0.11709  1.0000
  H   H2768     1.0  0.76601  0.82714  0.18637  1.0000
  C   C3460     1.0  0.78679  0.88863  0.09024  1.0000
  C   C3461     1.0  0.77896  0.81696  0.99908  1.0000
  C   C3462     1.0  0.73591  0.94565  0.20413  1.0000
  H   H2769     1.0  0.87194  0.90823  0.06837  1.0000
  C   C3463     1.0  0.86268  0.91367  0.06017  1.0000
  H   H2770     1.0  0.91072  0.76768  0.29037  1.0000
  C   C3464     1.0  0.98035  0.78750  0.23424  1.0000
  H   H2771     1.0  0.82406  0.97592  0.15643  1.0000
  C   C3465     1.0  0.78714  0.90443  0.09321  1.0000
  C   C3466     1.0  0.96393  0.79332  0.09600  1.0000
  C   C3467     1.0  0.84228  0.93070  0.09797  1.0000
  C   C3468     1.0  0.86222  0.97106  0.12757  1.0000
  P   P115      1.0  0.66473  0.74915  0.29027  1.0000
  C   C3469     1.0  0.84265  0.78531  0.13291  1.0000
  H   H2772     1.0  0.82353  0.96758  0.18757  1.0000
  C   C3470     1.0  0.70257  0.77613  0.26462  1.0000
  C   C3471     1.0  0.87201  0.77853  0.23481  1.0000
  C   C3472     1.0  0.81311  0.78365  0.13590  1.0000
  H   H2773     1.0  0.85609  0.77934  0.13222  1.0000
  C   C3473     1.0  0.86282  0.87251  0.08137  1.0000
  H   H2774     1.0  0.93888  0.81001  0.09774  1.0000
  H   H2775     1.0  0.84980  0.93397  0.08510  1.0000
  C   C3474     1.0  0.87074  0.78416  0.21757  1.0000
  C   C3475     1.0  0.83004  0.82077  0.02445  1.0000
  H   H2776     1.0  0.76847  0.82562  0.27484  1.0000
  C   C3476     1.0  0.83045  0.77550  0.13496  1.0000
  H   H2777     1.0  0.83870  0.82941  0.04266  1.0000
  H   H2778     1.0  0.73263  0.93893  0.19618  1.0000
  S   S478      1.0  0.80344  0.76706  0.23081  1.0000
  C   C3477     1.0  0.85478  0.75062  0.21841  1.0000
  C   C3478     1.0  0.73193  0.96368  0.20121  1.0000
  C   C3479     1.0  0.79233  0.74978  0.04901  1.0000
  C   C3480     1.0  0.83940  0.81866  0.03700  1.0000
  H   H2779     1.0  0.81921  0.77400  0.05066  1.0000
  H   H2780     1.0  0.80352  0.77616  0.13785  1.0000
  H   H2781     1.0  0.85768  0.87443  0.07002  1.0000
  C   C3481     1.0  0.91701  0.77760  0.26302  1.0000
  H   H2782     1.0  0.79385  0.76241  0.06825  1.0000
  C   C3482     1.0  0.87685  0.85903  0.08412  1.0000
  C   C3483     1.0  0.84929  0.78845  0.03617  1.0000
  H   H2783     1.0  0.85693  0.88839  0.11737  1.0000
  C   C3484     1.0  0.83361  0.91961  0.05565  1.0000
  C   C3485     1.0  0.82588  0.75427  0.09028  1.0000
  H   H2784     1.0  0.88224  0.78753  0.29469  1.0000
  H   H2785     1.0  0.71207  0.93387  0.15574  1.0000
  C   C3486     1.0  0.85903  0.75645  0.20058  1.0000
  C   C3487     1.0  0.84915  0.80254  0.04274  1.0000
  C   C3488     1.0  0.84015  0.79052  0.02329  1.0000
  H   H2786     1.0  0.88009  0.77804  0.20779  1.0000
  H   H2787     1.0  0.75586  0.95692  0.13117  1.0000
  C   C3489     1.0  0.81392  0.76624  0.04550  1.0000
  H   H2788     1.0  0.85623  0.80092  0.05261  1.0000
  C   C3490     1.0  0.87468  0.95922  0.11898  1.0000
  H   H2789     1.0  0.69950  0.76897  0.20983  1.0000
  H   H2790     1.0  0.95954  0.78270  0.09428  1.0000
  C   C3491     1.0  0.91851  0.75867  0.22892  1.0000
  H   H2791     1.0  0.83652  0.98321  0.20105  1.0000
  C   C3492     1.0  0.66224  0.98591  0.20711  1.0000
  P   P116      1.0  0.82736  0.82246  0.21965  1.0000
  C   C3493     1.0  0.67759  0.85854  0.16918  1.0000
  C   C3494     1.0  0.95771  0.82227  0.10081  1.0000
  C   C3495     1.0  0.92515  0.82479  0.21077  1.0000
  H   H2792     1.0  0.93679  0.78434  0.19264  1.0000
  H   H2793     1.0  0.84910  0.76975  0.17780  1.0000
  H   H2794     1.0  0.85835  0.83322  0.22106  1.0000
  C   C3496     1.0  0.89747  0.82704  0.19607  1.0000
  C   C3497     1.0  0.82099  0.76324  0.02879  1.0000
  C   C3498     1.0  0.91856  0.84024  0.20043  1.0000
  H   H2795     1.0  0.84969  0.88604  0.19487  1.0000
  C   C3499     1.0  0.73404  0.94483  0.14170  1.0000
  C   C3500     1.0  0.84489  0.80527  0.22552  1.0000
  C   C3501     1.0  0.89039  0.78803  0.28191  1.0000
  H   H2796     1.0  0.93537  0.76093  0.17986  1.0000
  C   C3502     1.0  0.87485  0.76127  0.01276  1.0000
  H   H2797     1.0  0.89851  0.80054  0.20817  1.0000
  C   C3503     1.0  0.88492  0.79995  0.26788  1.0000
  C   C3504     1.0  0.90418  0.81154  0.20617  1.0000
  H   H2798     1.0  0.85627  0.77594  0.04144  1.0000
  C   C3505     1.0  0.77416  0.83381  0.15880  1.0000
  H   H2799     1.0  0.77834  0.84068  0.13120  1.0000
  P   P117      1.0  0.83646  0.75255  0.13677  1.0000
  C   C3506     1.0  0.86822  0.92174  0.04308  1.0000
  H   H2800     1.0  0.66392  0.85893  0.17180  1.0000
  C   C3507     1.0  0.79941  0.74656  0.03244  1.0000
  H   H2801     1.0  0.81232  0.85596  0.20074  1.0000
  C   C3508     1.0  0.83449  0.84259  0.21196  1.0000
  C   C3509     1.0  0.76997  0.83558  0.14299  1.0000
  C   C3510     1.0  0.76313  0.82784  0.17408  1.0000
  C   C3511     1.0  0.78734  0.97190  0.16469  1.0000
  C   C3512     1.0  0.93159  0.77346  0.20089  1.0000
  H   H2802     1.0  0.79794  0.80863  0.21840  1.0000
  C   C3513     1.0  0.80058  0.80815  0.19218  1.0000
  H   H2803     1.0  0.78922  0.80291  0.19486  1.0000
  C   C3514     1.0  0.80565  0.81152  0.20561  1.0000
  C   C3515     1.0  0.82448  0.76242  0.21851  1.0000
  H   H2804     1.0  0.75133  0.83365  0.13007  1.0000
  C   C3516     1.0  0.97490  0.82049  0.10148  1.0000
  C   C3517     1.0  0.81029  0.81120  0.17546  1.0000
  C   C3518     1.0  0.82991  0.82182  0.18537  1.0000
  H   H2805     1.0  0.68194  0.74970  0.25358  1.0000
  H   H2806     1.0  0.82019  0.91881  0.06014  1.0000
  H   H2807     1.0  0.88165  0.92245  0.03818  1.0000
  C   C3519     1.0  0.74791  0.82365  0.17354  1.0000
  C   C3520     1.0  0.75470  0.83151  0.14242  1.0000
  C   C3521     1.0  0.96172  0.78189  0.21888  1.0000
  H   H2808     1.0  0.98013  0.77689  0.16259  1.0000
  H   H2809     1.0  0.81524  0.91992  0.14431  1.0000
  H   H2810     1.0  0.80637  0.80824  0.16525  1.0000
  C   C3522     1.0  0.96602  0.79580  0.24468  1.0000
  C   C3523     1.0  0.74352  0.82554  0.15771  1.0000
  C   C3524     1.0  0.73473  0.80361  0.11401  1.0000
  C   C3525     1.0  0.73499  0.80736  0.12951  1.0000
  H   H2811     1.0  0.83760  0.80609  0.25266  1.0000
  H   H2812     1.0  0.73925  0.81964  0.18549  1.0000
  H   H2813     1.0  0.93856  0.80373  0.25045  1.0000
  C   C3526     1.0  0.91731  0.74569  0.22147  1.0000
  C   C3527     1.0  0.94717  0.78973  0.22971  1.0000
  C   C3528     1.0  0.94949  0.79701  0.24238  1.0000
  H   H2814     1.0  0.84126  0.82726  0.18242  1.0000
  S   S479      1.0  0.88082  0.75184  0.19012  1.0000
  C   C3529     1.0  0.69375  0.76292  0.27325  1.0000
  C   C3530     1.0  0.80428  0.80842  0.24799  1.0000
  C   C3531     1.0  0.80941  0.82361  0.23794  1.0000
  H   H2815     1.0  0.91363  0.75776  0.24260  1.0000
  H   H2816     1.0  0.94853  0.83405  0.10277  1.0000
  H   H2817     1.0  0.83238  0.82059  0.15903  1.0000
  H   H2818     1.0  0.78129  0.82955  0.99227  1.0000
  C   C3532     1.0  0.81765  0.87983  0.08797  1.0000
  P   P118      1.0  0.92562  0.79052  0.22770  1.0000
  C   C3533     1.0  0.74435  0.93606  0.21734  1.0000
  H   H2819     1.0  0.82198  0.76073  0.17047  1.0000
  H   H2820     1.0  0.86079  0.93486  0.01900  1.0000
  P   P119      1.0  0.72226  0.82378  0.15724  1.0000
  C   C3534     1.0  0.72216  0.82008  0.13654  1.0000
  C   C3535     1.0  0.79980  0.83950  0.24167  1.0000
  H   H2821     1.0  0.72654  0.85772  0.15947  1.0000
  H   H2822     1.0  0.81117  0.79604  0.24500  1.0000
  H   H2823     1.0  0.69453  0.79803  0.21600  1.0000
  H   H2824     1.0  0.86099  0.78206  0.26076  1.0000
  H   H2825     1.0  0.70495  0.82145  0.19358  1.0000
  H   H2826     1.0  0.80304  0.85147  0.23396  1.0000
  C   C3536     1.0  0.68942  0.84380  0.16514  1.0000
  C   C3537     1.0  0.92546  0.77280  0.21863  1.0000
  C   C3538     1.0  0.78520  0.84017  0.25506  1.0000
  C   C3539     1.0  0.78599  0.97133  0.19460  1.0000
  C   C3540     1.0  0.70698  0.80897  0.19048  1.0000
  H   H2827     1.0  0.77748  0.85252  0.25737  1.0000
  C   C3541     1.0  0.70719  0.84325  0.16158  1.0000
  C   C3542     1.0  0.71294  0.85763  0.16226  1.0000
  H   H2828     1.0  0.70077  0.74974  0.27437  1.0000
  H   H2829     1.0  0.85847  0.96773  0.14146  1.0000
  H   H2830     1.0  0.66914  0.98190  0.23157  1.0000
  H   H2831     1.0  0.92205  0.73672  0.19791  1.0000
  C   C3543     1.0  0.86001  0.78645  0.24739  1.0000
  H   H2832     1.0  0.72215  0.81064  0.09260  1.0000
  C   C3544     1.0  0.71581  0.80606  0.17403  1.0000
  C   C3545     1.0  0.70097  0.79569  0.20326  1.0000
  C   C3546     1.0  0.70108  0.87225  0.16652  1.0000
  H   H2833     1.0  0.74892  0.96881  0.23269  1.0000
  C   C3547     1.0  0.85856  0.73862  0.02327  1.0000
  H   H2834     1.0  0.67434  0.88423  0.17300  1.0000
  C   C3548     1.0  0.71918  0.78939  0.17090  1.0000
  C   C3549     1.0  0.70946  0.82968  0.12729  1.0000
  C   C3550     1.0  0.70938  0.82615  0.11158  1.0000
  C   C3551     1.0  0.68343  0.87277  0.16989  1.0000
  H   H2835     1.0  0.72647  0.78638  0.15871  1.0000
  H   H2836     1.0  0.81980  0.77146  0.10740  1.0000
  C   C3552     1.0  0.91161  0.78951  0.24883  1.0000
  C   C3553     1.0  0.73637  0.97195  0.21185  1.0000
  H   H2837     1.0  0.96045  0.77676  0.20857  1.0000
  C   C3554     1.0  0.78008  0.82502  0.26483  1.0000
  C   C3555     1.0  0.78965  0.80915  0.26132  1.0000
  H   H2838     1.0  0.68476  0.83278  0.16478  1.0000
  C   C3556     1.0  0.85720  0.79740  0.21292  1.0000
  H   H2839     1.0  0.82255  0.80866  0.00833  1.0000
  H   H2840     1.0  0.69998  0.83400  0.10418  1.0000
  H   H2841     1.0  0.66927  0.81040  0.26809  1.0000
  C   C3557     1.0  0.70386  0.77933  0.19981  1.0000
  H   H2842     1.0  0.69995  0.84023  0.13180  1.0000
  H   H2843     1.0  0.85639  0.80129  0.19950  1.0000
  C   C3558     1.0  0.71325  0.77611  0.18375  1.0000
  C   C3559     1.0  0.82998  0.98282  0.16203  1.0000
  H   H2844     1.0  0.89090  0.81004  0.24076  1.0000
  C   C3560     1.0  0.86241  0.88050  0.10782  1.0000
  C   C3561     1.0  0.74489  0.96232  0.22499  1.0000
  C   C3562     1.0  0.83766  0.75391  0.22736  1.0000
  C   C3563     1.0  0.89544  0.80068  0.25139  1.0000
  C   C3564     1.0  0.80275  0.90807  0.09337  1.0000
  C   C3565     1.0  0.98112  0.79148  0.09667  1.0000
  C   C3566     1.0  0.85541  0.88332  0.09325  1.0000
  S   S480      1.0  0.75453  0.74396  0.18454  1.0000
  H   H2845     1.0  0.73740  0.93716  0.13193  1.0000
  H   H2846     1.0  0.63307  0.77014  0.28017  1.0000
  H   H2847     1.0  0.88035  0.94702  0.12627  1.0000
  C   C3567     1.0  0.83718  0.77840  0.99346  1.0000
  P   P120      1.0  0.83843  0.90173  0.08859  1.0000
  C   C3568     1.0  0.67386  0.98237  0.21788  1.0000
  C   C3569     1.0  0.98674  0.80503  0.09949  1.0000
  H   H2848     1.0  0.75572  0.93697  0.23775  1.0000
  C   C3570     1.0  0.82104  0.74383  0.15474  1.0000
  C   C3571     1.0  0.88367  0.85629  0.09868  1.0000
  C   C3572     1.0  0.83523  0.91588  0.10317  1.0000
  H   H2849     1.0  0.88955  0.95389  0.09444  1.0000
  C   C3573     1.0  0.85796  0.74439  0.14070  1.0000
  C   C3574     1.0  0.67599  0.76664  0.28021  1.0000
  C   C3575     1.0  0.86074  0.73698  0.15742  1.0000
  C   C3576     1.0  0.82559  0.91202  0.12002  1.0000
  C   C3577     1.0  0.90642  0.77685  0.27948  1.0000
  C   C3578     1.0  0.71570  0.95237  0.16811  1.0000
  H   H2850     1.0  0.70063  0.80343  0.25577  1.0000
  C   C3579     1.0  0.82658  0.75882  0.10524  1.0000
  C   C3580     1.0  0.80198  0.87629  0.08780  1.0000
  H   H2851     1.0  0.82010  0.90063  0.12433  1.0000
  C   C3581     1.0  0.81818  0.89581  0.09069  1.0000
  H   H2852     1.0  0.80157  0.86389  0.08591  1.0000
  H   H2853     1.0  0.70493  0.95026  0.17874  1.0000
  H   H2854     1.0  0.88172  0.86484  0.12183  1.0000
  C   C3582     1.0  0.80434  0.74415  0.18384  1.0000
  C   C3583     1.0  0.69374  0.79323  0.26269  1.0000
  C   C3584     1.0  0.83952  0.94156  0.10942  1.0000
  H   H2855     1.0  0.84491  0.95298  0.10533  1.0000
  C   C3585     1.0  0.87659  0.86716  0.11039  1.0000
  H   H2856     1.0  0.80954  0.78745  0.99973  1.0000
  H   H2857     1.0  0.81876  0.75093  0.00942  1.0000
  H   H2858     1.0  0.98909  0.77961  0.12900  1.0000
  H   H2859     1.0  0.78096  0.74505  0.05664  1.0000
  H   H2860     1.0  0.86481  0.74384  0.22540  1.0000
  H   H2861     1.0  0.80066  0.74961  0.19525  1.0000
  C   C3586     1.0  0.88890  0.73874  0.12965  1.0000
  H   H2862     1.0  0.73347  0.98583  0.20991  1.0000
  C   C3587     1.0  0.82085  0.78542  0.98957  1.0000
  P   P121      1.0  0.72072  0.97601  0.18432  1.0000
  H   H2863     1.0  0.82694  0.98019  0.11240  1.0000
  C   C3588     1.0  0.58381  0.74475  0.30945  1.0000
  H   H2864     1.0  0.79861  0.97968  0.10823  1.0000
  H   H2865     1.0  0.70032  0.97669  0.21961  1.0000
  H   H2866     1.0  0.98950  0.77498  0.21274  1.0000
  C   C3589     1.0  0.67151  0.74297  0.25691  1.0000
  H   H2867     1.0  0.79344  0.73940  0.02717  1.0000
  C   C3590     1.0  0.69158  0.97938  0.21102  1.0000
  H   H2868     1.0  0.76696  0.74124  0.29159  1.0000
  C   C3591     1.0  0.69783  0.97986  0.19331  1.0000
  C   C3592     1.0  0.78681  0.73721  0.26913  1.0000
  C   C3593     1.0  0.68605  0.98355  0.18256  1.0000
  H   H2869     1.0  0.69058  0.98413  0.16883  1.0000
  H   H2870     1.0  0.67633  0.73857  0.23125  1.0000
  C   C3594     1.0  0.68869  0.73705  0.31150  1.0000
  H   H2871     1.0  0.77141  0.73841  0.12459  1.0000
  C   C3595     1.0  0.66834  0.98652  0.18946  1.0000
  C   C3596     1.0  0.66830  0.73674  0.24406  1.0000
  H   H2872     1.0  0.57988  0.73910  0.60183  1.0000
  H   H2873     1.0  0.55693  0.75643  0.51067  1.0000
  H   H2874     1.0  0.56986  0.78122  0.50832  1.0000
  C   C3597     1.0  0.57694  0.76822  0.51191  1.0000
  H   H2875     1.0  0.59922  0.77621  0.51367  1.0000
  C   C3598     1.0  0.59346  0.76539  0.51497  1.0000
  H   H2876     1.0  0.55311  0.74027  0.34629  1.0000
  C   C3599     1.0  0.56964  0.75426  0.51327  1.0000
  C   C3600     1.0  0.56837  0.74844  0.32130  1.0000
  C   C3601     1.0  0.60266  0.74862  0.51951  1.0000
  H   H2877     1.0  0.61559  0.74670  0.52142  1.0000
  H   H2878     1.0  0.59478  0.74377  0.38662  1.0000
  C   C3602     1.0  0.57881  0.73747  0.51781  1.0000
  H   H2879     1.0  0.64924  0.74329  0.32771  1.0000
  C   C3603     1.0  0.60976  0.76562  0.32133  1.0000
  H   H2880     1.0  0.59671  0.76896  0.32853  1.0000
  H   H2881     1.0  0.61970  0.75126  0.34381  1.0000
  H   H2882     1.0  0.58181  0.73834  0.36520  1.0000
  C   C3604     1.0  0.56518  0.73728  0.33730  1.0000
  C   C3605     1.0  0.63953  0.75117  0.32069  1.0000
  C   C3606     1.0  0.62271  0.75569  0.32995  1.0000
  H   H2883     1.0  0.55871  0.75977  0.31797  1.0000
  Fe  Fe240     1.0  0.76600  0.77620  0.92641  1.0000
  S   S481      1.0  0.77653  0.79855  0.90922  1.0000
  C   C3607     1.0  0.61124  0.84044  0.85829  1.0000
  S   S482      1.0  0.78214  0.80796  0.94357  1.0000
  Fe  Fe241     1.0  0.76099  0.81340  0.92931  1.0000
  S   S483      1.0  0.74594  0.83992  0.92049  1.0000
  Fe  Fe242     1.0  0.79672  0.79095  0.92511  1.0000
  S   S484      1.0  0.82476  0.79105  0.91396  1.0000
  S   S485      1.0  0.74882  0.79149  0.94592  1.0000
  S   S486      1.0  0.78745  0.76729  0.94102  1.0000
  C   C3608     1.0  0.78535  0.78488  0.73987  1.0000
  H   H2884     1.0  0.68306  0.78155  0.82646  1.0000
  S   S487      1.0  0.95216  0.82547  0.83853  1.0000
  Fe  Fe243     1.0  0.85272  0.79481  0.81829  1.0000
  S   S488      1.0  0.82891  0.78975  0.83742  1.0000
  Fe  Fe244     1.0  0.87086  0.81853  0.78870  1.0000
  S   S489      1.0  0.89112  0.79663  0.77986  1.0000
  S   S490      1.0  0.87325  0.84516  0.77371  1.0000
  Fe  Fe245     1.0  0.86920  0.78314  0.78512  1.0000
  S   S491      1.0  0.86619  0.76768  0.76751  1.0000
  Fe  Fe246     1.0  0.89167  0.78734  0.80795  1.0000
  S   S492      1.0  0.91683  0.77630  0.81705  1.0000
  S   S493      1.0  0.84905  0.80586  0.79137  1.0000
  S   S494      1.0  0.87241  0.80996  0.81660  1.0000
  C   C3609     1.0  0.67358  0.80026  0.84271  1.0000
  Fe  Fe247     1.0  0.77282  0.88638  0.82546  1.0000
  S   S495      1.0  0.74549  0.90068  0.82694  1.0000
  S   S496      1.0  0.78580  0.87380  0.84774  1.0000
  Fe  Fe248     1.0  0.78211  0.89587  0.78642  1.0000
  S   S497      1.0  0.75560  0.91124  0.78478  1.0000
  S   S498      1.0  0.80271  0.89476  0.76233  1.0000
  Fe  Fe249     1.0  0.75704  0.92141  0.80711  1.0000
  S   S499      1.0  0.74947  0.94983  0.80750  1.0000
  Fe  Fe250     1.0  0.74680  0.88892  0.80453  1.0000
  S   S500      1.0  0.72501  0.87899  0.80082  1.0000
  S   S501      1.0  0.78430  0.90775  0.80701  1.0000
  S   S502      1.0  0.77332  0.87294  0.80469  1.0000
  Fe  Fe251     1.0  0.74612  0.75512  0.81828  1.0000
  S   S503      1.0  0.76228  0.77329  0.80009  1.0000
  S   S504      1.0  0.74933  0.76445  0.76893  1.0000
  Fe  Fe252     1.0  0.77047  0.75345  0.78374  1.0000
  Fe  Fe253     1.0  0.73994  0.78295  0.78691  1.0000
  S   S505      1.0  0.72847  0.81070  0.77632  1.0000
  S   S506      1.0  0.72311  0.76598  0.80594  1.0000
  H   H2885     1.0  0.67465  0.88288  0.84851  1.0000
  C   C3610     1.0  0.63957  0.82481  0.86303  1.0000
  C   C3611     1.0  0.72767  0.85978  0.79366  1.0000
  C   C3612     1.0  0.74031  0.84504  0.79755  1.0000
  C   C3613     1.0  0.74081  0.82975  0.79241  1.0000
  C   C3614     1.0  0.72884  0.82924  0.78327  1.0000
  C   C3615     1.0  0.71643  0.84405  0.77935  1.0000
  C   C3616     1.0  0.71577  0.85911  0.78460  1.0000
  H   H2886     1.0  0.74937  0.84526  0.80486  1.0000
  H   H2887     1.0  0.75008  0.81827  0.79593  1.0000
  H   H2888     1.0  0.70701  0.84381  0.77249  1.0000
  H   H2889     1.0  0.70594  0.87037  0.78161  1.0000
  C   C3617     1.0  0.66766  0.84368  0.84892  1.0000
  C   C3618     1.0  0.67719  0.85896  0.81967  1.0000
  H   H2890     1.0  0.61250  0.79742  0.87018  1.0000
  C   C3619     1.0  0.76114  0.95758  0.81804  1.0000
  C   C3620     1.0  0.77004  0.94645  0.83031  1.0000
  C   C3621     1.0  0.77938  0.95283  0.83840  1.0000
  H   H2891     1.0  0.68366  0.88333  0.81718  1.0000
  H   H2892     1.0  0.76959  0.93295  0.83368  1.0000
  H   H2893     1.0  0.78596  0.94426  0.84809  1.0000
  C   C3622     1.0  0.85353  0.85892  0.77102  1.0000
  C   C3623     1.0  0.83804  0.85500  0.78135  1.0000
  C   C3624     1.0  0.82234  0.86624  0.77911  1.0000
  C   C3625     1.0  0.82217  0.88111  0.76612  1.0000
  C   C3626     1.0  0.83770  0.88493  0.75570  1.0000
  C   C3627     1.0  0.85337  0.87402  0.75836  1.0000
  H   H2894     1.0  0.83822  0.84332  0.79110  1.0000
  H   H2895     1.0  0.81035  0.86322  0.78708  1.0000
  H   H2896     1.0  0.83761  0.89636  0.74559  1.0000
  H   H2897     1.0  0.86536  0.87708  0.75035  1.0000
  C   C3628     1.0  0.83061  0.76938  0.77843  1.0000
  C   C3629     1.0  0.81529  0.76439  0.77872  1.0000
  H   H2898     1.0  0.83025  0.77848  0.78597  1.0000
  H   H2899     1.0  0.80321  0.76965  0.78649  1.0000
  C   C3630     1.0  0.94309  0.81154  0.83207  1.0000
  C   C3631     1.0  0.92712  0.81798  0.82724  1.0000
  C   C3632     1.0  0.91905  0.80733  0.82256  1.0000
  C   C3633     1.0  0.92687  0.79008  0.82264  1.0000
  C   C3634     1.0  0.94294  0.78364  0.82729  1.0000
  C   C3635     1.0  0.95106  0.79433  0.83197  1.0000
  H   H2900     1.0  0.92090  0.83129  0.82722  1.0000
  H   H2901     1.0  0.90679  0.81252  0.81885  1.0000
  H   H2902     1.0  0.94911  0.77032  0.82736  1.0000
  H   H2903     1.0  0.96332  0.78921  0.83574  1.0000
  C   C3636     1.0  0.75670  0.84934  0.90007  1.0000
  C   C3637     1.0  0.74762  0.86246  0.88909  1.0000
  C   C3638     1.0  0.75628  0.86979  0.87269  1.0000
  C   C3639     1.0  0.77411  0.86440  0.86757  1.0000
  C   C3640     1.0  0.78312  0.85142  0.87862  1.0000
  C   C3641     1.0  0.77439  0.84368  0.89466  1.0000
  H   H2904     1.0  0.73393  0.86691  0.89325  1.0000
  H   H2905     1.0  0.74926  0.87986  0.86423  1.0000
  H   H2906     1.0  0.79690  0.84716  0.87469  1.0000
  H   H2907     1.0  0.78150  0.83360  0.90301  1.0000
  C   C3642     1.0  0.82793  0.78858  0.89289  1.0000
  C   C3643     1.0  0.81639  0.78134  0.88881  1.0000
  C   C3644     1.0  0.81697  0.78163  0.87167  1.0000
  C   C3645     1.0  0.82978  0.78810  0.85868  1.0000
  H   H2908     1.0  0.80669  0.77586  0.89882  1.0000
  H   H2909     1.0  0.80714  0.77728  0.86847  1.0000
  C   C3646     1.0  0.78003  0.75472  0.71222  1.0000
  C   C3647     1.0  0.75943  0.76629  0.88096  1.0000
  C   C3648     1.0  0.75658  0.76392  0.86550  1.0000
  H   H2910     1.0  0.76764  0.77483  0.88045  1.0000
  H   H2911     1.0  0.76259  0.77064  0.85322  1.0000
  C   C3649     1.0  0.81577  0.75251  0.76898  1.0000
  S   S507      1.0  0.87191  0.77136  0.81227  1.0000
  C   C3650     1.0  0.82671  0.74816  0.81910  1.0000
  C   C3651     1.0  0.77145  0.98142  0.82177  1.0000
  C   C3652     1.0  0.79572  0.94771  0.78321  1.0000
  C   C3653     1.0  0.72154  0.79946  0.69738  1.0000
  H   H2912     1.0  0.76834  0.73959  0.73595  1.0000
  P   P122      1.0  0.72821  0.79379  0.71770  1.0000
  C   C3654     1.0  0.71232  0.78406  0.73447  1.0000
  H   H2913     1.0  0.78399  0.98018  0.88067  1.0000
  C   C3655     1.0  0.80090  0.94027  0.76875  1.0000
  C   C3656     1.0  0.83146  0.74603  0.75878  1.0000
  H   H2914     1.0  0.89157  0.87145  0.79984  1.0000
  C   C3657     1.0  0.71027  0.80769  0.66629  1.0000
  C   C3658     1.0  0.97203  0.87291  0.80819  1.0000
  C   C3659     1.0  0.71114  0.78435  0.75174  1.0000
  C   C3660     1.0  0.69983  0.77575  0.76491  1.0000
  C   C3661     1.0  0.68964  0.76677  0.76098  1.0000
  C   C3662     1.0  0.69070  0.76643  0.74384  1.0000
  C   C3663     1.0  0.70201  0.77501  0.73061  1.0000
  C   C3664     1.0  0.73051  0.81293  0.72312  1.0000
  C   C3665     1.0  0.71594  0.82355  0.73116  1.0000
  C   C3666     1.0  0.74664  0.81738  0.71958  1.0000
  C   C3667     1.0  0.76192  0.78156  0.70128  1.0000
  C   C3668     1.0  0.81742  0.93024  0.76515  1.0000
  C   C3669     1.0  0.98556  0.86015  0.78324  1.0000
  C   C3670     1.0  0.97749  0.84746  0.74976  1.0000
  H   H2915     1.0  0.85860  0.74564  0.75065  1.0000
  H   H2916     1.0  0.79397  0.90392  0.85194  1.0000
  C   C3671     1.0  0.71238  0.81606  0.69168  1.0000
  H   H2917     1.0  0.76028  0.79320  0.69148  1.0000
  H   H2918     1.0  0.71927  0.79083  0.75514  1.0000
  H   H2919     1.0  0.69939  0.77554  0.77825  1.0000
  H   H2920     1.0  0.68141  0.75952  0.77127  1.0000
  H   H2921     1.0  0.68317  0.75896  0.74090  1.0000
  H   H2922     1.0  0.70291  0.77415  0.71751  1.0000
  H   H2923     1.0  0.70334  0.82045  0.73406  1.0000
  C   C3672     1.0  0.98680  0.85713  0.89006  1.0000
  C   C3673     1.0  0.69641  0.77521  0.84719  1.0000
  C   C3674     1.0  0.69795  0.77996  0.86170  1.0000
  C   C3675     1.0  0.68733  0.79485  0.86676  1.0000
  C   C3676     1.0  0.67516  0.80529  0.85720  1.0000
  P   P123      1.0  0.66135  0.82468  0.86363  1.0000
  C   C3677     1.0  0.66244  0.82461  0.88535  1.0000
  C   C3678     1.0  0.64884  0.82100  0.89932  1.0000
  C   C3679     1.0  0.65000  0.82061  0.91608  1.0000
  C   C3680     1.0  0.66471  0.82379  0.91905  1.0000
  C   C3681     1.0  0.67827  0.82739  0.90525  1.0000
  C   C3682     1.0  0.67720  0.82777  0.88847  1.0000
  H   H2924     1.0  0.70470  0.76364  0.84336  1.0000
  H   H2925     1.0  0.70748  0.77202  0.86897  1.0000
  H   H2926     1.0  0.68859  0.79791  0.87826  1.0000
  H   H2927     1.0  0.63735  0.81839  0.89741  1.0000
  H   H2928     1.0  0.63951  0.81776  0.92683  1.0000
  H   H2929     1.0  0.66567  0.82340  0.93205  1.0000
  H   H2930     1.0  0.68968  0.82974  0.90765  1.0000
  H   H2931     1.0  0.68795  0.83036  0.87794  1.0000
  H   H2932     1.0  0.64230  0.79716  0.87100  1.0000
  H   H2933     1.0  0.66466  0.85795  0.86871  1.0000
  H   H2934     1.0  0.85014  0.80019  0.88316  1.0000
  C   C3683     1.0  0.86952  0.76094  0.88858  1.0000
  C   C3684     1.0  0.67142  0.84473  0.83105  1.0000
  C   C3685     1.0  0.75077  0.76296  0.72775  1.0000
  C   C3686     1.0  0.85503  0.89899  0.88061  1.0000
  C   C3687     1.0  0.86486  0.90598  0.86493  1.0000
  C   C3688     1.0  0.86909  0.89785  0.85099  1.0000
  C   C3689     1.0  0.86335  0.88283  0.85264  1.0000
  C   C3690     1.0  0.85316  0.87593  0.86824  1.0000
  C   C3691     1.0  0.84933  0.88393  0.88233  1.0000
  P   P124      1.0  0.84708  0.85576  0.87077  1.0000
  C   C3692     1.0  0.86579  0.83929  0.87467  1.0000
  C   C3693     1.0  0.82873  0.85358  0.88839  1.0000
  C   C3694     1.0  0.82812  0.83813  0.90061  1.0000
  C   C3695     1.0  0.81389  0.83685  0.91431  1.0000
  C   C3696     1.0  0.80002  0.85080  0.91569  1.0000
  C   C3697     1.0  0.80024  0.86598  0.90318  1.0000
  C   C3698     1.0  0.81447  0.86732  0.88950  1.0000
  C   C3699     1.0  0.87637  0.83085  0.86160  1.0000
  C   C3700     1.0  0.89107  0.81847  0.86474  1.0000
  C   C3701     1.0  0.89563  0.81479  0.88068  1.0000
  C   C3702     1.0  0.88539  0.82339  0.89362  1.0000
  C   C3703     1.0  0.87057  0.83565  0.89062  1.0000
  C   C3704     1.0  0.83986  0.85484  0.85226  1.0000
  C   C3705     1.0  0.83313  0.86991  0.84143  1.0000
  C   C3706     1.0  0.82607  0.86891  0.82811  1.0000
  C   C3707     1.0  0.82567  0.85294  0.82557  1.0000
  C   C3708     1.0  0.83263  0.83791  0.83609  1.0000
  C   C3709     1.0  0.83931  0.83889  0.84964  1.0000
  H   H2935     1.0  0.85194  0.90516  0.89149  1.0000
  H   H2936     1.0  0.86933  0.91761  0.86363  1.0000
  H   H2937     1.0  0.87698  0.90310  0.83899  1.0000
  H   H2938     1.0  0.86695  0.87651  0.84180  1.0000
  H   H2939     1.0  0.84210  0.87849  0.89471  1.0000
  H   H2940     1.0  0.83838  0.82692  0.89950  1.0000
  H   H2941     1.0  0.81342  0.82487  0.92363  1.0000
  H   H2942     1.0  0.78877  0.84958  0.92602  1.0000
  H   H2943     1.0  0.78908  0.87644  0.90378  1.0000
  H   H2944     1.0  0.81424  0.87893  0.87961  1.0000
  H   H2945     1.0  0.87351  0.83390  0.84892  1.0000
  H   H2946     1.0  0.89911  0.81188  0.85470  1.0000
  H   H2947     1.0  0.90727  0.80546  0.88288  1.0000
  H   H2948     1.0  0.88904  0.82068  0.90592  1.0000
  H   H2949     1.0  0.86287  0.84238  0.90069  1.0000
  H   H2950     1.0  0.83263  0.88238  0.84368  1.0000
  H   H2951     1.0  0.81989  0.88047  0.82042  1.0000
  H   H2952     1.0  0.81931  0.85228  0.81591  1.0000
  H   H2953     1.0  0.83226  0.82551  0.83417  1.0000
  H   H2954     1.0  0.84371  0.82726  0.85836  1.0000
  C   C3710     1.0  0.84178  0.84872  0.73683  1.0000
  C   C3711     1.0  0.85556  0.83501  0.73964  1.0000
  C   C3712     1.0  0.85249  0.81859  0.74757  1.0000
  C   C3713     1.0  0.83563  0.81593  0.75291  1.0000
  C   C3714     1.0  0.82168  0.82957  0.74994  1.0000
  C   C3715     1.0  0.82490  0.84608  0.74203  1.0000
  P   P125      1.0  0.79988  0.82630  0.75851  1.0000
  C   C3716     1.0  0.79454  0.81076  0.74987  1.0000
  C   C3717     1.0  0.79721  0.81919  0.78157  1.0000
  C   C3718     1.0  0.78535  0.80885  0.79091  1.0000
  C   C3719     1.0  0.78282  0.80400  0.80881  1.0000
  C   C3720     1.0  0.79271  0.80871  0.81748  1.0000
  C   C3721     1.0  0.80458  0.81900  0.80831  1.0000
  C   C3722     1.0  0.80665  0.82442  0.79045  1.0000
  C   C3723     1.0  0.77713  0.81050  0.75173  1.0000
  C   C3724     1.0  0.80267  0.78535  0.73739  1.0000
  C   C3725     1.0  0.80729  0.79823  0.74236  1.0000
  C   C3726     1.0  0.78481  0.84624  0.75362  1.0000
  C   C3727     1.0  0.78219  0.85257  0.73673  1.0000
  C   C3728     1.0  0.77054  0.86802  0.73275  1.0000
  C   C3729     1.0  0.76146  0.87721  0.74561  1.0000
  C   C3730     1.0  0.76403  0.87096  0.76241  1.0000
  C   C3731     1.0  0.77567  0.85556  0.76644  1.0000
  H   H2955     1.0  0.84412  0.86156  0.73119  1.0000
  H   H2956     1.0  0.86857  0.83722  0.73621  1.0000
  H   H2957     1.0  0.86313  0.80800  0.75016  1.0000
  H   H2958     1.0  0.83350  0.80333  0.75993  1.0000
  H   H2959     1.0  0.81447  0.85712  0.74043  1.0000
  H   H2960     1.0  0.77790  0.80456  0.78450  1.0000
  H   H2961     1.0  0.77322  0.79655  0.81596  1.0000
  H   H2962     1.0  0.79130  0.80424  0.83128  1.0000
  H   H2963     1.0  0.81229  0.82261  0.81506  1.0000
  H   H2964     1.0  0.81578  0.83250  0.78356  1.0000
  H   H2965     1.0  0.76697  0.81989  0.75766  1.0000
  H   H2966     1.0  0.81257  0.77526  0.73236  1.0000
  H   H2967     1.0  0.82080  0.79794  0.74069  1.0000
  H   H2968     1.0  0.78930  0.84564  0.72665  1.0000
  H   H2969     1.0  0.76870  0.87300  0.71968  1.0000
  H   H2970     1.0  0.75255  0.88927  0.74260  1.0000
  H   H2971     1.0  0.75703  0.87813  0.77235  1.0000
  H   H2972     1.0  0.77749  0.85104  0.77952  1.0000
  C   C3732     1.0  0.78130  0.81495  0.86591  1.0000
  C   C3733     1.0  0.78909  0.82605  0.85203  1.0000
  C   C3734     1.0  0.77915  0.83829  0.84142  1.0000
  C   C3735     1.0  0.76129  0.83984  0.84506  1.0000
  C   C3736     1.0  0.75325  0.82900  0.85942  1.0000
  C   C3737     1.0  0.76355  0.81621  0.86954  1.0000
  P   P126      1.0  0.73034  0.82999  0.86359  1.0000
  C   C3738     1.0  0.72452  0.81637  0.88451  1.0000
  C   C3739     1.0  0.71874  0.85217  0.86250  1.0000
  C   C3740     1.0  0.70928  0.85834  0.87742  1.0000
  C   C3741     1.0  0.70151  0.87573  0.87640  1.0000
  C   C3742     1.0  0.70275  0.88711  0.86048  1.0000
  C   C3743     1.0  0.71142  0.88101  0.84553  1.0000
  C   C3744     1.0  0.71943  0.86369  0.84652  1.0000
  C   C3745     1.0  0.71955  0.80082  0.88620  1.0000
  C   C3746     1.0  0.71633  0.78992  0.90235  1.0000
  C   C3747     1.0  0.71802  0.79443  0.91695  1.0000
  C   C3748     1.0  0.72303  0.80980  0.91536  1.0000
  C   C3749     1.0  0.72671  0.82042  0.89918  1.0000
  C   C3750     1.0  0.72745  0.82064  0.84733  1.0000
  C   C3751     1.0  0.73846  0.80516  0.84412  1.0000
  C   C3752     1.0  0.73561  0.79665  0.83289  1.0000
  C   C3753     1.0  0.72229  0.80398  0.82408  1.0000
  C   C3754     1.0  0.71167  0.81970  0.82669  1.0000
  C   C3755     1.0  0.71397  0.82790  0.83855  1.0000
  H   H2973     1.0  0.78907  0.80554  0.87403  1.0000
  H   H2974     1.0  0.80281  0.82514  0.84956  1.0000
  H   H2975     1.0  0.78537  0.84685  0.83068  1.0000
  H   H2976     1.0  0.75397  0.84953  0.83666  1.0000
  H   H2977     1.0  0.75807  0.80712  0.88030  1.0000
  H   H2978     1.0  0.70803  0.85007  0.88997  1.0000
  H   H2979     1.0  0.69485  0.88044  0.88805  1.0000
  H   H2980     1.0  0.69706  0.90066  0.85968  1.0000
  H   H2981     1.0  0.71217  0.88980  0.83312  1.0000
  H   H2982     1.0  0.72619  0.85934  0.83474  1.0000
  H   H2983     1.0  0.71874  0.79667  0.87512  1.0000
  H   H2984     1.0  0.71317  0.77764  0.90349  1.0000
  H   H2985     1.0  0.71608  0.78574  0.92939  1.0000
  H   H2986     1.0  0.72459  0.81335  0.92655  1.0000
  H   H2987     1.0  0.73168  0.83167  0.89799  1.0000
  H   H2988     1.0  0.74892  0.79944  0.85079  1.0000
  H   H2989     1.0  0.74369  0.78435  0.83109  1.0000
  H   H2990     1.0  0.72039  0.79775  0.81489  1.0000
  H   H2991     1.0  0.70202  0.82559  0.81909  1.0000
  H   H2992     1.0  0.70539  0.83990  0.84063  1.0000
  C   C3756     1.0  0.66835  0.85783  0.85511  1.0000
  C   C3757     1.0  0.97143  0.85253  0.78591  1.0000
  H   H2993     1.0  0.78185  0.77441  0.73682  1.0000
  C   C3758     1.0  0.85801  0.95439  0.78904  1.0000
  H   H2994     1.0  0.93855  0.86064  0.76980  1.0000
  H   H2995     1.0  0.67034  0.83447  0.82576  1.0000
  C   C3759     1.0  0.81271  0.76189  0.82121  1.0000
  C   C3760     1.0  0.95083  0.83377  0.77566  1.0000
  C   C3761     1.0  0.60561  0.82497  0.86240  1.0000
  H   H2996     1.0  0.86435  0.77082  0.98239  1.0000
  Fe  Fe254     1.0  0.97969  0.82154  0.84175  1.0000
  C   C3762     1.0  0.97840  0.86489  0.74395  1.0000
  C   C3763     1.0  0.97937  0.83749  0.73764  1.0000
  H   H2997     1.0  0.80912  0.91212  0.82186  1.0000
  C   C3764     1.0  0.79332  0.74209  0.83243  1.0000
  H   H2998     1.0  0.87359  0.97327  0.77587  1.0000
  C   C3765     1.0  0.98714  0.81891  0.77904  1.0000
  H   H2999     1.0  0.73147  0.77397  0.69181  1.0000
  C   C3766     1.0  0.84960  0.78064  0.96281  1.0000
  H   H3000     1.0  0.83904  0.89654  0.79958  1.0000
  H   H3001     1.0  0.83198  0.73700  0.75109  1.0000
  C   C3767     1.0  0.83810  0.74607  0.92458  1.0000
  C   C3768     1.0  0.95779  0.85487  0.80010  1.0000
  C   C3769     1.0  0.95810  0.86505  0.81117  1.0000
  C   C3770     1.0  0.73368  0.84214  0.73272  1.0000
  H   H3002     1.0  0.79206  0.94220  0.76040  1.0000
  H   H3003     1.0  0.73498  0.85306  0.73697  1.0000
  H   H3004     1.0  0.98283  0.88537  0.72190  1.0000
  C   C3771     1.0  0.98419  0.87081  0.87618  1.0000
  C   C3772     1.0  0.88464  0.89766  0.80338  1.0000
  H   H3005     1.0  0.86540  0.94518  0.78117  1.0000
  H   H3006     1.0  0.73633  0.73837  0.90963  1.0000
  H   H3007     1.0  0.75817  0.80951  0.71357  1.0000
  H   H3008     1.0  0.80251  0.95042  0.80565  1.0000
  H   H3009     1.0  0.86235  0.87094  0.79751  1.0000
  C   C3773     1.0  0.85158  0.77609  0.97991  1.0000
  H   H3010     1.0  0.94726  0.84824  0.80321  1.0000
  H   H3011     1.0  0.94791  0.86615  0.82253  1.0000
  C   C3774     1.0  0.73878  0.74371  0.88219  1.0000
  C   C3775     1.0  0.74819  0.83190  0.72441  1.0000
  H   H3012     1.0  0.97749  0.84894  0.89559  1.0000
  C   C3776     1.0  0.93211  0.81368  0.78115  1.0000
  C   C3777     1.0  0.76174  0.97512  0.81392  1.0000
  C   C3778     1.0  0.62814  0.84040  0.85864  1.0000
  C   C3779     1.0  0.67872  0.87252  0.82599  1.0000
  C   C3780     1.0  0.85175  0.89708  0.80053  1.0000
  C   C3781     1.0  0.84114  0.79465  0.87997  1.0000
  C   C3782     1.0  0.84237  0.79391  0.86281  1.0000
  C   C3783     1.0  0.84635  0.76250  0.76839  1.0000
  H   H3013     1.0  0.85254  0.79855  0.85275  1.0000
  Fe  Fe255     1.0  0.77129  0.78485  0.95880  1.0000
  C   C3784     1.0  0.79607  0.75885  0.82785  1.0000
  C   C3785     1.0  0.98450  0.81044  0.79639  1.0000
  Fe  Fe256     1.0  0.73405  0.74657  0.78884  1.0000
  H   H3014     1.0  0.86373  0.76223  0.90173  1.0000
  H   H3015     1.0  0.81482  0.77492  0.81759  1.0000
  C   C3786     1.0  0.74612  0.75262  0.86611  1.0000
  C   C3787     1.0  0.77259  0.79753  0.74693  1.0000
  C   C3788     1.0  0.68422  0.78534  0.83770  1.0000
  H   H3016     1.0  0.88264  0.78173  0.88381  1.0000
  H   H3017     1.0  0.97277  0.87336  0.87099  1.0000
  C   C3789     1.0  0.75221  0.75696  0.89702  1.0000
  H   H3018     1.0  0.76073  0.83496  0.72211  1.0000
  H   H3019     1.0  0.97339  0.81530  0.80562  1.0000
  H   H3020     1.0  0.75913  0.79707  0.74918  1.0000
  S   S508      1.0  0.75600  0.75761  0.91713  1.0000
  C   C3790     1.0  0.82322  0.93409  0.79122  1.0000
  C   C3791     1.0  0.98208  0.87194  0.72629  1.0000
  H   H3021     1.0  0.60249  0.85250  0.85483  1.0000
  H   H3022     1.0  0.70589  0.81087  0.65431  1.0000
  C   C3792     1.0  0.71753  0.83809  0.73588  1.0000
  C   C3793     1.0  0.88030  0.77208  0.87844  1.0000
  S   S509      1.0  0.79747  0.74508  0.76883  1.0000
  H   H3023     1.0  0.74052  0.75988  0.73863  1.0000
  H   H3024     1.0  0.82207  0.96105  0.82065  1.0000
  C   C3794     1.0  0.83623  0.74746  0.94158  1.0000
  C   C3795     1.0  0.63378  0.80932  0.86731  1.0000
  H   H3025     1.0  0.80624  0.79507  0.96963  1.0000
  C   C3796     1.0  0.82607  0.92463  0.82794  1.0000
  C   C3797     1.0  0.86259  0.97033  0.78589  1.0000
  C   C3798     1.0  0.71920  0.79110  0.67197  1.0000
  H   H3026     1.0  0.58501  0.74336  0.65941  1.0000
  C   C3799     1.0  0.81287  0.91552  0.83194  1.0000
  C   C3800     1.0  0.93684  0.84749  0.77312  1.0000
  C   C3801     1.0  0.61687  0.80942  0.86694  1.0000
  H   H3027     1.0  0.66398  0.80768  0.83539  1.0000
  C   C3802     1.0  0.83369  0.96325  0.81122  1.0000
  C   C3803     1.0  0.84658  0.75095  0.75851  1.0000
  H   H3028     1.0  0.59252  0.82502  0.86210  1.0000
  C   C3804     1.0  0.67389  0.87213  0.84367  1.0000
  C   C3805     1.0  0.81892  0.78983  0.97249  1.0000
  C   C3806     1.0  0.72478  0.78697  0.68747  1.0000
  C   C3807     1.0  0.80680  0.94462  0.79444  1.0000
  S   S510      1.0  0.79295  0.97721  0.84416  1.0000
  C   C3808     1.0  0.82234  0.92388  0.85842  1.0000
  C   C3809     1.0  0.86493  0.88251  0.79940  1.0000
  H   H3029     1.0  0.63223  0.85253  0.85551  1.0000
  C   C3810     1.0  0.74845  0.77840  0.71553  1.0000
  C   C3811     1.0  0.85495  0.91221  0.80279  1.0000
  C   C3812     1.0  0.84378  0.95056  0.80208  1.0000
  H   H3030     1.0  0.68078  0.85936  0.80593  1.0000
  C   C3813     1.0  0.91819  0.82740  0.77896  1.0000
  C   C3814     1.0  0.81550  0.74332  0.86850  1.0000
  H   H3031     1.0  0.82941  0.75495  0.91691  1.0000
  C   C3815     1.0  0.87141  0.91226  0.80463  1.0000
  H   H3032     1.0  0.90554  0.82495  0.78047  1.0000
  P   P127      1.0  0.83732  0.93031  0.80590  1.0000
  P   P128      1.0  0.97190  0.83819  0.77244  1.0000
  H   H3033     1.0  0.82136  0.92449  0.75392  1.0000
  H   H3034     1.0  0.70945  0.82588  0.69915  1.0000
  C   C3816     1.0  0.83102  0.92847  0.84136  1.0000
  H   H3035     1.0  0.89606  0.77971  0.85338  1.0000
  H   H3036     1.0  0.97596  0.87321  0.75293  1.0000
  C   C3817     1.0  0.80438  0.91070  0.84902  1.0000
  H   H3037     1.0  0.69982  0.83299  0.67179  1.0000
  H   H3038     1.0  0.72169  0.78138  0.66442  1.0000
  H   H3039     1.0  0.84139  0.93523  0.83864  1.0000
  C   C3818     1.0  0.78033  0.97024  0.83403  1.0000
  H   H3040     1.0  0.84175  0.74562  0.86240  1.0000
  C   C3819     1.0  0.88140  0.88281  0.80074  1.0000
  H   H3041     1.0  0.79231  0.74572  0.71117  1.0000
  H   H3042     1.0  0.95891  0.80596  0.78155  1.0000
  H   H3043     1.0  0.70630  0.84597  0.74243  1.0000
  H   H3044     1.0  0.87400  0.92344  0.80725  1.0000
  H   H3045     1.0  0.86070  0.77889  0.95237  1.0000
  C   C3820     1.0  0.88453  0.75878  0.85430  1.0000
  C   C3821     1.0  0.83327  0.78750  0.95912  1.0000
  H   H3046     1.0  0.78814  0.77247  0.68887  1.0000
  H   H3047     1.0  0.83170  0.79107  0.94591  1.0000
  C   C3822     1.0  0.76654  0.75126  0.72617  1.0000
  C   C3823     1.0  0.80902  0.91500  0.86226  1.0000
  C   C3824     1.0  0.94838  0.81682  0.77962  1.0000
  H   H3048     1.0  0.90966  0.85481  0.77301  1.0000
  C   C3825     1.0  0.92053  0.84428  0.77489  1.0000
  H   H3049     1.0  0.93018  0.80059  0.78438  1.0000
  C   C3826     1.0  0.82866  0.92733  0.77618  1.0000
  H   H3050     1.0  0.89737  0.89780  0.80464  1.0000
  H   H3051     1.0  0.78297  0.95567  0.78584  1.0000
  H   H3052     1.0  0.82577  0.92742  0.86865  1.0000
  H   H3053     1.0  0.80210  0.91166  0.87543  1.0000
  S   S511      1.0  0.74150  0.74862  0.84769  1.0000
  H   H3054     1.0  0.78532  0.76947  0.82948  1.0000
  C   C3827     1.0  0.88777  0.77104  0.86130  1.0000
  H   H3055     1.0  0.84146  0.91975  0.77290  1.0000
  C   C3828     1.0  0.87377  0.74763  0.86437  1.0000
  H   H3056     1.0  0.53536  0.74086  0.69258  1.0000
  S   S512      1.0  0.98346  0.83818  0.85760  1.0000
  H   H3057     1.0  0.83943  0.75094  0.81379  1.0000
  C   C3829     1.0  0.98450  0.86176  0.71432  1.0000
  C   C3830     1.0  0.85281  0.98265  0.79550  1.0000
  H   H3058     1.0  0.77358  0.81124  0.97729  1.0000
  H   H3059     1.0  0.55754  0.75769  0.67552  1.0000
  C   C3831     1.0  0.74192  0.74571  0.89740  1.0000
  H   H3060     1.0  0.81397  0.74845  0.85539  1.0000
  H   H3061     1.0  0.89049  0.75791  0.84105  1.0000
  C   C3832     1.0  0.77769  0.76982  0.69971  1.0000
  C   C3833     1.0  0.70685  0.82015  0.67615  1.0000
  H   H3062     1.0  0.98455  0.83675  0.71074  1.0000
  H   H3063     1.0  0.98724  0.86727  0.70065  1.0000
  C   C3834     1.0  0.86613  0.74859  0.88162  1.0000
  H   H3064     1.0  0.97254  0.88032  0.81710  1.0000
  C   C3835     1.0  0.83832  0.97912  0.80808  1.0000
  H   H3065     1.0  0.82616  0.75736  0.94680  1.0000
  H   H3066     1.0  0.89111  0.74033  0.78861  1.0000
  H   H3067     1.0  0.97787  0.82425  0.74188  1.0000
  C   C3836     1.0  0.98304  0.84457  0.72000  1.0000
  C   C3837     1.0  0.80143  0.73918  0.88137  1.0000
  C   C3838     1.0  0.83132  0.74176  0.87262  1.0000
  H   H3068     1.0  0.78035  0.73980  0.83749  1.0000
  C   C3839     1.0  0.55987  0.74406  0.67584  1.0000
  H   H3069     1.0  0.87163  0.73810  0.85874  1.0000
  H   H3070     1.0  0.78910  0.74073  0.87815  1.0000
  C   C3840     1.0  0.98574  0.87049  0.79421  1.0000
  H   H3071     1.0  0.84592  0.73745  0.96483  1.0000
  H   H3072     1.0  0.75490  0.98381  0.80444  1.0000
