data_image0
_chemical_formula_structural       PSH2FeCFeSHSCFeHSC3HSC3H3C2HC3HC4H2SHC7H4C4HCH4C2HC3PC3HCH2C3HC7H2FeH3C2HFeH2CH4C2HC2H4C2HCH7CH6C8HC2H3C2H2FeH2C4SC5SHC3HPCS2HCFeCHC4HC2S2CHCPCH5C2SCH2C5HC2FeC2HC2HCHC6H2C2HC2HSH7C2HCFeH2SC3HPHCSCFeS2CFeHC14H6C2HCHC7H2CH2CHC2HC2H3SC4HC4SCH4C2HCHCH3C2SC2FeH2C2H2C2FeH4C2HCPHC2H3CH2CH2CHCH2C3H2SHCH4C2H2C2PH3C3HCHC10H6CH4CH2CSC2HC4FeC3H3S2C2H2C3SC2H2C2FeSHSHFeCSCH2PSHCHSH2CH2PSHC2H2CHCHCHC6H3C7H2CHC2HC3HC3H2CH3C12H3CHCHC2HCHCH2CHCH2CH3CH2CHC2HC3HPH4PHCH2CH2C3HCHFeC2H2CHC3HCHC8H2C3HCH6C5H3CS2CFeCHCHCSC3SH2S2C2HCHC3H2SHC2FeSH2C2H2CSHFeS2PHC2HC3HPC7H4CH3C9H4C5FePC19HCH13SFeH2CFeCH5SC2FeC2SC2HC3SCHCH2CSHC2H3CHCH4CSH2C5FeC8H2CFeCFeC2H2CH3CH4CSHS2C2H3CHC5H5SC4PCHC3H2C2HC2H2C2H3CH2C2HCHSHCH2CH3C4H2C2HSHSFe2SHFeS2CHSHFeHC6H2SC7H4FeHSC2SFeS3HSHC8H3C7H4CH2C3PC18H9C2H10C3H7C2HC2SCH3C2HCSHCH6CH2SHC2H2C4H2CHC3SCHC3HCHCFeCHC4H3C5P2CHC3H2C2SH5C4PH2C2FeC3SCH3C3H2C2H5CFe2C2HC2HPCHC3HC2HC2H2SCHFeH2CHPSCHCHSCHSH2CSFe2SCHSC6HCH2C6H5C3HC2HFeSHFeCSC2SFeSC6SH5C7H6C3H3C2HC2HCHCHCHCHCH3C3HCSFeC6HC3SC2HFeC2HCSCFeH2CHCHSHC2PC2HC4HC2H2CH2SH2C3HC2HC4PC9SC9H12CH6CHC3H2SCH2C2HCH4C2HCH4CHCH3SCSHFeHC2HCH2SCSHFeCHCSHCHCFeHCHC3HSHFeSCFeS2HCSC2HC6H3C7H4FeCSHCSFeS2FeCSHSHC6H3C7H11C2H3CPCHC2HCH3CH3CHSCH2C2HCHCHCH3CFeHCHSC6HCHC3HSCH2CHCHC3HCH2C4HC2HPC3HCHC15H4CHCH10CH2C3H3CHC5H2CHC3HPSHCHCFeC4HCSC2FeH2FeHC3HCH2C3HC3HCH3SH2CSHFeSHCSC7H3C6H6CHSHC2FeSHFeCSHCSFeSC6SH3CH2C6H4CSCHPC2HC9SCHCH2C2HC2H3CH3CH2CH2C4PC2H2SC3H2C6H3C7H3C2H2C5HC2HCHCHSC2H2C2H2CSC4PC4H2C3HFeHC6H2CH4CH2C2H2CH4C2HC2H2FeH5CH3C2HC3H3CH2C3H3CHSHC2SCHFePH2CH3CPH2FeHC2H2SHFeSCSHC2H2CSC4HCHCHC2H2CPHC2HC2HC7H4C7H4CH2CHPC4HC3HC4SC5HCH2CHSH3CH3C2H3CPH2CHCHC2H2C2HC3HC3HFeH2S2HCH2C3HC3HCSH3CFeH2C3H2C7H3CHC3HCHCH6SHC2H2C3HCH2CSC3PFeCHC2SHC2H2CHC3H2CSHFeSC2HCSC2H3SCFeSCSC2PH2C2HC7H3C6H2CH2PHCHS2CH2C2HC2HCH2CSHFeCH2CH3CH3CH2C3H2C6HFeCPSC2HCH2C3HCH5FeCHSHC2FeSC3HCSH6SHC3HC3FeCH6FeC9PC18H6CH4CH3C3HPHCHC3SH2C2H6SC4HC2FeC2HCHCH2C2FeS3HPHSFeCSC2H2SHC4HC2SC4HC2HC7H3SC6H5C2H2CHCH3CHC2HC3SHFeC2H3SH5C2HCHC2SCHC2HC6S2H4C6PC3HFeCHC7H7C4H4CH2CFePC14H2Fe2H7S2H3C2H3C2S2CSH2C2H2CHC2FeHCFeC3H3C2H3CHC3HC2HFeH2C3SHC3HC3SCH2SPHCH2CH6CH4CHC4H2SC4H3FeC2SHFeSC5H4C7H4C6H2SHSCHCHC4SH5C2HCHSFeH2CHCHCHC2HC2HCPH2PC2P2CHC2HC2HCHC3HFeCH2C4HCH2C5H2CHSH2C2SC2HC2H4CH5CHCHCFeHC2HSCHCHFeCH2SCH2CSC2FeHCHSHC2
_chemical_formula_sum              "P48 S192 H1152 Fe96 C1440"
_cell_length_a       44.2855
_cell_length_b       44.5006
_cell_length_c       38.4294
_cell_angle_alpha    89.8999
_cell_angle_beta     90.0262
_cell_angle_gamma    90.3102

_space_group_name_H-M_alt    "P 1"
_space_group_IT_number       1

loop_
  _space_group_symop_operation_xyz
  'x, y, z'

loop_
  _atom_site_type_symbol
  _atom_site_label
  _atom_site_symmetry_multiplicity
  _atom_site_fract_x
  _atom_site_fract_y
  _atom_site_fract_z
  _atom_site_occupancy
  P   P1        1.0  0.11301  0.35208  0.02907  1.0000
  S   S1        1.0  0.05514  0.15389  0.04753  1.0000
  H   H1        1.0  0.14369  0.48546  0.43828  1.0000
  H   H2        1.0  0.03654  0.30696  0.10680  1.0000
  Fe  Fe1       1.0  0.16161  0.33310  0.49515  1.0000
  C   C1        1.0  0.16729  0.49038  0.43345  1.0000
  Fe  Fe2       1.0  0.09828  0.14457  0.07576  1.0000
  S   S2        1.0  0.10261  0.11387  0.12288  1.0000
  H   H3        1.0  0.10982  0.34627  0.24712  1.0000
  S   S3        1.0  0.11553  0.19215  0.07174  1.0000
  C   C2        1.0  0.20845  0.34962  0.07725  1.0000
  Fe  Fe3       1.0  0.12323  0.38576  0.46620  1.0000
  H   H4        1.0  0.04098  0.13099  0.31500  1.0000
  S   S4        1.0  0.08200  0.39517  0.43230  1.0000
  C   C3        1.0  0.27905  0.26142  0.32025  1.0000
  C   C4        1.0  0.10834  0.31847  0.00297  1.0000
  C   C5        1.0  0.08909  0.05377  0.04571  1.0000
  H   H5        1.0  0.31350  0.18731  0.35585  1.0000
  S   S5        1.0  0.16706  0.36472  0.44973  1.0000
  C   C6        1.0  0.24847  0.18407  0.42306  1.0000
  C   C7        1.0  0.07688  0.38044  0.07868  1.0000
  C   C8        1.0  0.21668  0.27536  0.02652  1.0000
  H   H6        1.0  0.08810  0.40108  0.07129  1.0000
  H   H7        1.0  0.04928  0.04928  0.37324  1.0000
  H   H8        1.0  0.17733  0.44493  0.41789  1.0000
  C   C9        1.0  0.06146  0.46206  0.05922  1.0000
  C   C10       1.0  0.07044  0.32655  0.07413  1.0000
  H   H9        1.0  0.30626  0.04990  0.44626  1.0000
  C   C11       1.0  0.06670  0.09579  0.49262  1.0000
  C   C12       1.0  0.08476  0.35307  0.06301  1.0000
  C   C13       1.0  0.21597  0.00790  0.48927  1.0000
  H   H10       1.0  0.19728  0.01914  0.47681  1.0000
  C   C14       1.0  0.21404  0.20696  0.38196  1.0000
  C   C15       1.0  0.18341  0.34154  0.09739  1.0000
  C   C16       1.0  0.12246  0.41263  0.01311  1.0000
  C   C17       1.0  0.05160  0.49128  0.44987  1.0000
  H   H11       1.0  0.13574  0.41373  0.03676  1.0000
  H   H12       1.0  0.17935  0.21877  0.49300  1.0000
  S   S6        1.0  0.29853  0.12569  0.46036  1.0000
  H   H13       1.0  0.13533  0.33571  0.09894  1.0000
  C   C18       1.0  0.18606  0.46751  0.42135  1.0000
  C   C19       1.0  0.07505  0.45908  0.33831  1.0000
  C   C20       1.0  0.05026  0.44162  0.34870  1.0000
  C   C21       1.0  0.05272  0.42224  0.37762  1.0000
  C   C22       1.0  0.08007  0.41973  0.39600  1.0000
  C   C23       1.0  0.10486  0.43705  0.38549  1.0000
  C   C24       1.0  0.10228  0.45678  0.35695  1.0000
  H   H14       1.0  0.02926  0.44305  0.33445  1.0000
  H   H15       1.0  0.03341  0.40896  0.38569  1.0000
  H   H16       1.0  0.12598  0.43524  0.39936  1.0000
  H   H17       1.0  0.03430  0.42377  0.48274  1.0000
  C   C25       1.0  0.07159  0.09914  0.14656  1.0000
  C   C26       1.0  0.07673  0.07620  0.17102  1.0000
  C   C27       1.0  0.05330  0.06576  0.19274  1.0000
  C   C28       1.0  0.02459  0.07852  0.19051  1.0000
  H   H18       1.0  0.25970  0.18761  0.33033  1.0000
  C   C29       1.0  0.04255  0.11105  0.14333  1.0000
  H   H19       1.0  0.09915  0.06693  0.17371  1.0000
  H   H20       1.0  0.05774  0.04857  0.21197  1.0000
  H   H21       1.0  0.28493  0.28353  0.27072  1.0000
  H   H22       1.0  0.03839  0.12886  0.12479  1.0000
  C   C30       1.0  0.08605  0.28210  0.28704  1.0000
  C   C31       1.0  0.09690  0.31147  0.28324  1.0000
  H   H23       1.0  0.18062  0.14783  0.42344  1.0000
  C   C32       1.0  0.09476  0.30622  0.22055  1.0000
  C   C33       1.0  0.08425  0.27652  0.22413  1.0000
  C   C34       1.0  0.07973  0.26463  0.25763  1.0000
  P   P2        1.0  0.07645  0.25447  0.18565  1.0000
  C   C35       1.0  0.07388  0.21490  0.19625  1.0000
  C   C36       1.0  0.04043  0.26475  0.16703  1.0000
  C   C37       1.0  0.03081  0.36542  0.23550  1.0000
  H   H24       1.0  0.30120  0.33581  0.41839  1.0000
  C   C38       1.0  0.20170  0.26176  0.49726  1.0000
  H   H25       1.0  0.22409  0.36451  0.02711  1.0000
  H   H26       1.0  0.05488  0.36984  0.23491  1.0000
  C   C39       1.0  0.09731  0.19501  0.18784  1.0000
  C   C40       1.0  0.09460  0.16443  0.19575  1.0000
  C   C41       1.0  0.06854  0.15341  0.21188  1.0000
  H   H27       1.0  0.17370  0.25171  0.02851  1.0000
  C   C42       1.0  0.04756  0.20354  0.21208  1.0000
  C   C43       1.0  0.10738  0.26065  0.15559  1.0000
  C   C44       1.0  0.13721  0.26170  0.16806  1.0000
  C   C45       1.0  0.16139  0.26528  0.14495  1.0000
  C   C46       1.0  0.15600  0.26780  0.10925  1.0000
  C   C47       1.0  0.12642  0.26713  0.09667  1.0000
  C   C48       1.0  0.10221  0.26366  0.11974  1.0000
  H   H28       1.0  0.08282  0.27276  0.31286  1.0000
  H   H29       1.0  0.23100  0.45568  0.40526  1.0000
  Fe  Fe4       1.0  0.07415  0.20021  0.03896  1.0000
  H   H30       1.0  0.09820  0.31590  0.19494  1.0000
  H   H31       1.0  0.07171  0.24185  0.26127  1.0000
  H   H32       1.0  0.20902  0.22386  0.36251  1.0000
  C   C49       1.0  0.32258  0.19546  0.38018  1.0000
  C   C50       1.0  0.03952  0.35492  0.11419  1.0000
  H   H33       1.0  0.02445  0.16404  0.23149  1.0000
  Fe  Fe5       1.0  0.32258  0.31364  0.02157  1.0000
  H   H34       1.0  0.11746  0.20265  0.17457  1.0000
  H   H35       1.0  0.11240  0.14900  0.18843  1.0000
  C   C51       1.0  0.24262  0.20609  0.39779  1.0000
  H   H36       1.0  0.12223  0.26845  0.06888  1.0000
  H   H37       1.0  0.17480  0.26995  0.09131  1.0000
  H   H38       1.0  0.14185  0.25909  0.19558  1.0000
  H   H39       1.0  0.18440  0.26551  0.15456  1.0000
  C   C52       1.0  0.06514  0.07592  0.46428  1.0000
  C   C53       1.0  0.02444  0.28992  0.17901  1.0000
  H   H40       1.0  0.07965  0.26278  0.10933  1.0000
  C   C54       1.0  0.04319  0.07282  0.37251  1.0000
  C   C55       1.0  0.20945  0.22227  0.01289  1.0000
  H   H41       1.0  0.23104  0.14595  0.45142  1.0000
  H   H42       1.0  0.10204  0.32489  0.30608  1.0000
  H   H43       1.0  0.03339  0.30396  0.19952  1.0000
  H   H44       1.0  0.03948  0.22714  0.13119  1.0000
  C   C56       1.0  0.10125  0.32352  0.25001  1.0000
  C   C57       1.0  0.02768  0.24677  0.14079  1.0000
  H   H45       1.0  0.06633  0.12959  0.21737  1.0000
  C   C58       1.0  0.11995  0.07231  0.46483  1.0000
  H   H46       1.0  0.06219  0.01316  0.46731  1.0000
  H   H47       1.0  0.16963  0.18703  0.37923  1.0000
  H   H48       1.0  0.05438  0.07703  0.31817  1.0000
  H   H49       1.0  0.02561  0.36955  0.47335  1.0000
  H   H50       1.0  0.09151  0.05039  0.42726  1.0000
  H   H51       1.0  0.01759  0.49753  0.35534  1.0000
  H   H52       1.0  0.27024  0.02835  0.40421  1.0000
  C   C59       1.0  0.01483  0.24984  0.02815  1.0000
  H   H53       1.0  0.12159  0.47015  0.34908  1.0000
  H   H54       1.0  0.06781  0.45193  0.08379  1.0000
  H   H55       1.0  0.07390  0.07138  0.05418  1.0000
  H   H56       1.0  0.23112  0.34784  0.08781  1.0000
  H   H57       1.0  0.07643  0.30498  0.06321  1.0000
  H   H58       1.0  0.26003  0.19018  0.26623  1.0000
  C   C60       1.0  0.11525  0.04781  0.06477  1.0000
  C   C61       1.0  0.25404  0.32744  0.42806  1.0000
  C   C62       1.0  0.12931  0.00968  0.02292  1.0000
  C   C63       1.0  0.01922  0.10091  0.16542  1.0000
  C   C64       1.0  0.04778  0.32756  0.09930  1.0000
  C   C65       1.0  0.15434  0.34270  0.08313  1.0000
  C   C66       1.0  0.07406  0.48963  0.04955  1.0000
  C   C67       1.0  0.23592  0.27747  0.41375  1.0000
  H   H59       1.0  0.04806  0.40255  0.11600  1.0000
  C   C68       1.0  0.22624  0.16297  0.43197  1.0000
  C   C69       1.0  0.05431  0.38134  0.10415  1.0000
  H   H60       1.0  0.27269  0.23803  0.23621  1.0000
  H   H61       1.0  0.02893  0.21829  0.21810  1.0000
  H   H62       1.0  0.27008  0.18320  0.43618  1.0000
  C   C70       1.0  0.04495  0.17291  0.21986  1.0000
  C   C71       1.0  0.15017  0.35216  0.04858  1.0000
  H   H63       1.0  0.18666  0.33384  0.12388  1.0000
  H   H64       1.0  0.12019  0.06060  0.08809  1.0000
  Fe  Fe6       1.0  0.13703  0.17886  0.02120  1.0000
  H   H65       1.0  0.09134  0.46361  0.45016  1.0000
  H   H66       1.0  0.04744  0.48785  0.42233  1.0000
  C   C72       1.0  0.27187  0.23445  0.33751  1.0000
  C   C73       1.0  0.19785  0.16405  0.41622  1.0000
  C   C74       1.0  0.13527  0.02572  0.05347  1.0000
  C   C75       1.0  0.02491  0.02778  0.43488  1.0000
  S   S7        1.0  0.04910  0.24345  0.04996  1.0000
  C   C76       1.0  0.21637  0.47358  0.41406  1.0000
  C   C77       1.0  0.00821  0.38551  0.46621  1.0000
  C   C78       1.0  0.09206  0.06472  0.45009  1.0000
  C   C79       1.0  0.19761  0.24991  0.02336  1.0000
  C   C80       1.0  0.02592  0.11822  0.40073  1.0000
  S   S8        1.0  0.23356  0.41657  0.47668  1.0000
  H   H67       1.0  0.02328  0.15752  0.36802  1.0000
  C   C81       1.0  0.17546  0.36050  0.02861  1.0000
  C   C82       1.0  0.01847  0.34666  0.26104  1.0000
  C   C83       1.0  0.03345  0.00166  0.09812  1.0000
  H   H68       1.0  0.00506  0.11135  0.01759  1.0000
  P   P3        1.0  0.02963  0.06741  0.44315  1.0000
  C   C84       1.0  0.24794  0.27362  0.01974  1.0000
  S   S9        1.0  0.27074  0.30687  0.02319  1.0000
  S   S10       1.0  0.16757  0.28213  0.49175  1.0000
  H   H69       1.0  0.31092  0.28492  0.39547  1.0000
  C   C85       1.0  0.30795  0.21824  0.39894  1.0000
  Fe  Fe7       1.0  0.03268  0.49234  0.26715  1.0000
  C   C86       1.0  0.02882  0.13387  0.36928  1.0000
  H   H70       1.0  0.28309  0.45832  0.46791  1.0000
  C   C87       1.0  0.01203  0.37879  0.21082  1.0000
  C   C88       1.0  0.19170  0.18610  0.39130  1.0000
  C   C89       1.0  0.20446  0.35917  0.04293  1.0000
  C   C90       1.0  0.00469  0.23024  0.00232  1.0000
  H   H71       1.0  0.21741  0.26156  0.41366  1.0000
  C   C91       1.0  0.03998  0.44810  0.03789  1.0000
  C   C92       1.0  0.24238  0.02423  0.49706  1.0000
  S   S11       1.0  0.12325  0.13020  0.02788  1.0000
  S   S12       1.0  0.07317  0.48421  0.30252  1.0000
  C   C93       1.0  0.30657  0.02598  0.44114  1.0000
  H   H72       1.0  0.13216  0.00790  0.47680  1.0000
  C   C94       1.0  0.20078  0.23014  0.49651  1.0000
  P   P4        1.0  0.27179  0.23230  0.38455  1.0000
  C   C95       1.0  0.07647  0.47761  0.46544  1.0000
  H   H73       1.0  0.14066  0.06373  0.45361  1.0000
  H   H74       1.0  0.30806  0.24332  0.44723  1.0000
  H   H75       1.0  0.02166  0.35573  0.13343  1.0000
  H   H76       1.0  0.03528  0.01613  0.07558  1.0000
  H   H77       1.0  0.03309  0.33619  0.28011  1.0000
  C   C96       1.0  0.26582  0.46922  0.48315  1.0000
  C   C97       1.0  0.04636  0.08859  0.34120  1.0000
  S   S13       1.0  0.24441  0.06297  0.48707  1.0000
  C   C98       1.0  0.26501  0.20877  0.31769  1.0000
  H   H78       1.0  0.02165  0.39333  0.19104  1.0000
  H   H79       1.0  0.28456  0.28157  0.33462  1.0000
  C   C99       1.0  0.28621  0.01382  0.41727  1.0000
  C   C100      1.0  0.26526  0.21010  0.28132  1.0000
  C   C101      1.0  0.27239  0.23703  0.26440  1.0000
  C   C102      1.0  0.28840  0.29063  0.40416  1.0000
  C   C103      1.0  0.23055  0.30644  0.42625  1.0000
  H   H80       1.0  0.20711  0.29657  0.03416  1.0000
  C   C104      1.0  0.25982  0.24585  0.00973  1.0000
  C   C105      1.0  0.04411  0.00642  0.45012  1.0000
  Fe  Fe8       1.0  0.18801  0.39596  0.48906  1.0000
  C   C106      1.0  0.27034  0.49887  0.49487  1.0000
  C   C107      1.0  0.32698  0.00733  0.45848  1.0000
  H   H81       1.0  0.20819  0.31228  0.43541  1.0000
  C   C108      1.0  0.28299  0.31951  0.41705  1.0000
  C   C109      1.0  0.27928  0.26266  0.28386  1.0000
  H   H82       1.0  0.06295  0.04302  0.00036  1.0000
  C   C110      1.0  0.03236  0.08739  0.40234  1.0000
  H   H83       1.0  0.24975  0.34979  0.43816  1.0000
  C   C111      1.0  0.26487  0.26933  0.40233  1.0000
  C   C112      1.0  0.10320  0.01576  0.00342  1.0000
  C   C113      1.0  0.31975  0.22708  0.43127  1.0000
  C   C114      1.0  0.12123  0.09128  0.49370  1.0000
  C   C115      1.0  0.03888  0.11900  0.33946  1.0000
  C   C116      1.0  0.01311  0.41617  0.47154  1.0000
  H   H84       1.0  0.03011  0.42716  0.04650  1.0000
  H   H85       1.0  0.15568  0.02143  0.06818  1.0000
  C   C117      1.0  0.23886  0.45381  0.49083  1.0000
  C   C118      1.0  0.03043  0.46193  0.00687  1.0000
  H   H86       1.0  0.01858  0.13017  0.42374  1.0000
  C   C119      1.0  0.24067  0.22048  0.00613  1.0000
  C   C120      1.0  0.08303  0.03774  0.01522  1.0000
  H   H87       1.0  0.00524  0.29027  0.05673  1.0000
  S   S14       1.0  0.18627  0.18967  0.00667  1.0000
  H   H88       1.0  0.31990  0.35434  0.49381  1.0000
  H   H89       1.0  0.28369  0.24401  0.00426  1.0000
  H   H90       1.0  0.08168  0.00039  0.10518  1.0000
  H   H91       1.0  0.12929  0.45961  0.00155  1.0000
  H   H92       1.0  0.05961  0.32166  0.00048  1.0000
  H   H93       1.0  0.15614  0.30762  0.00029  1.0000
  H   H94       1.0  0.17291  0.36720  0.00166  1.0000
  C   C121      1.0  0.10894  0.38547  0.00257  1.0000
  C   C122      1.0  0.28568  0.31541  0.57574  1.0000
  H   H95       1.0  0.14181  0.49543  0.56414  1.0000
  C   C123      1.0  0.00509  0.34293  0.96833  1.0000
  Fe  Fe9       1.0  0.28635  0.09040  0.50025  1.0000
  H   H96       1.0  0.20501  0.46670  0.58432  1.0000
  H   H97       1.0  0.17975  0.15416  0.55074  1.0000
  S   S15       1.0  0.05808  0.10269  0.96964  1.0000
  C   C124      1.0  0.10054  0.26639  0.96264  1.0000
  C   C125      1.0  0.00824  0.19772  0.89255  1.0000
  C   C126      1.0  0.00999  0.36174  0.93972  1.0000
  H   H98       1.0  0.04658  0.10623  0.50285  1.0000
  P   P5        1.0  0.16770  0.03251  0.59583  1.0000
  H   H99       1.0  0.02080  0.04040  0.87368  1.0000
  C   C127      1.0  0.02282  0.46628  0.91851  1.0000
  S   S16       1.0  0.18516  0.36312  0.53338  1.0000
  C   C128      1.0  0.23841  0.40142  0.60663  1.0000
  Fe  Fe10      1.0  0.13976  0.38405  0.54358  1.0000
  S   S17       1.0  0.12380  0.38847  0.59967  1.0000
  S   S18       1.0  0.28626  0.12285  0.54534  1.0000
  C   C129      1.0  0.15068  0.09305  0.59301  1.0000
  Fe  Fe11      1.0  0.08068  0.14134  0.99897  1.0000
  H   H100      1.0  0.10633  0.02750  0.72621  1.0000
  C   C130      1.0  0.19259  0.47458  0.60673  1.0000
  C   C131      1.0  0.10084  0.01965  0.92602  1.0000
  C   C132      1.0  0.06222  0.49872  0.52098  1.0000
  C   C133      1.0  0.13126  0.00198  0.50413  1.0000
  C   C134      1.0  0.02518  0.19142  0.92232  1.0000
  C   C135      1.0  0.27281  0.42923  0.56952  1.0000
  C   C136      1.0  0.02117  0.47957  0.88555  1.0000
  C   C137      1.0  0.28087  0.34985  0.52678  1.0000
  C   C138      1.0  0.07329  0.46725  0.65039  1.0000
  C   C139      1.0  0.08725  0.47096  0.61777  1.0000
  C   C140      1.0  0.10127  0.44662  0.60092  1.0000
  C   C141      1.0  0.10247  0.41852  0.61720  1.0000
  C   C142      1.0  0.08832  0.41475  0.64970  1.0000
  C   C143      1.0  0.07345  0.43886  0.66602  1.0000
  H   H101      1.0  0.09758  0.24617  0.94735  1.0000
  H   H102      1.0  0.11222  0.44980  0.57606  1.0000
  H   H103      1.0  0.08919  0.39313  0.66257  1.0000
  H   H104      1.0  0.06301  0.43572  0.69122  1.0000
  H   H105      1.0  0.04090  0.48057  0.86892  1.0000
  H   H106      1.0  0.23891  0.30632  0.68092  1.0000
  C   C144      1.0  0.33466  0.43279  0.52056  1.0000
  C   C145      1.0  0.30966  0.20300  0.63227  1.0000
  H   H107      1.0  0.12115  0.09115  0.90372  1.0000
  C   C146      1.0  0.22888  0.03517  0.61362  1.0000
  H   H108      1.0  0.25417  0.39266  0.65865  1.0000
  C   C147      1.0  0.03647  0.08320  0.85480  1.0000
  C   C148      1.0  0.03051  0.06191  0.88067  1.0000
  C   C149      1.0  0.03697  0.06854  0.91566  1.0000
  C   C150      1.0  0.05002  0.09622  0.92511  1.0000
  C   C151      1.0  0.05645  0.11736  0.89916  1.0000
  C   C152      1.0  0.04936  0.11098  0.86418  1.0000
  C   C153      1.0  0.10222  0.02586  0.86313  1.0000
  H   H109      1.0  0.27765  0.27063  0.50749  1.0000
  H   H110      1.0  0.06684  0.13858  0.90600  1.0000
  C   C154      1.0  0.04434  0.01128  0.54702  1.0000
  H   H111      1.0  0.32062  0.00053  0.56424  1.0000
  H   H112      1.0  0.29082  0.25020  0.56641  1.0000
  C   C155      1.0  0.14710  0.01916  0.52867  1.0000
  H   H113      1.0  0.05295  0.27563  0.96567  1.0000
  C   C156      1.0  0.11001  0.04973  0.92985  1.0000
  C   C157      1.0  0.30480  0.33782  0.65236  1.0000
  H   H114      1.0  0.16220  0.03142  0.72469  1.0000
  C   C158      1.0  0.25909  0.32020  0.68058  1.0000
  C   C159      1.0  0.29384  0.24245  0.59285  1.0000
  H   H115      1.0  0.14575  0.44867  0.67016  1.0000
  H   H116      1.0  0.07544  0.41026  0.92798  1.0000
  H   H117      1.0  0.04458  0.20521  0.92894  1.0000
  S   S19       1.0  0.02865  0.49682  0.77290  1.0000
  C   C160      1.0  0.30103  0.22066  0.66056  1.0000
  C   C161      1.0  0.12948  0.27542  0.97278  1.0000
  C   C162      1.0  0.27814  0.32058  0.65134  1.0000
  C   C163      1.0  0.01710  0.16725  0.94366  1.0000
  H   H118      1.0  0.00645  0.06223  0.98796  1.0000
  C   C164      1.0  0.00856  0.02988  0.58940  1.0000
  C   C165      1.0  0.14833  0.03134  0.63729  1.0000
  C   C166      1.0  0.00368  0.40572  0.97658  1.0000
  C   C167      1.0  0.06341  0.03571  0.55401  1.0000
  S   S20       1.0  0.01082  0.02012  0.73504  1.0000
  C   C168      1.0  0.14952  0.03113  0.70057  1.0000
  H   H119      1.0  0.29843  0.36754  0.73363  1.0000
  H   H120      1.0  0.05410  0.12754  0.84426  1.0000
  H   H121      1.0  0.21663  0.39070  0.61055  1.0000
  H   H122      1.0  0.13270  0.08733  0.61093  1.0000
  C   C169      1.0  0.22952  0.27616  0.50213  1.0000
  C   C170      1.0  0.31200  0.35479  0.68187  1.0000
  H   H123      1.0  0.31905  0.18078  0.63639  1.0000
  C   C171      1.0  0.25955  0.40256  0.63362  1.0000
  H   H124      1.0  0.02107  0.07087  0.61549  1.0000
  C   C172      1.0  0.14699  0.01082  0.56392  1.0000
  H   H125      1.0  0.22533  0.05875  0.61911  1.0000
  H   H126      1.0  0.11286  0.05972  0.95531  1.0000
  H   H127      1.0  0.01355  0.35215  0.91415  1.0000
  C   C173      1.0  0.10162  0.02836  0.67048  1.0000
  C   C174      1.0  0.08836  0.41102  0.95192  1.0000
  S   S21       1.0  0.14455  0.41967  0.50227  1.0000
  C   C175      1.0  0.11498  0.06771  0.90051  1.0000
  C   C176      1.0  0.17108  0.07112  0.58157  1.0000
  Fe  Fe12      1.0  0.30132  0.15720  0.50600  1.0000
  H   H128      1.0  0.06988  0.07607  0.58414  1.0000
  H   H129      1.0  0.08450  0.03819  0.54002  1.0000
  C   C177      1.0  0.16465  0.03228  0.66864  1.0000
  C   C178      1.0  0.25530  0.22753  0.50388  1.0000
  H   H130      1.0  0.26728  0.36533  0.51161  1.0000
  H   H131      1.0  0.32027  0.33788  0.63062  1.0000
  C   C179      1.0  0.28897  0.24930  0.65505  1.0000
  C   C180      1.0  0.22109  0.49754  0.52195  1.0000
  Fe  Fe13      1.0  0.02224  0.49777  0.71448  1.0000
  H   H132      1.0  0.20974  0.06271  0.54873  1.0000
  H   H133      1.0  0.07724  0.02604  0.67141  1.0000
  H   H134      1.0  0.11336  0.07027  0.84456  1.0000
  H   H135      1.0  0.14891  0.26204  0.96548  1.0000
  C   C181      1.0  0.17706  0.13098  0.55906  1.0000
  C   C182      1.0  0.09169  0.38493  0.97189  1.0000
  H   H136      1.0  0.33271  0.36789  0.68263  1.0000
  C   C183      1.0  0.05512  0.05714  0.57874  1.0000
  P   P6        1.0  0.26956  0.29750  0.61386  1.0000
  H   H137      1.0  0.00811  0.46361  0.53019  1.0000
  C   C184      1.0  0.26671  0.00942  0.51233  1.0000
  C   C185      1.0  0.25756  0.02303  0.61907  1.0000
  H   H138      1.0  0.01792  0.21072  0.99597  1.0000
  H   H139      1.0  0.13842  0.13991  0.59136  1.0000
  H   H140      1.0  0.09939  0.45813  0.94711  1.0000
  C   C186      1.0  0.07546  0.28317  0.97266  1.0000
  H   H141      1.0  0.30335  0.41819  0.64982  1.0000
  H   H142      1.0  0.19601  0.45629  0.51683  1.0000
  C   C187      1.0  0.28569  0.26066  0.62109  1.0000
  H   H143      1.0  0.27710  0.44026  0.54499  1.0000
  H   H144      1.0  0.28714  0.02174  0.51830  1.0000
  C   C188      1.0  0.19398  0.07935  0.55815  1.0000
  H   H145      1.0  0.28227  0.26236  0.67740  1.0000
  C   C189      1.0  0.15379  0.12291  0.58190  1.0000
  H   H146      1.0  0.30363  0.21204  0.68678  1.0000
  H   H147      1.0  0.21512  0.11520  0.52928  1.0000
  C   C190      1.0  0.11067  0.05593  0.86720  1.0000
  C   C191      1.0  0.15951  0.46434  0.65532  1.0000
  C   C192      1.0  0.24510  0.41471  0.57461  1.0000
  H   H148      1.0  0.08086  0.36450  0.96310  1.0000
  H   H149      1.0  0.31246  0.20002  0.57655  1.0000
  S   S22       1.0  0.02758  0.07610  0.81068  1.0000
  H   H150      1.0  0.14365  0.29031  0.58449  1.0000
  C   C193      1.0  0.25619  0.25915  0.50480  1.0000
  H   H151      1.0  0.01444  0.21650  0.87604  1.0000
  H   H152      1.0  0.04411  0.45734  0.92731  1.0000
  H   H153      1.0  0.10033  0.46970  0.51323  1.0000
  H   H154      1.0  0.32379  0.41191  0.52803  1.0000
  C   C194      1.0  0.02770  0.05421  0.59642  1.0000
  C   C195      1.0  0.29445  0.42992  0.59613  1.0000
  H   H155      1.0  0.03039  0.16218  0.96657  1.0000
  H   H156      1.0  0.01355  0.06195  0.51681  1.0000
  C   C196      1.0  0.30599  0.21389  0.59847  1.0000
  C   C197      1.0  0.29271  0.35459  0.71064  1.0000
  P   P7        1.0  0.32979  0.44979  0.59039  1.0000
  H   H157      1.0  0.03230  0.05190  0.93543  1.0000
  H   H158      1.0  0.01206  0.40687  0.92088  1.0000
  H   H159      1.0  0.17306  0.43115  0.61790  1.0000
  C   C198      1.0  0.17493  0.45444  0.62587  1.0000
  C   C199      1.0  0.32358  0.48595  0.61035  1.0000
  C   C200      1.0  0.28743  0.41689  0.62847  1.0000
  H   H160      1.0  0.22862  0.41416  0.55378  1.0000
  C   C201      1.0  0.26629  0.33729  0.70999  1.0000
  H   H161      1.0  0.10349  0.02889  0.61487  1.0000
  C   C202      1.0  0.11663  0.02968  0.63852  1.0000
  C   C203      1.0  0.26850  0.33580  0.55610  1.0000
  C   C204      1.0  0.22926  0.29412  0.60723  1.0000
  C   C205      1.0  0.20997  0.31788  0.61621  1.0000
  C   C206      1.0  0.17913  0.31628  0.60851  1.0000
  C   C207      1.0  0.16735  0.29110  0.59155  1.0000
  C   C208      1.0  0.18631  0.26732  0.58272  1.0000
  C   C209      1.0  0.21716  0.26881  0.59037  1.0000
  C   C210      1.0  0.11805  0.02911  0.70148  1.0000
  C   C211      1.0  0.04309  0.48990  0.99758  1.0000
  H   H162      1.0  0.21878  0.33799  0.62830  1.0000
  H   H163      1.0  0.16438  0.33491  0.61481  1.0000
  H   H164      1.0  0.15995  0.03846  0.51992  1.0000
  H   H165      1.0  0.17724  0.24819  0.56868  1.0000
  H   H166      1.0  0.23154  0.25060  0.58201  1.0000
  H   H167      1.0  0.24544  0.34080  0.56308  1.0000
  C   C212      1.0  0.19704  0.10914  0.54706  1.0000
  H   H168      1.0  0.14290  0.09724  0.50490  1.0000
  H   H169      1.0  0.09575  0.11846  0.52934  1.0000
  H   H170      1.0  0.08761  0.49285  0.60580  1.0000
  H   H171      1.0  0.25155  0.33680  0.73252  1.0000
  C   C213      1.0  0.20505  0.01694  0.60153  1.0000
  H   H172      1.0  0.27589  0.03723  0.62823  1.0000
  H   H173      1.0  0.00490  0.31871  0.96510  1.0000
  C   C214      1.0  0.32792  0.32372  0.53636  1.0000
  S   S23       1.0  0.09618  0.18891  0.98778  1.0000
  C   C215      1.0  0.01694  0.00794  0.56504  1.0000
  C   C216      1.0  0.16151  0.49442  0.66550  1.0000
  H   H174      1.0  0.18902  0.03366  0.66869  1.0000
  C   C217      1.0  0.31051  0.34370  0.51680  1.0000
  C   C218      1.0  0.07933  0.30917  0.99257  1.0000
  C   C219      1.0  0.11883  0.43873  0.99325  1.0000
  C   C220      1.0  0.10188  0.43792  0.96261  1.0000
  Fe  Fe14      1.0  0.01187  0.03000  0.79258  1.0000
  C   C221      1.0  0.31564  0.30972  0.56582  1.0000
  C   C222      1.0  0.21661  0.46804  0.51041  1.0000
  C   C223      1.0  0.00928  0.39299  0.94376  1.0000
  H   H175      1.0  0.25014  0.19929  0.99791  1.0000
  H   H176      1.0  0.22625  0.18884  0.50020  1.0000
  H   H177      1.0  0.32951  0.29437  0.58067  1.0000
  S   S24       1.0  0.28974  0.20738  0.50747  1.0000
  S   S25       1.0  0.11578  0.35146  0.50857  1.0000
  C   C224      1.0  0.09774  0.00765  0.89239  1.0000
  C   C225      1.0  0.13344  0.30139  0.99275  1.0000
  H   H178      1.0  0.23057  0.30042  0.50309  1.0000
  H   H179      1.0  0.09870  0.01686  0.83724  1.0000
  C   C226      1.0  0.09464  0.10310  0.50752  1.0000
  C   C227      1.0  0.22735  0.21310  0.50032  1.0000
  C   C228      1.0  0.08162  0.48116  0.50098  1.0000
  S   S26       1.0  0.33439  0.07491  0.50883  1.0000
  C   C229      1.0  0.05923  0.74266  0.17990  1.0000
  C   C230      1.0  0.06920  0.83549  0.21275  1.0000
  H   H180      1.0  0.08387  0.69711  0.09892  1.0000
  H   H181      1.0  0.01379  0.73110  0.16461  1.0000
  C   C231      1.0  0.08158  0.88481  0.27691  1.0000
  C   C232      1.0  0.13236  0.62719  0.12855  1.0000
  Fe  Fe15      1.0  0.10158  0.63915  0.01895  1.0000
  S   S27       1.0  0.09066  0.59747  0.05111  1.0000
  H   H182      1.0  0.22804  0.62343  0.49513  1.0000
  S   S28       1.0  0.11811  0.68468  0.03573  1.0000
  H   H183      1.0  0.18877  0.63630  0.06931  1.0000
  Fe  Fe16      1.0  0.14509  0.87088  0.47166  1.0000
  C   C233      1.0  0.15013  0.74241  0.09652  1.0000
  S   S29       1.0  0.11614  0.87232  0.42261  1.0000
  C   C234      1.0  0.11417  0.92613  0.29497  1.0000
  H   H184      1.0  0.11085  0.96687  0.26497  1.0000
  H   H185      1.0  0.10954  0.53344  0.33528  1.0000
  P   P8        1.0  0.15374  0.54928  0.45190  1.0000
  S   S30       1.0  0.19399  0.85702  0.47618  1.0000
  H   H186      1.0  0.15654  0.59645  0.09569  1.0000
  C   C235      1.0  0.15411  0.61962  0.10382  1.0000
  H   H187      1.0  0.19516  0.69806  0.24165  1.0000
  S   S31       1.0  0.30735  0.60005  0.46987  1.0000
  H   H188      1.0  0.10374  0.79925  0.25364  1.0000
  H   H189      1.0  0.05224  0.75494  0.20280  1.0000
  C   C236      1.0  0.21145  0.89222  0.39026  1.0000
  H   H190      1.0  0.29106  0.51075  0.48879  1.0000
  H   H191      1.0  0.01174  0.51731  0.45752  1.0000
  P   P9        1.0  0.30789  0.92464  0.41751  1.0000
  S   S32       1.0  0.03931  0.50152  0.20995  1.0000
  H   H192      1.0  0.19325  0.96469  0.49154  1.0000
  C   C237      1.0  0.18082  0.74929  0.09125  1.0000
  C   C238      1.0  0.10318  0.94381  0.26779  1.0000
  H   H193      1.0  0.01487  0.94287  0.41394  1.0000
  H   H194      1.0  0.07906  0.96768  0.15746  1.0000
  C   C239      1.0  0.01624  0.87543  0.31414  1.0000
  H   H195      1.0  0.14366  0.76750  0.27842  1.0000
  C   C240      1.0  0.09496  0.82321  0.30169  1.0000
  H   H196      1.0  0.11821  0.60977  0.13987  1.0000
  C   C241      1.0  0.02850  0.81391  0.17864  1.0000
  H   H197      1.0  0.23242  0.86542  0.35053  1.0000
  C   C242      1.0  0.08225  0.95866  0.37006  1.0000
  C   C243      1.0  0.06729  0.93126  0.36500  1.0000
  C   C244      1.0  0.07723  0.90523  0.38230  1.0000
  C   C245      1.0  0.10218  0.90629  0.40489  1.0000
  C   C246      1.0  0.11646  0.93392  0.41102  1.0000
  C   C247      1.0  0.10660  0.95995  0.39353  1.0000
  H   H198      1.0  0.04859  0.92996  0.34701  1.0000
  H   H199      1.0  0.06579  0.88410  0.37768  1.0000
  H   H200      1.0  0.13574  0.93502  0.42827  1.0000
  C   C248      1.0  0.10350  0.82594  0.33680  1.0000
  C   C249      1.0  0.06961  0.59551  0.09016  1.0000
  C   C250      1.0  0.06702  0.56759  0.10696  1.0000
  C   C251      1.0  0.05083  0.56463  0.13823  1.0000
  C   C252      1.0  0.03690  0.58963  0.15308  1.0000
  C   C253      1.0  0.03957  0.61771  0.13639  1.0000
  C   C254      1.0  0.05585  0.62067  0.10499  1.0000
  H   H201      1.0  0.07768  0.54810  0.09575  1.0000
  H   H202      1.0  0.04889  0.54291  0.15062  1.0000
  C   C255      1.0  0.01722  0.96644  0.42046  1.0000
  H   H203      1.0  0.05779  0.64230  0.09230  1.0000
  C   C256      1.0  0.18531  0.63248  0.42235  1.0000
  C   C257      1.0  0.20644  0.63902  0.44836  1.0000
  H   H204      1.0  0.16487  0.68368  0.19054  1.0000
  C   C258      1.0  0.26913  0.71247  0.49870  1.0000
  C   C259      1.0  0.17338  0.58497  0.45065  1.0000
  C   C260      1.0  0.16893  0.60546  0.42330  1.0000
  H   H205      1.0  0.18190  0.64825  0.40123  1.0000
  C   C261      1.0  0.18621  0.76735  0.20561  1.0000
  C   C262      1.0  0.27575  0.74767  0.01568  1.0000
  C   C263      1.0  0.07062  0.90282  0.24967  1.0000
  H   H206      1.0  0.15305  0.60065  0.40263  1.0000
  H   H207      1.0  0.21939  0.54721  0.43627  1.0000
  C   C264      1.0  0.12868  0.75325  0.07268  1.0000
  H   H208      1.0  0.07130  0.82791  0.15738  1.0000
  H   H209      1.0  0.26243  0.70569  0.03963  1.0000
  H   H210      1.0  0.11210  0.88393  0.32119  1.0000
  C   C265      1.0  0.20956  0.52522  0.43211  1.0000
  C   C266      1.0  0.10359  0.89671  0.29944  1.0000
  C   C267      1.0  0.23606  0.88157  0.37118  1.0000
  C   C268      1.0  0.17892  0.51941  0.43910  1.0000
  C   C269      1.0  0.08171  0.93200  0.24489  1.0000
  C   C270      1.0  0.03172  0.50844  0.46993  1.0000
  C   C271      1.0  0.27021  0.91225  0.40591  1.0000
  C   C272      1.0  0.26537  0.89149  0.37897  1.0000
  C   C273      1.0  0.24450  0.76187  0.49409  1.0000
  C   C274      1.0  0.05851  0.97432  0.14430  1.0000
  C   C275      1.0  0.16154  0.72909  0.17033  1.0000
  C   C276      1.0  0.12806  0.65724  0.13774  1.0000
  H   H211      1.0  0.29696  0.74909  0.02951  1.0000
  H   H212      1.0  0.11068  0.66258  0.15651  1.0000
  H   H213      1.0  0.27717  0.89090  0.47373  1.0000
  C   C277      1.0  0.30133  0.88923  0.47733  1.0000
  H   H214      1.0  0.04453  0.88467  0.47431  1.0000
  C   C278      1.0  0.32689  0.97644  0.45218  1.0000
  H   H215      1.0  0.01948  0.80679  0.15371  1.0000
  C   C279      1.0  0.22809  0.50240  0.41942  1.0000
  C   C280      1.0  0.05998  0.99269  0.11481  1.0000
  H   H216      1.0  0.28428  0.74860  0.46546  1.0000
  C   C281      1.0  0.19566  0.74528  0.22907  1.0000
  H   H217      1.0  0.10340  0.96283  0.49557  1.0000
  C   C282      1.0  0.14020  0.54461  0.49597  1.0000
  H   H218      1.0  0.01022  0.94622  0.02432  1.0000
  H   H219      1.0  0.03934  0.58810  0.00563  1.0000
  C   C283      1.0  0.04659  0.71300  0.12916  1.0000
  H   H220      1.0  0.19247  0.79065  0.20981  1.0000
  C   C284      1.0  0.32156  0.90349  0.45445  1.0000
  H   H221      1.0  0.24375  0.78413  0.48279  1.0000
  H   H222      1.0  0.28407  0.88286  0.36400  1.0000
  C   C285      1.0  0.16824  0.67206  0.09841  1.0000
  H   H223      1.0  0.16193  0.77670  0.15847  1.0000
  H   H224      1.0  0.10629  0.75060  0.18906  1.0000
  H   H225      1.0  0.15134  0.53655  0.37742  1.0000
  C   C286      1.0  0.07728  0.71010  0.12145  1.0000
  H   H226      1.0  0.02578  0.69968  0.02105  1.0000
  H   H227      1.0  0.21367  0.77088  0.05801  1.0000
  C   C287      1.0  0.00451  0.91127  0.48268  1.0000
  H   H228      1.0  0.17569  0.78911  0.01587  1.0000
  C   C288      1.0  0.03049  0.96479  0.15700  1.0000
  C   C289      1.0  0.16907  0.75934  0.17644  1.0000
  H   H229      1.0  0.27088  0.97413  0.39119  1.0000
  C   C290      1.0  0.14566  0.68003  0.12231  1.0000
  C   C291      1.0  0.05160  0.83319  0.24306  1.0000
  C   C292      1.0  0.08995  0.74007  0.17203  1.0000
  H   H230      1.0  0.24860  0.93817  0.44637  1.0000
  P   P10       1.0  0.13890  0.71902  0.13297  1.0000
  H   H231      1.0  0.12128  0.77750  0.02491  1.0000
  H   H232      1.0  0.07300  0.94576  0.22398  1.0000
  H   H233      1.0  0.06193  0.96677  0.01982  1.0000
  H   H234      1.0  0.11826  0.98107  0.39764  1.0000
  P   P11       1.0  0.06607  0.84756  0.28396  1.0000
  H   H235      1.0  0.00810  0.81903  0.26354  1.0000
  C   C293      1.0  0.21112  0.61863  0.47545  1.0000
  H   H236      1.0  0.04260  0.80641  0.33770  1.0000
  H   H237      1.0  0.02019  0.89375  0.29606  1.0000
  C   C294      1.0  0.30660  0.96408  0.42802  1.0000
  H   H238      1.0  0.02988  0.70243  0.11247  1.0000
  H   H239      1.0  0.13024  0.93556  0.31330  1.0000
  C   C295      1.0  0.13245  0.78389  0.29467  1.0000
  C   C296      1.0  0.02234  0.82088  0.24077  1.0000
  C   C297      1.0  0.10970  0.80202  0.28069  1.0000
  H   H240      1.0  0.21948  0.65976  0.44745  1.0000
  C   C298      1.0  0.12862  0.54140  0.38612  1.0000
  H   H241      1.0  0.18875  0.88427  0.38463  1.0000
  Fe  Fe17      1.0  0.00784  0.54026  0.21687  1.0000
  C   C299      1.0  0.03514  0.85020  0.31441  1.0000
  C   C300      1.0  0.05771  0.82581  0.18072  1.0000
  H   H242      1.0  0.19791  0.74075  0.10877  1.0000
  H   H243      1.0  0.10493  0.74808  0.07549  1.0000
  C   C301      1.0  0.17066  0.70712  0.19436  1.0000
  H   H244      1.0  0.02885  0.63717  0.14769  1.0000
  C   C302      1.0  0.12283  0.54873  0.42105  1.0000
  C   C303      1.0  0.10503  0.53980  0.36203  1.0000
  C   C304      1.0  0.02845  0.74680  0.00850  1.0000
  H   H245      1.0  0.02925  0.95060  0.17988  1.0000
  C   C305      1.0  0.12634  0.80796  0.35061  1.0000
  H   H246      1.0  0.15848  0.77297  0.34046  1.0000
  C   C306      1.0  0.16845  0.77664  0.03867  1.0000
  C   C307      1.0  0.06951  0.55365  0.40691  1.0000
  C   C308      1.0  0.14080  0.78690  0.32959  1.0000
  C   C309      1.0  0.01382  0.72081  0.02039  1.0000
  C   C310      1.0  0.25598  0.72318  0.02155  1.0000
  C   C311      1.0  0.17217  0.64202  0.08894  1.0000
  C   C312      1.0  0.13788  0.77013  0.04380  1.0000
  C   C313      1.0  0.24535  0.92265  0.42502  1.0000
  H   H247      1.0  0.13282  0.81055  0.37773  1.0000
  H   H248      1.0  0.25178  0.50689  0.41451  1.0000
  C   C314      1.0  0.04036  0.97587  0.44268  1.0000
  C   C315      1.0  0.07550  0.54584  0.37239  1.0000
  C   C316      1.0  0.09303  0.55489  0.43128  1.0000
  H   H249      1.0  0.05736  0.54422  0.35350  1.0000
  C   C317      1.0  0.03755  0.72920  0.15844  1.0000
  H   H250      1.0  0.04654  0.55824  0.41485  1.0000
  H   H251      1.0  0.05581  0.95947  0.45340  1.0000
  H   H252      1.0  0.05302  0.89472  0.23247  1.0000
  H   H253      1.0  0.08771  0.56024  0.45797  1.0000
  H   H254      1.0  0.20927  0.75143  0.25144  1.0000
  H   H255      1.0  0.18223  0.68888  0.08593  1.0000
  C   C318      1.0  0.21613  0.91283  0.41710  1.0000
  C   C319      1.0  0.28640  0.98303  0.41040  1.0000
  C   C320      1.0  0.02883  0.82644  0.33749  1.0000
  C   C321      1.0  0.09923  0.72367  0.14274  1.0000
  C   C322      1.0  0.18988  0.76637  0.06249  1.0000
  H   H256      1.0  0.19718  0.92078  0.43231  1.0000
  H   H257      1.0  0.09267  0.84209  0.35369  1.0000
  H   H258      1.0  0.09166  0.84525  0.21383  1.0000
  C   C323      1.0  0.18777  0.71521  0.22352  1.0000
  S   S33       1.0  0.01508  0.58619  0.19158  1.0000
  S   S34       1.0  0.00464  0.53374  0.27509  1.0000
  C   C324      1.0  0.21373  0.97704  0.49731  1.0000
  Fe  Fe18      1.0  0.03047  0.99168  0.31161  1.0000
  C   C325      1.0  0.19452  0.59182  0.47677  1.0000
  H   H259      1.0  0.07436  0.52525  0.01185  1.0000
  C   C326      1.0  0.33413  0.91987  0.38187  1.0000
  H   H260      1.0  0.14528  0.99287  0.01463  1.0000
  C   C327      1.0  0.03396  0.90203  0.48988  1.0000
  S   S35       1.0  0.29863  0.68777  0.48485  1.0000
  C   C328      1.0  0.00456  0.82834  0.36063  1.0000
  C   C329      1.0  0.06494  0.50350  0.01874  1.0000
  C   C330      1.0  0.26751  0.74160  0.48429  1.0000
  S   S36       1.0  0.07170  0.99144  0.34695  1.0000
  H   H261      1.0  0.01221  0.57241  0.47470  1.0000
  H   H262      1.0  0.00227  0.51801  0.08743  1.0000
  S   S37       1.0  0.20437  0.68929  0.01233  1.0000
  S   S38       1.0  0.03162  0.99108  0.25296  1.0000
  C   C331      1.0  0.01729  0.95756  0.00073  1.0000
  C   C332      1.0  0.22795  0.72117  0.00439  1.0000
  H   H263      1.0  0.19863  0.57609  0.49777  1.0000
  C   C333      1.0  0.01088  0.81134  0.20865  1.0000
  H   H264      1.0  0.09054  0.50056  0.06622  1.0000
  C   C334      1.0  0.00391  0.97391  0.14054  1.0000
  C   C335      1.0  0.00513  0.99263  0.11113  1.0000
  C   C336      1.0  0.01283  0.77409  0.00792  1.0000
  H   H265      1.0  0.12190  0.58954  0.49896  1.0000
  H   H266      1.0  0.14417  0.60222  0.76717  1.0000
  S   S39       1.0  0.12869  0.69976  0.95218  1.0000
  H   H267      1.0  0.04234  0.54114  0.88880  1.0000
  C   C337      1.0  0.23279  0.53230  0.69600  1.0000
  C   C338      1.0  0.11509  0.97653  0.51467  1.0000
  Fe  Fe19      1.0  0.11089  0.65301  0.94185  1.0000
  S   S40       1.0  0.11037  0.63150  0.88816  1.0000
  H   H268      1.0  0.19318  0.94933  0.93665  1.0000
  H   H269      1.0  0.03557  0.50187  0.97468  1.0000
  C   C339      1.0  0.14558  0.51806  0.51468  1.0000
  C   C340      1.0  0.15009  0.96929  0.94821  1.0000
  H   H270      1.0  0.18095  0.63853  0.54813  1.0000
  H   H271      1.0  0.04128  0.52274  0.59996  1.0000
  C   C341      1.0  0.04565  0.86599  0.93197  1.0000
  S   S41       1.0  0.18456  0.86289  0.56172  1.0000
  H   H272      1.0  0.29622  0.86153  0.52291  1.0000
  Fe  Fe20      1.0  0.13663  0.87640  0.55051  1.0000
  S   S42       1.0  0.09618  0.88469  0.58611  1.0000
  S   S43       1.0  0.29681  0.61795  0.55275  1.0000
  P   P12       1.0  0.09499  0.99582  0.96358  1.0000
  H   H273      1.0  0.06619  0.50040  0.54866  1.0000
  C   C342      1.0  0.06839  0.55913  0.93124  1.0000
  C   C343      1.0  0.04294  0.76566  0.90490  1.0000
  H   H274      1.0  0.27163  0.51570  0.72371  1.0000
  C   C344      1.0  0.11659  0.56596  0.54735  1.0000
  C   C345      1.0  0.00743  0.94777  0.52969  1.0000
  C   C346      1.0  0.01259  0.56866  0.96407  1.0000
  H   H275      1.0  0.17519  0.89713  0.94647  1.0000
  P   P13       1.0  0.18251  0.55381  0.65980  1.0000
  C   C347      1.0  0.00211  0.73974  0.87540  1.0000
  C   C348      1.0  0.08254  0.94477  0.68193  1.0000
  C   C349      1.0  0.11149  0.94186  0.66729  1.0000
  C   C350      1.0  0.11602  0.92453  0.63707  1.0000
  C   C351      1.0  0.09159  0.90979  0.62142  1.0000
  C   C352      1.0  0.06254  0.91362  0.63537  1.0000
  C   C353      1.0  0.05803  0.93095  0.66551  1.0000
  H   H276      1.0  0.13060  0.95264  0.67975  1.0000
  H   H277      1.0  0.13850  0.92184  0.62655  1.0000
  H   H278      1.0  0.04349  0.90254  0.62321  1.0000
  H   H279      1.0  0.03576  0.93297  0.67660  1.0000
  C   C354      1.0  0.26125  0.53505  0.71152  1.0000
  H   H280      1.0  0.01154  0.97717  0.62813  1.0000
  H   H281      1.0  0.08814  0.57982  0.97650  1.0000
  H   H282      1.0  0.05241  0.78524  0.91755  1.0000
  C   C355      1.0  0.04161  0.55040  0.91484  1.0000
  C   C356      1.0  0.03575  0.98624  0.93943  1.0000
  C   C357      1.0  0.00636  0.97496  0.94246  1.0000
  C   C358      1.0  0.02761  0.58795  0.83566  1.0000
  C   C359      1.0  0.05687  0.58027  0.82552  1.0000
  C   C360      1.0  0.08198  0.59375  0.84192  1.0000
  C   C361      1.0  0.07809  0.61442  0.86917  1.0000
  C   C362      1.0  0.04881  0.62162  0.87984  1.0000
  C   C363      1.0  0.02370  0.60866  0.86290  1.0000
  H   H283      1.0  0.06011  0.56414  0.80486  1.0000
  H   H284      1.0  0.10455  0.58803  0.83357  1.0000
  H   H285      1.0  0.04553  0.63740  0.90080  1.0000
  H   H286      1.0  0.20837  0.51981  0.60130  1.0000
  C   C364      1.0  0.21933  0.55722  0.67985  1.0000
  C   C365      1.0  0.10984  0.93450  0.96326  1.0000
  C   C366      1.0  0.03632  0.93710  0.53800  1.0000
  C   C367      1.0  0.04393  0.83817  0.67938  1.0000
  C   C368      1.0  0.04450  0.85211  0.71216  1.0000
  Fe  Fe21      1.0  0.03436  0.97708  0.74861  1.0000
  P   P14       1.0  0.07351  0.84258  0.74343  1.0000
  C   C369      1.0  0.06536  0.80691  0.76426  1.0000
  C   C370      1.0  0.10929  0.84016  0.72094  1.0000
  C   C371      1.0  0.13155  0.81989  0.73203  1.0000
  C   C372      1.0  0.15847  0.81699  0.71329  1.0000
  C   C373      1.0  0.16333  0.83419  0.68333  1.0000
  C   C374      1.0  0.14148  0.85464  0.67239  1.0000
  C   C375      1.0  0.11474  0.85789  0.69131  1.0000
  C   C376      1.0  0.04792  0.78491  0.74730  1.0000
  C   C377      1.0  0.04240  0.75713  0.76329  1.0000
  C   C378      1.0  0.05432  0.75105  0.79622  1.0000
  C   C379      1.0  0.07181  0.77274  0.81321  1.0000
  C   C380      1.0  0.07745  0.80048  0.79727  1.0000
  C   C381      1.0  0.07529  0.87196  0.77577  1.0000
  C   C382      1.0  0.05648  0.87059  0.80518  1.0000
  C   C383      1.0  0.05626  0.89412  0.82921  1.0000
  C   C384      1.0  0.07470  0.91926  0.82403  1.0000
  C   C385      1.0  0.09330  0.92093  0.79471  1.0000
  C   C386      1.0  0.09353  0.89745  0.77054  1.0000
  C   C387      1.0  0.01412  0.76634  0.88966  1.0000
  H   H287      1.0  0.02248  0.88514  0.74487  1.0000
  C   C388      1.0  0.12344  0.55508  0.68564  1.0000
  H   H288      1.0  0.06106  0.82198  0.67230  1.0000
  H   H289      1.0  0.06476  0.55840  0.64036  1.0000
  H   H290      1.0  0.12816  0.80607  0.75486  1.0000
  H   H291      1.0  0.17547  0.80114  0.72173  1.0000
  H   H292      1.0  0.18395  0.83161  0.66843  1.0000
  H   H293      1.0  0.14509  0.86771  0.64890  1.0000
  H   H294      1.0  0.09815  0.87395  0.68247  1.0000
  H   H295      1.0  0.03867  0.78897  0.72171  1.0000
  H   H296      1.0  0.04849  0.94597  0.56023  1.0000
  H   H297      1.0  0.05028  0.72942  0.80844  1.0000
  H   H298      1.0  0.08133  0.76785  0.83856  1.0000
  H   H299      1.0  0.09160  0.81677  0.81053  1.0000
  H   H300      1.0  0.04138  0.85172  0.80909  1.0000
  S   S44       1.0  0.07832  0.96470  0.72146  1.0000
  Fe  Fe22      1.0  0.17950  0.82698  0.52048  1.0000
  H   H301      1.0  0.10675  0.94095  0.78991  1.0000
  H   H302      1.0  0.10721  0.89982  0.74733  1.0000
  C   C389      1.0  0.24772  0.51307  0.51407  1.0000
  Fe  Fe23      1.0  0.15531  0.67988  0.99621  1.0000
  C   C390      1.0  0.26312  0.58761  0.69537  1.0000
  H   H303      1.0  0.01842  0.59653  0.53169  1.0000
  H   H304      1.0  0.14998  0.50110  0.68903  1.0000
  H   H305      1.0  0.15833  0.99199  0.94391  1.0000
  H   H306      1.0  0.22524  0.60555  0.55686  1.0000
  H   H307      1.0  0.07790  0.55577  0.70563  1.0000
  S   S45       1.0  0.07076  0.65692  0.97712  1.0000
  C   C391      1.0  0.12258  0.53970  0.56599  1.0000
  C   C392      1.0  0.23464  0.58497  0.67988  1.0000
  Fe  Fe24      1.0  0.29396  0.57658  0.51951  1.0000
  C   C393      1.0  0.15595  0.61944  0.59108  1.0000
  C   C394      1.0  0.15597  0.59825  0.61806  1.0000
  S   S46       1.0  0.19244  0.77761  0.53153  1.0000
  C   C395      1.0  0.01378  0.55532  0.93099  1.0000
  C   C396      1.0  0.03967  0.57702  0.98054  1.0000
  H   H308      1.0  0.28478  0.98315  0.61738  1.0000
  C   C397      1.0  0.13846  0.58905  0.74435  1.0000
  C   C398      1.0  0.31212  0.87244  0.50544  1.0000
  C   C399      1.0  0.27640  0.56268  0.71123  1.0000
  S   S47       1.0  0.13025  0.83820  0.51288  1.0000
  C   C400      1.0  0.23832  0.96224  0.51229  1.0000
  H   H309      1.0  0.04136  0.88860  0.98127  1.0000
  C   C401      1.0  0.02167  0.84559  0.65505  1.0000
  H   H310      1.0  0.13679  0.63418  0.58756  1.0000
  H   H311      1.0  0.13658  0.59705  0.63507  1.0000
  C   C402      1.0  0.17845  0.51515  0.64573  1.0000
  S   S48       1.0  0.29245  0.80130  0.98271  1.0000
  H   H312      1.0  0.27499  0.60898  0.69488  1.0000
  C   C403      1.0  0.16095  0.58094  0.72063  1.0000
  C   C404      1.0  0.11519  0.96791  0.54964  1.0000
  H   H313      1.0  0.11616  0.53795  0.59312  1.0000
  H   H314      1.0  0.00959  0.69269  0.86471  1.0000
  H   H315      1.0  0.07226  0.90694  0.52366  1.0000
  C   C405      1.0  0.13125  0.98480  0.57410  1.0000
  H   H316      1.0  0.24668  0.67660  0.94895  1.0000
  C   C406      1.0  0.12577  0.56862  0.51268  1.0000
  H   H317      1.0  0.18390  0.58824  0.72548  1.0000
  H   H318      1.0  0.29501  0.50183  0.56840  1.0000
  H   H319      1.0  0.02192  0.83535  0.62947  1.0000
  H   H320      1.0  0.10378  0.94747  0.55774  1.0000
  C   C407      1.0  0.18080  0.62196  0.56887  1.0000
  S   S49       1.0  0.25133  0.55013  0.52898  1.0000
  H   H321      1.0  0.24794  0.68162  0.53436  1.0000
  H   H322      1.0  0.22592  0.56868  0.60426  1.0000
  C   C408      1.0  0.15975  0.91578  0.94957  1.0000
  C   C409      1.0  0.31577  0.54357  0.63834  1.0000
  C   C410      1.0  0.26262  0.99256  0.61285  1.0000
  C   C411      1.0  0.04784  0.71292  0.89026  1.0000
  C   C412      1.0  0.21992  0.74405  0.98118  1.0000
  Fe  Fe25      1.0  0.19630  0.89358  0.51682  1.0000
  C   C413      1.0  0.29849  0.71578  0.90086  1.0000
  C   C414      1.0  0.28680  0.69624  0.92636  1.0000
  C   C415      1.0  0.25570  0.69101  0.92860  1.0000
  C   C416      1.0  0.23606  0.70493  0.90524  1.0000
  C   C417      1.0  0.24754  0.72383  0.87928  1.0000
  C   C418      1.0  0.27866  0.72909  0.87692  1.0000
  C   C419      1.0  0.18102  0.57945  0.62314  1.0000
  C   C420      1.0  0.26485  0.97845  0.51911  1.0000
  H   H323      1.0  0.28400  0.96685  0.52976  1.0000
  H   H324      1.0  0.31304  0.94668  0.57953  1.0000
  C   C421      1.0  0.05538  0.56658  0.61613  1.0000
  Fe  Fe26      1.0  0.09064  0.70198  0.99096  1.0000
  C   C422      1.0  0.33269  0.52221  0.65643  1.0000
  Fe  Fe27      1.0  0.31302  0.64095  0.50423  1.0000
  C   C423      1.0  0.20574  0.60339  0.57373  1.0000
  C   C424      1.0  0.20592  0.58226  0.60067  1.0000
  H   H325      1.0  0.08984  0.55657  0.91800  1.0000
  H   H326      1.0  0.30146  0.68516  0.94483  1.0000
  C   C425      1.0  0.24714  0.70384  0.52299  1.0000
  H   H327      1.0  0.21192  0.70117  0.90755  1.0000
  H   H328      1.0  0.23225  0.73461  0.86121  1.0000
  H   H329      1.0  0.28722  0.74384  0.85672  1.0000
  C   C426      1.0  0.12973  0.91043  0.95910  1.0000
  H   H330      1.0  0.07387  0.93783  0.84219  1.0000
  H   H331      1.0  0.02907  0.74017  0.75000  1.0000
  H   H332      1.0  0.29855  0.56473  0.72304  1.0000
  H   H333      1.0  0.08673  0.92973  0.97039  1.0000
  C   C427      1.0  0.00751  0.82796  0.91947  1.0000
  S   S50       1.0  0.14885  0.90960  0.50859  1.0000
  H   H334      1.0  0.09119  0.58626  0.75733  1.0000
  S   S51       1.0  0.14082  0.63271  0.98269  1.0000
  S   S52       1.0  0.23756  0.92350  0.52247  1.0000
  C   C428      1.0  0.04195  0.54633  0.59299  1.0000
  C   C429      1.0  0.05628  0.98303  0.96704  1.0000
  H   H335      1.0  0.08171  0.73871  0.91733  1.0000
  H   H336      1.0  0.23359  0.78571  0.95667  1.0000
  H   H337      1.0  0.31407  0.56633  0.64812  1.0000
  C   C430      1.0  0.02849  0.55660  0.56206  1.0000
  H   H338      1.0  0.19851  0.74282  0.96771  1.0000
  C   C431      1.0  0.11993  0.96417  0.95798  1.0000
  C   C432      1.0  0.10107  0.56307  0.70956  1.0000
  C   C433      1.0  0.16989  0.94519  0.94407  1.0000
  C   C434      1.0  0.22248  0.75325  0.51835  1.0000
  C   C435      1.0  0.10856  0.58008  0.73885  1.0000
  H   H339      1.0  0.22464  0.60463  0.66797  1.0000
  H   H340      1.0  0.24314  0.95074  0.59530  1.0000
  H   H341      1.0  0.06541  0.87872  0.92406  1.0000
  H   H342      1.0  0.09131  0.98434  0.88878  1.0000
  H   H343      1.0  0.01403  0.62863  0.95506  1.0000
  S   S53       1.0  0.06628  0.74630  0.99463  1.0000
  C   C436      1.0  0.15369  0.56356  0.69123  1.0000
  C   C437      1.0  0.30552  0.50715  0.59313  1.0000
  C   C438      1.0  0.22400  0.72404  0.53260  1.0000
  C   C439      1.0  0.04973  0.91478  0.51767  1.0000
  P   P15       1.0  0.00937  0.53015  0.53361  1.0000
  C   C440      1.0  0.13706  0.51577  0.54966  1.0000
  H   H344      1.0  0.04419  0.84002  0.88490  1.0000
  C   C441      1.0  0.03351  0.84415  0.90978  1.0000
  C   C442      1.0  0.00634  0.85544  0.97405  1.0000
  C   C443      1.0  0.05971  0.73912  0.90497  1.0000
  H   H345      1.0  0.06091  0.69234  0.89070  1.0000
  H   H346      1.0  0.31635  0.83160  0.90440  1.0000
  C   C444      1.0  0.03700  0.51246  0.50575  1.0000
  C   C445      1.0  0.33215  0.81480  0.89538  1.0000
  H   H347      1.0  0.22138  0.51073  0.69670  1.0000
  C   C446      1.0  0.30167  0.53584  0.60712  1.0000
  C   C447      1.0  0.02905  0.58757  0.55470  1.0000
  H   H348      1.0  0.04107  0.89337  0.85131  1.0000
  H   H349      1.0  0.10536  0.58451  0.55997  1.0000
  C   C448      1.0  0.32558  0.78430  0.90006  1.0000
  C   C449      1.0  0.02239  0.87354  0.72015  1.0000
  H   H350      1.0  0.28853  0.55242  0.59314  1.0000
  H   H351      1.0  0.20719  0.71704  0.55137  1.0000
  H   H352      1.0  0.32432  0.74018  0.96884  1.0000
  C   C450      1.0  0.06741  0.57242  0.96408  1.0000
  H   H353      1.0  0.20390  0.50850  0.53715  1.0000
  H   H354      1.0  0.12194  0.88759  0.96332  1.0000
  C   C451      1.0  0.03211  0.87157  0.96416  1.0000
  C   C452      1.0  0.19430  0.50481  0.61646  1.0000
  H   H355      1.0  0.11711  0.54187  0.66309  1.0000
  C   C453      1.0  0.23989  0.76835  0.97497  1.0000
  H   H356      1.0  0.04245  0.63164  0.57231  1.0000
  S   S54       1.0  0.03839  0.98893  0.80529  1.0000
  H   H357      1.0  0.00412  0.68249  0.94734  1.0000
  C   C454      1.0  0.01896  0.71319  0.87561  1.0000
  H   H358      1.0  0.05084  0.99539  0.52722  1.0000
  H   H359      1.0  0.04209  0.99724  0.91543  1.0000
  C   C455      1.0  0.05574  0.59727  0.60865  1.0000
  H   H360      1.0  0.06564  0.61295  0.62700  1.0000
  H   H361      1.0  0.30465  0.77807  0.91281  1.0000
  H   H362      1.0  0.19277  0.97176  0.58532  1.0000
  C   C456      1.0  0.23911  0.97429  0.60078  1.0000
  C   C457      1.0  0.04268  0.60775  0.57787  1.0000
  C   C458      1.0  0.26802  0.77028  0.99201  1.0000
  C   C459      1.0  0.21046  0.98639  0.59500  1.0000
  H   H363      1.0  0.13174  0.97726  0.60089  1.0000
  H   H364      1.0  0.02426  0.79422  0.99906  1.0000
  C   C460      1.0  0.33439  0.95431  0.56879  1.0000
  C   C461      1.0  0.04659  0.96915  0.99801  1.0000
  H   H365      1.0  0.15684  0.49926  0.50269  1.0000
  S   S55       1.0  0.05827  0.49919  0.67176  1.0000
  H   H366      1.0  0.35958  0.16396  0.37943  1.0000
  S   S56       1.0  0.49209  0.45184  0.28978  1.0000
  Fe  Fe28      1.0  0.52951  0.48628  0.29021  1.0000
  Fe  Fe29      1.0  0.49485  0.45483  0.23107  1.0000
  S   S57       1.0  0.49713  0.41770  0.19003  1.0000
  H   H367      1.0  0.63059  0.42097  0.33918  1.0000
  Fe  Fe30      1.0  0.37362  0.33815  0.06998  1.0000
  S   S58       1.0  0.38047  0.35399  0.12581  1.0000
  S   S59       1.0  0.35304  0.29245  0.06122  1.0000
  C   C462      1.0  0.41664  0.04907  0.13794  1.0000
  H   H368      1.0  0.61515  0.24044  0.10538  1.0000
  S   S60       1.0  0.38402  0.11309  0.43104  1.0000
  H   H369      1.0  0.47199  0.45533  0.13454  1.0000
  Fe  Fe31      1.0  0.34645  0.11235  0.47173  1.0000
  H   H370      1.0  0.58972  0.05749  0.47939  1.0000
  C   C463      1.0  0.41211  0.03558  0.35874  1.0000
  C   C464      1.0  0.42662  0.06354  0.35690  1.0000
  C   C465      1.0  0.41784  0.08702  0.37927  1.0000
  C   C466      1.0  0.39452  0.08281  0.40367  1.0000
  C   C467      1.0  0.38040  0.05474  0.40588  1.0000
  C   C468      1.0  0.38903  0.03129  0.38345  1.0000
  H   H371      1.0  0.44437  0.06719  0.33801  1.0000
  H   H372      1.0  0.42903  0.10863  0.37748  1.0000
  S   S61       1.0  0.34081  0.36010  0.03352  1.0000
  C   C469      1.0  0.44396  0.00544  0.11791  1.0000
  C   C470      1.0  0.46370  0.40233  0.17150  1.0000
  C   C471      1.0  0.43713  0.39931  0.19085  1.0000
  C   C472      1.0  0.41173  0.38481  0.17629  1.0000
  C   C473      1.0  0.41233  0.37389  0.14198  1.0000
  C   C474      1.0  0.43847  0.37806  0.12212  1.0000
  C   C475      1.0  0.46415  0.39180  0.13701  1.0000
  H   H373      1.0  0.43639  0.40739  0.21738  1.0000
  H   H374      1.0  0.39153  0.38191  0.19178  1.0000
  H   H375      1.0  0.43907  0.37014  0.09556  1.0000
  H   H376      1.0  0.48441  0.39431  0.12169  1.0000
  Fe  Fe32      1.0  0.49325  0.02986  0.22570  1.0000
  H   H377      1.0  0.34281  0.01677  0.47693  1.0000
  S   S62       1.0  0.49025  0.06646  0.18395  1.0000
  C   C476      1.0  0.54244  0.26064  0.15982  1.0000
  C   C477      1.0  0.49747  0.21646  0.00501  1.0000
  S   S63       1.0  0.49817  0.03726  0.28361  1.0000
  Fe  Fe33      1.0  0.59618  0.14401  0.03450  1.0000
  S   S64       1.0  0.59269  0.10862  0.07745  1.0000
  S   S65       1.0  0.60862  0.19259  0.04343  1.0000
  S   S66       1.0  0.56872  0.48881  0.32884  1.0000
  H   H378      1.0  0.38013  0.18021  0.43615  1.0000
  S   S67       1.0  0.60427  0.38602  0.43692  1.0000
  H   H379      1.0  0.36268  0.05132  0.42469  1.0000
  C   C478      1.0  0.65391  0.41754  0.34681  1.0000
  C   C479      1.0  0.52150  0.00133  0.11538  1.0000
  C   C480      1.0  0.57781  0.46036  0.35941  1.0000
  C   C481      1.0  0.56348  0.43232  0.35892  1.0000
  C   C482      1.0  0.57164  0.41006  0.38322  1.0000
  C   C483      1.0  0.59417  0.41553  0.40824  1.0000
  C   C484      1.0  0.60843  0.44364  0.40892  1.0000
  C   C485      1.0  0.60045  0.46582  0.38437  1.0000
  H   H380      1.0  0.54636  0.42767  0.33957  1.0000
  H   H381      1.0  0.56057  0.38833  0.38244  1.0000
  H   H382      1.0  0.62603  0.44804  0.42780  1.0000
  C   C486      1.0  0.59607  0.01000  0.47005  1.0000
  C   C487      1.0  0.56378  0.09763  0.10688  1.0000
  C   C488      1.0  0.53384  0.10681  0.10294  1.0000
  C   C489      1.0  0.51161  0.09676  0.12655  1.0000
  C   C490      1.0  0.51905  0.07778  0.15454  1.0000
  C   C491      1.0  0.54896  0.06857  0.15843  1.0000
  C   C492      1.0  0.57113  0.07826  0.13455  1.0000
  H   H383      1.0  0.52772  0.12115  0.08139  1.0000
  H   H384      1.0  0.48848  0.10345  0.12291  1.0000
  H   H385      1.0  0.55507  0.05414  0.17996  1.0000
  H   H386      1.0  0.59422  0.07091  0.13774  1.0000
  C   C493      1.0  0.52508  0.07470  0.01466  1.0000
  H   H387      1.0  0.49681  0.24339  0.15988  1.0000
  H   H388      1.0  0.61974  0.34166  0.12493  1.0000
  C   C494      1.0  0.44309  0.14236  0.06997  1.0000
  C   C495      1.0  0.42803  0.16556  0.08745  1.0000
  C   C496      1.0  0.40105  0.17677  0.07339  1.0000
  P   P16       1.0  0.44173  0.17827  0.12926  1.0000
  C   C497      1.0  0.42345  0.15423  0.16092  1.0000
  C   C498      1.0  0.48256  0.17750  0.13013  1.0000
  C   C499      1.0  0.49830  0.17292  0.16141  1.0000
  C   C500      1.0  0.52990  0.17202  0.16154  1.0000
  C   C501      1.0  0.54602  0.17667  0.13070  1.0000
  C   C502      1.0  0.53055  0.18256  0.09977  1.0000
  C   C503      1.0  0.49898  0.18298  0.09945  1.0000
  C   C504      1.0  0.39330  0.15977  0.17021  1.0000
  C   C505      1.0  0.37857  0.14130  0.19441  1.0000
  C   C506      1.0  0.39373  0.11699  0.20928  1.0000
  C   C507      1.0  0.42349  0.11098  0.19965  1.0000
  C   C508      1.0  0.43820  0.12930  0.17530  1.0000
  C   C509      1.0  0.43153  0.21674  0.13831  1.0000
  C   C510      1.0  0.42650  0.23729  0.11122  1.0000
  C   C511      1.0  0.41597  0.26614  0.11857  1.0000
  C   C512      1.0  0.41198  0.27530  0.15298  1.0000
  C   C513      1.0  0.41859  0.25554  0.18019  1.0000
  C   C514      1.0  0.42827  0.22632  0.17293  1.0000
  H   H389      1.0  0.65264  0.35854  0.05755  1.0000
  H   H390      1.0  0.46320  0.13242  0.08093  1.0000
  H   H391      1.0  0.38813  0.19372  0.08689  1.0000
  H   H392      1.0  0.48628  0.16964  0.18566  1.0000
  H   H393      1.0  0.54189  0.16716  0.18546  1.0000
  H   H394      1.0  0.57045  0.17523  0.13058  1.0000
  H   H395      1.0  0.54304  0.18642  0.07591  1.0000
  H   H396      1.0  0.48748  0.18786  0.07526  1.0000
  H   H397      1.0  0.38113  0.17837  0.15870  1.0000
  C   C515      1.0  0.45315  0.44927  0.38686  1.0000
  C   C516      1.0  0.57761  0.38475  0.17897  1.0000
  H   H398      1.0  0.43519  0.09193  0.21093  1.0000
  H   H399      1.0  0.46101  0.12378  0.16792  1.0000
  H   H400      1.0  0.42998  0.23093  0.08436  1.0000
  H   H401      1.0  0.41044  0.28136  0.09753  1.0000
  H   H402      1.0  0.40373  0.29776  0.15844  1.0000
  H   H403      1.0  0.41565  0.26277  0.20689  1.0000
  H   H404      1.0  0.43276  0.21110  0.19433  1.0000
  H   H405      1.0  0.40181  0.05950  0.15672  1.0000
  H   H406      1.0  0.51676  0.05786  0.06618  1.0000
  H   H407      1.0  0.54445  0.25935  0.18786  1.0000
  C   C517      1.0  0.60438  0.36174  0.05041  1.0000
  C   C518      1.0  0.52957  0.03104  0.38127  1.0000
  C   C519      1.0  0.43948  0.46424  0.41456  1.0000
  H   H408      1.0  0.43991  0.44290  0.36426  1.0000
  H   H409      1.0  0.62434  0.21864  0.28308  1.0000
  H   H410      1.0  0.56283  0.31501  0.21093  1.0000
  H   H411      1.0  0.59889  0.06131  0.01637  1.0000
  H   H412      1.0  0.50968  0.19561  0.00758  1.0000
  H   H413      1.0  0.57107  0.02989  0.40968  1.0000
  H   H414      1.0  0.36365  0.46743  0.44865  1.0000
  C   C520      1.0  0.48397  0.44287  0.38810  1.0000
  C   C521      1.0  0.61828  0.27904  0.22898  1.0000
  H   H415      1.0  0.57650  0.01255  0.03376  1.0000
  C   C522      1.0  0.54308  0.41640  0.08438  1.0000
  C   C523      1.0  0.45673  0.47358  0.44310  1.0000
  S   S68       1.0  0.42178  0.00541  0.33078  1.0000
  C   C524      1.0  0.61976  0.23140  0.25962  1.0000
  H   H416      1.0  0.64425  0.37685  0.37511  1.0000
  H   H417      1.0  0.53277  0.26706  0.05988  1.0000
  H   H418      1.0  0.64329  0.07086  0.46895  1.0000
  C   C525      1.0  0.56259  0.27407  0.10333  1.0000
  C   C526      1.0  0.55872  0.45562  0.03033  1.0000
  H   H419      1.0  0.35537  0.14577  0.20158  1.0000
  C   C527      1.0  0.60777  0.30255  0.02627  1.0000
  S   S69       1.0  0.41718  0.49398  0.31714  1.0000
  H   H420      1.0  0.53984  0.04129  0.35852  1.0000
  C   C528      1.0  0.53559  0.26497  0.08771  1.0000
  H   H421      1.0  0.49088  0.24739  0.09575  1.0000
  H   H422      1.0  0.49454  0.43105  0.36676  1.0000
  H   H423      1.0  0.48213  0.38426  0.01776  1.0000
  H   H424      1.0  0.48616  0.32753  0.03575  1.0000
  H   H425      1.0  0.58037  0.28326  0.08732  1.0000
  H   H426      1.0  0.41560  0.46929  0.41340  1.0000
  C   C529      1.0  0.50132  0.45223  0.41652  1.0000
  H   H427      1.0  0.48540  0.02788  0.35791  1.0000
  H   H428      1.0  0.53634  0.40238  0.10587  1.0000
  S   S70       1.0  0.53524  0.48599  0.23178  1.0000
  H   H429      1.0  0.44112  0.02546  0.46533  1.0000
  C   C530      1.0  0.63366  0.27917  0.13247  1.0000
  C   C531      1.0  0.43522  0.07027  0.48335  1.0000
  H   H430      1.0  0.54536  0.45542  0.11747  1.0000
  H   H431      1.0  0.52526  0.44734  0.41696  1.0000
  C   C532      1.0  0.40639  0.14423  0.02331  1.0000
  C   C533      1.0  0.57800  0.34692  0.03930  1.0000
  C   C534      1.0  0.63226  0.34705  0.04916  1.0000
  C   C535      1.0  0.57312  0.33217  0.19473  1.0000
  H   H432      1.0  0.46753  0.30833  0.14246  1.0000
  H   H433      1.0  0.35420  0.21992  0.46993  1.0000
  C   C536      1.0  0.49294  0.32957  0.06260  1.0000
  H   H434      1.0  0.61213  0.48721  0.38449  1.0000
  C   C537      1.0  0.60530  0.34710  0.14667  1.0000
  C   C538      1.0  0.51533  0.25170  0.14412  1.0000
  C   C539      1.0  0.54624  0.40506  0.05040  1.0000
  S   S71       1.0  0.63615  0.13685  0.99941  1.0000
  C   C540      1.0  0.49897  0.02330  0.38074  1.0000
  H   H435      1.0  0.56445  0.47096  0.00940  1.0000
  C   C541      1.0  0.39067  0.16658  0.04110  1.0000
  C   C542      1.0  0.63397  0.31750  0.03701  1.0000
  C   C543      1.0  0.56528  0.36224  0.20004  1.0000
  H   H436      1.0  0.66049  0.31408  0.15696  1.0000
  C   C544      1.0  0.36037  0.19123  0.42550  1.0000
  H   H437      1.0  0.54921  0.35453  0.11539  1.0000
  C   C545      1.0  0.35745  0.46383  0.47564  1.0000
  Fe  Fe34      1.0  0.45940  0.00483  0.28989  1.0000
  C   C546      1.0  0.63594  0.04768  0.46690  1.0000
  H   H438      1.0  0.43999  0.08014  0.45810  1.0000
  C   C547      1.0  0.50945  0.33149  0.13266  1.0000
  C   C548      1.0  0.48237  0.31777  0.12286  1.0000
  C   C549      1.0  0.51921  0.34526  0.07241  1.0000
  C   C550      1.0  0.44753  0.05237  0.08600  1.0000
  H   H439      1.0  0.60353  0.38458  0.06001  1.0000
  H   H440      1.0  0.54913  0.36822  0.22011  1.0000
  H   H441      1.0  0.55972  0.30504  0.01969  1.0000
  C   C551      1.0  0.42444  0.01888  0.14174  1.0000
  C   C552      1.0  0.55380  0.42511  0.02341  1.0000
  C   C553      1.0  0.66167  0.39256  0.36686  1.0000
  C   C554      1.0  0.42809  0.06579  0.11005  1.0000
  C   C555      1.0  0.57904  0.01777  0.00637  1.0000
  P   P17       1.0  0.48079  0.00386  0.05965  1.0000
  P   P18       1.0  0.51148  0.48173  0.47905  1.0000
  C   C556      1.0  0.60984  0.21666  0.22958  1.0000
  H   H442      1.0  0.37054  0.17635  0.02974  1.0000
  C   C557      1.0  0.47603  0.46319  0.07932  1.0000
  C   C558      1.0  0.51196  0.25385  0.10804  1.0000
  C   C559      1.0  0.43546  0.03906  0.48755  1.0000
  H   H443      1.0  0.45413  0.30476  0.07976  1.0000
  H   H444      1.0  0.60695  0.39474  0.13585  1.0000
  C   C560      1.0  0.52817  0.34446  0.10742  1.0000
  C   C561      1.0  0.47461  0.31608  0.08772  1.0000
  S   S72       1.0  0.40966  0.33289  0.02954  1.0000
  H   H445      1.0  0.51552  0.33263  0.15990  1.0000
  H   H446      1.0  0.45596  0.06567  0.06456  1.0000
  H   H447      1.0  0.60896  0.27954  0.01701  1.0000
  H   H448      1.0  0.60694  0.19244  0.22971  1.0000
  H   H449      1.0  0.44429  0.11411  0.02471  1.0000
  C   C562      1.0  0.59776  0.37722  0.15243  1.0000
  C   C563      1.0  0.49549  0.02981  0.02743  1.0000
  C   C564      1.0  0.43237  0.13182  0.03802  1.0000
  C   C565      1.0  0.48804  0.46855  0.44368  1.0000
  P   P19       1.0  0.54178  0.36537  0.04054  1.0000
  H   H450      1.0  0.59668  0.22129  0.17607  1.0000
  H   H451      1.0  0.47059  0.44017  0.07246  1.0000
  C   C566      1.0  0.65997  0.25059  0.08801  1.0000
  C   C567      1.0  0.54722  0.02455  0.41051  1.0000
  Fe  Fe35      1.0  0.46138  0.49211  0.28632  1.0000
  C   C568      1.0  0.47693  0.47158  0.11434  1.0000
  C   C569      1.0  0.55614  0.46644  0.06429  1.0000
  C   C570      1.0  0.45006  0.24407  0.00722  1.0000
  S   S73       1.0  0.46118  0.49215  0.22752  1.0000
  C   C571      1.0  0.34873  0.18210  0.39342  1.0000
  H   H452      1.0  0.46229  0.00266  0.40829  1.0000
  H   H453      1.0  0.56733  0.44583  0.47676  1.0000
  H   H454      1.0  0.48180  0.47754  0.02635  1.0000
  C   C572      1.0  0.57987  0.31709  0.02775  1.0000
  C   C573      1.0  0.59336  0.32435  0.16813  1.0000
  C   C574      1.0  0.51261  0.05456  0.03869  1.0000
  H   H455      1.0  0.38244  0.10267  0.22814  1.0000
  H   H456      1.0  0.37749  0.00986  0.38499  1.0000
  C   C575      1.0  0.54821  0.44685  0.09123  1.0000
  C   C576      1.0  0.60569  0.04002  0.47288  1.0000
  H   H457      1.0  0.42195  0.08918  0.10731  1.0000
  H   H458      1.0  0.57103  0.40797  0.18299  1.0000
  H   H459      1.0  0.44547  0.48497  0.46421  1.0000
  H   H460      1.0  0.65557  0.30613  0.03588  1.0000
  H   H461      1.0  0.63210  0.27390  0.28247  1.0000
  C   C577      1.0  0.48213  0.48447  0.05334  1.0000
  Fe  Fe36      1.0  0.38676  0.28885  0.01779  1.0000
  Fe  Fe37      1.0  0.63934  0.38416  0.48037  1.0000
  C   C578      1.0  0.65672  0.02544  0.45802  1.0000
  C   C579      1.0  0.45585  0.02212  0.09002  1.0000
  H   H462      1.0  0.33830  0.41996  0.46662  1.0000
  C   C580      1.0  0.60394  0.23309  0.19930  1.0000
  C   C581      1.0  0.60748  0.26447  0.19904  1.0000
  H   H463      1.0  0.53886  0.09336  0.02370  1.0000
  P   P20       1.0  0.60075  0.28513  0.15943  1.0000
  C   C582      1.0  0.56643  0.27159  0.13939  1.0000
  H   H464      1.0  0.50713  0.01710  0.12889  1.0000
  C   C583      1.0  0.62409  0.26255  0.25926  1.0000
  C   C584      1.0  0.63427  0.25547  0.10835  1.0000
  C   C585      1.0  0.46601  0.21699  0.00989  1.0000
  H   H465      1.0  0.50425  0.04004  0.49177  1.0000
  C   C586      1.0  0.48592  0.00897  0.40934  1.0000
  C   C587      1.0  0.34312  0.43714  0.48580  1.0000
  H   H466      1.0  0.41555  0.00592  0.16335  1.0000
  C   C588      1.0  0.53420  0.01050  0.43966  1.0000
  C   C589      1.0  0.65980  0.29674  0.13724  1.0000
  H   H467      1.0  0.55976  0.49008  0.06975  1.0000
  H   H468      1.0  0.62230  0.30306  0.22904  1.0000
  S   S74       1.0  0.41082  0.24415  0.01455  1.0000
  C   C590      1.0  0.34591  0.21372  0.44437  1.0000
  H   H469      1.0  0.66038  0.23232  0.06938  1.0000
  Fe  Fe38      1.0  0.64660  0.18627  0.00513  1.0000
  H   H470      1.0  0.45399  0.19642  0.01596  1.0000
  H   H471      1.0  0.55425  0.00093  0.15678  1.0000
  C   C591      1.0  0.55222  0.43618  0.49598  1.0000
  H   H472      1.0  0.66149  0.18483  0.48252  1.0000
  P   P21       1.0  0.55688  0.00045  0.47709  1.0000
  S   S75       1.0  0.45163  0.00073  0.23197  1.0000
  C   C592      1.0  0.50345  0.00239  0.43863  1.0000
  H   H473      1.0  0.43178  0.00157  0.00826  1.0000
  C   C593      1.0  0.61099  0.39322  0.96121  1.0000
  H   H474      1.0  0.41552  0.29767  0.92487  1.0000
  S   S76       1.0  0.35528  0.30742  0.97681  1.0000
  C   C594      1.0  0.50450  0.04512  0.96748  1.0000
  H   H475      1.0  0.36866  0.01777  0.53933  1.0000
  S   S77       1.0  0.38934  0.39389  0.96001  1.0000
  H   H476      1.0  0.49822  0.39744  0.56192  1.0000
  H   H477      1.0  0.62755  0.46576  0.67679  1.0000
  C   C595      1.0  0.66093  0.27660  0.58739  1.0000
  S   S78       1.0  0.49092  0.45029  0.73482  1.0000
  Fe  Fe39      1.0  0.57987  0.20123  0.99617  1.0000
  Fe  Fe40      1.0  0.47779  0.45253  0.79147  1.0000
  S   S79       1.0  0.46151  0.40899  0.81713  1.0000
  C   C596      1.0  0.60919  0.11903  0.65728  1.0000
  H   H478      1.0  0.54985  0.37734  0.55265  1.0000
  S   S80       1.0  0.36102  0.11071  0.60188  1.0000
  C   C597      1.0  0.40237  0.03127  0.66180  1.0000
  C   C598      1.0  0.37942  0.02607  0.63712  1.0000
  C   C599      1.0  0.36701  0.05002  0.61781  1.0000
  C   C600      1.0  0.37717  0.07943  0.62347  1.0000
  C   C601      1.0  0.40028  0.08454  0.64787  1.0000
  C   C602      1.0  0.41303  0.06058  0.66671  1.0000
  H   H479      1.0  0.63002  0.33752  0.90497  1.0000
  C   C603      1.0  0.51744  0.03737  0.51517  1.0000
  H   H480      1.0  0.40821  0.10722  0.65247  1.0000
  H   H481      1.0  0.43055  0.06488  0.68571  1.0000
  C   C604      1.0  0.40876  0.39754  0.91977  1.0000
  C   C605      1.0  0.41777  0.42635  0.90852  1.0000
  C   C606      1.0  0.43380  0.43032  0.87713  1.0000
  C   C607      1.0  0.44102  0.40544  0.85663  1.0000
  C   C608      1.0  0.43201  0.37663  0.86786  1.0000
  C   C609      1.0  0.41600  0.37267  0.89926  1.0000
  H   H482      1.0  0.41230  0.44572  0.92423  1.0000
  H   H483      1.0  0.44058  0.45258  0.86878  1.0000
  H   H484      1.0  0.43734  0.35728  0.85207  1.0000
  H   H485      1.0  0.40905  0.35047  0.90751  1.0000
  H   H486      1.0  0.52586  0.40615  0.84291  1.0000
  C   C610      1.0  0.49215  0.02481  0.99151  1.0000
  C   C611      1.0  0.49150  0.35783  0.93566  1.0000
  C   C612      1.0  0.46560  0.27054  0.99896  1.0000
  H   H487      1.0  0.45430  0.37809  0.96293  1.0000
  C   C613      1.0  0.53038  0.47508  0.63494  1.0000
  C   C614      1.0  0.58434  0.03260  0.93589  1.0000
  H   H488      1.0  0.61164  0.27041  0.65475  1.0000
  Fe  Fe41      1.0  0.60494  0.14904  0.95555  1.0000
  S   S81       1.0  0.60830  0.12170  0.90553  1.0000
  H   H489      1.0  0.58346  0.40099  0.50915  1.0000
  Fe  Fe42      1.0  0.49932  0.03613  0.77324  1.0000
  C   C615      1.0  0.63828  0.08124  0.55929  1.0000
  S   S82       1.0  0.49988  0.07642  0.81014  1.0000
  C   C616      1.0  0.36390  0.48593  0.50036  1.0000
  C   C617      1.0  0.57319  0.00413  0.94541  1.0000
  S   S83       1.0  0.49478  0.03870  0.71476  1.0000
  Fe  Fe43      1.0  0.64122  0.37784  0.55990  1.0000
  S   S84       1.0  0.60633  0.37646  0.60381  1.0000
  C   C618      1.0  0.58543  0.44454  0.69095  1.0000
  C   C619      1.0  0.61186  0.44776  0.67093  1.0000
  C   C620      1.0  0.61829  0.42769  0.64349  1.0000
  C   C621      1.0  0.59862  0.40374  0.63635  1.0000
  C   C622      1.0  0.57217  0.40063  0.65634  1.0000
  C   C623      1.0  0.56541  0.42109  0.68315  1.0000
  S   S85       1.0  0.61857  0.19787  0.95840  1.0000
  H   H490      1.0  0.63877  0.43030  0.62844  1.0000
  H   H491      1.0  0.55682  0.38220  0.65106  1.0000
  H   H492      1.0  0.54498  0.41836  0.69823  1.0000
  H   H493      1.0  0.59815  0.07740  0.59054  1.0000
  H   H494      1.0  0.41770  0.03570  0.57384  1.0000
  C   C624      1.0  0.42797  0.08883  0.51134  1.0000
  C   C625      1.0  0.52990  0.08517  0.83907  1.0000
  C   C626      1.0  0.55978  0.07769  0.83136  1.0000
  C   C627      1.0  0.58348  0.08844  0.85252  1.0000
  C   C628      1.0  0.57754  0.10650  0.88171  1.0000
  C   C629      1.0  0.54758  0.11268  0.89043  1.0000
  C   C630      1.0  0.52389  0.10205  0.86920  1.0000
  H   H495      1.0  0.56472  0.06467  0.80833  1.0000
  H   H496      1.0  0.60660  0.08338  0.84574  1.0000
  H   H497      1.0  0.54273  0.12652  0.91282  1.0000
  H   H498      1.0  0.50085  0.10736  0.87588  1.0000
  H   H499      1.0  0.53356  0.01900  0.86324  1.0000
  H   H500      1.0  0.36118  0.49879  0.55399  1.0000
  C   C631      1.0  0.54392  0.40367  0.82424  1.0000
  C   C632      1.0  0.51604  0.00674  0.87702  1.0000
  C   C633      1.0  0.42680  0.27777  0.91532  1.0000
  H   H501      1.0  0.63129  0.21855  0.65468  1.0000
  H   H502      1.0  0.47914  0.35535  0.91150  1.0000
  H   H503      1.0  0.39636  0.24740  0.94145  1.0000
  C   C634      1.0  0.63931  0.23432  0.63528  1.0000
  C   C635      1.0  0.55988  0.38675  0.76727  1.0000
  H   H504      1.0  0.38973  0.46829  0.61494  1.0000
  C   C636      1.0  0.33985  0.45547  0.54525  1.0000
  C   C637      1.0  0.45635  0.11253  0.94974  1.0000
  H   H505      1.0  0.53231  0.33841  0.91547  1.0000
  C   C638      1.0  0.36084  0.42925  0.60917  1.0000
  H   H506      1.0  0.35088  0.31884  0.52851  1.0000
  C   C639      1.0  0.66628  0.04662  0.61131  1.0000
  H   H507      1.0  0.34911  0.04587  0.59929  1.0000
  C   C640      1.0  0.42200  0.07625  0.54394  1.0000
  H   H508      1.0  0.54423  0.43805  0.60274  1.0000
  C   C641      1.0  0.59561  0.41145  0.80554  1.0000
  H   H509      1.0  0.33962  0.38558  0.60344  1.0000
  C   C642      1.0  0.63937  0.02018  0.69480  1.0000
  H   H510      1.0  0.34937  0.47722  0.65738  1.0000
  H   H511      1.0  0.60315  0.01716  0.73204  1.0000
  H   H512      1.0  0.48619  0.06357  0.54540  1.0000
  C   C643      1.0  0.52146  0.34832  0.93793  1.0000
  C   C644      1.0  0.66073  0.22563  0.61031  1.0000
  C   C645      1.0  0.54425  0.02052  0.51545  1.0000
  H   H513      1.0  0.63180  0.46044  0.91257  1.0000
  C   C646      1.0  0.42824  0.02612  0.51992  1.0000
  S   S86       1.0  0.63050  0.34546  0.51664  1.0000
  Fe  Fe44      1.0  0.45873  0.00341  0.72043  1.0000
  C   C647      1.0  0.52336  0.04823  0.57656  1.0000
  C   C648      1.0  0.54251  0.48016  0.88996  1.0000
  C   C649      1.0  0.33625  0.49333  0.64278  1.0000
  C   C650      1.0  0.40965  0.39729  0.63724  1.0000
  C   C651      1.0  0.63003  0.47223  0.88810  1.0000
  C   C652      1.0  0.54228  0.39699  0.53839  1.0000
  H   H514      1.0  0.55804  0.49545  0.87730  1.0000
  C   C653      1.0  0.51330  0.40841  0.54365  1.0000
  C   C654      1.0  0.52094  0.07004  0.97904  1.0000
  C   C655      1.0  0.47757  0.37082  0.96450  1.0000
  S   S87       1.0  0.57900  0.46914  0.72658  1.0000
  C   C656      1.0  0.38756  0.44427  0.61855  1.0000
  C   C657      1.0  0.42248  0.04505  0.54836  1.0000
  H   H515      1.0  0.61023  0.18108  0.60553  1.0000
  Fe  Fe45      1.0  0.53202  0.47669  0.74933  1.0000
  C   C658      1.0  0.56551  0.47951  0.58698  1.0000
  C   C659      1.0  0.50708  0.05104  0.54563  1.0000
  H   H516      1.0  0.60612  0.39604  0.75375  1.0000
  C   C660      1.0  0.53744  0.38965  0.79253  1.0000
  S   S88       1.0  0.52119  0.47562  0.80668  1.0000
  C   C661      1.0  0.61880  0.16321  0.62191  1.0000
  Fe  Fe46      1.0  0.33533  0.11026  0.55062  1.0000
  H   H517      1.0  0.38238  0.35772  0.62917  1.0000
  H   H518      1.0  0.48071  0.00511  0.98174  1.0000
  C   C662      1.0  0.63897  0.28487  0.61156  1.0000
  H   H519      1.0  0.51476  0.38157  0.78725  1.0000
  C   C663      1.0  0.50079  0.44173  0.92193  1.0000
  H   H520      1.0  0.51480  0.05798  0.60044  1.0000
  S   S89       1.0  0.56413  0.15319  0.99008  1.0000
  H   H521      1.0  0.58583  0.03919  0.90877  1.0000
  C   C664      1.0  0.54835  0.44919  0.89145  1.0000
  C   C665      1.0  0.52738  0.43010  0.90785  1.0000
  P   P22       1.0  0.58182  0.43366  0.87154  1.0000
  C   C666      1.0  0.57302  0.41498  0.83090  1.0000
  C   C667      1.0  0.60836  0.46392  0.86314  1.0000
  H   H522      1.0  0.42840  0.38510  0.64856  1.0000
  C   C668      1.0  0.62831  0.26377  0.63566  1.0000
  C   C669      1.0  0.59778  0.40699  0.90186  1.0000
  C   C670      1.0  0.60912  0.37933  0.89028  1.0000
  C   C671      1.0  0.63555  0.05404  0.61394  1.0000
  H   H523      1.0  0.43932  0.00176  0.88031  1.0000
  C   C672      1.0  0.55068  0.03277  0.57674  1.0000
  C   C673      1.0  0.59859  0.41367  0.93756  1.0000
  H   H524      1.0  0.48415  0.42687  0.93349  1.0000
  H   H525      1.0  0.55465  0.37644  0.74245  1.0000
  C   C674      1.0  0.59854  0.14242  0.63637  1.0000
  H   H526      1.0  0.53124  0.40615  0.90890  1.0000
  H   H527      1.0  0.62761  0.09482  0.53941  1.0000
  S   S90       1.0  0.45142  0.49519  0.78445  1.0000
  H   H528      1.0  0.61830  0.41978  0.80998  1.0000
  H   H529      1.0  0.60873  0.37347  0.86296  1.0000
  C   C675      1.0  0.35549  0.48162  0.53511  1.0000
  C   C676      1.0  0.53732  0.35134  0.96922  1.0000
  C   C677      1.0  0.56144  0.01950  0.54621  1.0000
  H   H530      1.0  0.58996  0.43487  0.94702  1.0000
  C   C678      1.0  0.58895  0.39766  0.77376  1.0000
  C   C679      1.0  0.47920  0.13322  0.95762  1.0000
  H   H531      1.0  0.42019  0.10110  0.91454  1.0000
  C   C680      1.0  0.43816  0.11690  0.92047  1.0000
  C   C681      1.0  0.44328  0.14153  0.89857  1.0000
  C   C682      1.0  0.46727  0.16150  0.90527  1.0000
  C   C683      1.0  0.48464  0.15763  0.93551  1.0000
  P   P23       1.0  0.47505  0.19255  0.87622  1.0000
  C   C684      1.0  0.45634  0.22591  0.89187  1.0000
  C   C685      1.0  0.51556  0.19796  0.87581  1.0000
  C   C686      1.0  0.52931  0.21766  0.89967  1.0000
  C   C687      1.0  0.56072  0.22077  0.90055  1.0000
  C   C688      1.0  0.57874  0.20368  0.87836  1.0000
  C   C689      1.0  0.56532  0.18369  0.85499  1.0000
  C   C690      1.0  0.53390  0.18091  0.85355  1.0000
  C   C691      1.0  0.46673  0.25457  0.88190  1.0000
  C   C692      1.0  0.45210  0.28040  0.89379  1.0000
  S   S91       1.0  0.56344  0.00148  0.67068  1.0000
  C   C693      1.0  0.41601  0.24937  0.92474  1.0000
  C   C694      1.0  0.43079  0.22351  0.91333  1.0000
  C   C695      1.0  0.46215  0.18366  0.83263  1.0000
  C   C696      1.0  0.46624  0.15469  0.81894  1.0000
  C   C697      1.0  0.45619  0.14763  0.78546  1.0000
  C   C698      1.0  0.44186  0.16940  0.76524  1.0000
  C   C699      1.0  0.43764  0.19830  0.77853  1.0000
  C   C700      1.0  0.44775  0.20545  0.81206  1.0000
  C   C701      1.0  0.49493  0.47245  0.91977  1.0000
  H   H532      1.0  0.63046  0.30773  0.61175  1.0000
  H   H533      1.0  0.50676  0.48808  0.55572  1.0000
  H   H534      1.0  0.42877  0.14466  0.87619  1.0000
  H   H535      1.0  0.50262  0.17325  0.94192  1.0000
  H   H536      1.0  0.51596  0.23012  0.91828  1.0000
  H   H537      1.0  0.57113  0.23586  0.91919  1.0000
  H   H538      1.0  0.60313  0.20533  0.87983  1.0000
  H   H539      1.0  0.57935  0.16963  0.83869  1.0000
  H   H540      1.0  0.52429  0.16473  0.83575  1.0000
  H   H541      1.0  0.48612  0.25694  0.86493  1.0000
  H   H542      1.0  0.46026  0.30246  0.88628  1.0000
  H   H543      1.0  0.50188  0.04129  0.93979  1.0000
  C   C702      1.0  0.38362  0.38194  0.62655  1.0000
  H   H544      1.0  0.42219  0.20180  0.92144  1.0000
  H   H545      1.0  0.47719  0.13739  0.83406  1.0000
  H   H546      1.0  0.45959  0.12514  0.77529  1.0000
  H   H547      1.0  0.43401  0.16381  0.73931  1.0000
  H   H548      1.0  0.42648  0.21517  0.76284  1.0000
  H   H549      1.0  0.44413  0.22794  0.82173  1.0000
  C   C703      1.0  0.56149  0.41062  0.51420  1.0000
  H   H550      1.0  0.60320  0.07455  0.95400  1.0000
  C   C704      1.0  0.54640  0.46194  0.60766  1.0000
  C   C705      1.0  0.35935  0.39782  0.61232  1.0000
  C   C706      1.0  0.62223  0.36576  0.94948  1.0000
  H   H551      1.0  0.57788  0.46907  0.56591  1.0000
  H   H552      1.0  0.53123  0.08526  0.96035  1.0000
  S   S92       1.0  0.64777  0.41723  0.52375  1.0000
  C   C707      1.0  0.52359  0.44851  0.50215  1.0000
  H   H553      1.0  0.62905  0.04922  0.77577  1.0000
  H   H554      1.0  0.48111  0.44212  0.52915  1.0000
  C   C708      1.0  0.51577  0.49166  0.90379  1.0000
  C   C709      1.0  0.41167  0.42843  0.63303  1.0000
  H   H555      1.0  0.56320  0.03066  0.60085  1.0000
  C   C710      1.0  0.59398  0.05287  0.96144  1.0000
  H   H556      1.0  0.62209  0.04670  0.63582  1.0000
  H   H557      1.0  0.41662  0.09071  0.56572  1.0000
  H   H558      1.0  0.43191  0.44041  0.64112  1.0000
  H   H559      1.0  0.45263  0.09317  0.96633  1.0000
  C   C711      1.0  0.62121  0.35880  0.91406  1.0000
  C   C712      1.0  0.60658  0.48031  0.83189  1.0000
  H   H560      1.0  0.49295  0.13033  0.98069  1.0000
  C   C713      1.0  0.50380  0.43383  0.52524  1.0000
  H   H561      1.0  0.47391  0.48119  0.92982  1.0000
  H   H562      1.0  0.37097  0.00347  0.63326  1.0000
  H   H563      1.0  0.58973  0.47482  0.81239  1.0000
  H   H564      1.0  0.57453  0.14447  0.63143  1.0000
  C   C714      1.0  0.64001  0.04438  0.75116  1.0000
  H   H565      1.0  0.48003  0.02943  0.85012  1.0000
  C   C715      1.0  0.62542  0.02634  0.72661  1.0000
  H   H566      1.0  0.63188  0.34990  0.96775  1.0000
  H   H567      1.0  0.59348  0.10295  0.66857  1.0000
  H   H568      1.0  0.56044  0.34382  0.97014  1.0000
  S   S93       1.0  0.53470  0.00034  0.77120  1.0000
  C   C716      1.0  0.62172  0.07139  0.58809  1.0000
  S   S94       1.0  0.35047  0.14677  0.51416  1.0000
  H   H569      1.0  0.51554  0.46149  0.65106  1.0000
  Fe  Fe47      1.0  0.46812  0.49512  0.72894  1.0000
  H   H570      1.0  0.65010  0.20281  0.54159  1.0000
  C   C717      1.0  0.48575  0.01293  0.86965  1.0000
  C   C718      1.0  0.49347  0.37430  0.99560  1.0000
  H   H571      1.0  0.64837  0.09765  0.67895  1.0000
  C   C719      1.0  0.64017  0.11609  0.66321  1.0000
  H   H572      1.0  0.42680  0.11296  0.50766  1.0000
  H   H573      1.0  0.58296  0.00807  0.54687  1.0000
  S   S95       1.0  0.46030  0.00364  0.77918  1.0000
  C   C720      1.0  0.52310  0.36355  0.99866  1.0000
  S   S96       1.0  0.55253  0.24386  0.99239  1.0000
  H   H574      1.0  0.62776  0.00601  0.67618  1.0000
  Fe  Fe48      1.0  0.52710  0.99968  0.71308  1.0000
  C   C721      1.0  0.51300  0.24303  0.99706  1.0000
  H   H575      1.0  0.50883  0.29056  0.98738  1.0000
  C   C722      1.0  0.64972  0.49632  0.88173  1.0000
  S   S97       1.0  0.41618  0.00083  0.68691  1.0000
  H   H576      1.0  0.39834  0.13654  0.99821  1.0000
  C   C723      1.0  0.49697  0.26999  0.99381  1.0000
  H   H577      1.0  0.45342  0.29137  0.99616  1.0000
  C   C724      1.0  0.64987  0.16097  0.62872  1.0000
  Fe  Fe49      1.0  0.37585  0.35227  0.99186  1.0000
  H   H578      1.0  0.61208  0.39874  0.98860  1.0000
  C   C725      1.0  0.59161  0.04538  0.99663  1.0000
  H   H579      1.0  0.55574  0.41719  0.99692  1.0000
  C   C726      1.0  0.66051  0.13672  0.64862  1.0000
  C   C727      1.0  0.66737  0.18595  0.53815  1.0000
  C   C728      1.0  0.66802  0.03207  0.68707  1.0000
  H   H580      1.0  0.60181  0.56032  0.05282  1.0000
  S   S98       1.0  0.48883  0.96374  0.29188  1.0000
  H   H581      1.0  0.62743  0.82808  0.39082  1.0000
  Fe  Fe50      1.0  0.48419  0.96236  0.23348  1.0000
  S   S99       1.0  0.48051  0.91834  0.20347  1.0000
  C   C729      1.0  0.41862  0.95742  0.42474  1.0000
  Fe  Fe51      1.0  0.38307  0.85147  0.04651  1.0000
  S   S100      1.0  0.38192  0.88855  0.08724  1.0000
  S   S101      1.0  0.36493  0.80410  0.05004  1.0000
  H   H582      1.0  0.48561  0.50734  0.15075  1.0000
  C   C730      1.0  0.48191  0.57849  0.04742  1.0000
  S   S102      1.0  0.39612  0.57169  0.45472  1.0000
  C   C731      1.0  0.54457  0.51267  0.42793  1.0000
  C   C732      1.0  0.34420  0.94468  0.36225  1.0000
  H   H583      1.0  0.58843  0.96547  0.12707  1.0000
  C   C733      1.0  0.41153  0.51580  0.35528  1.0000
  C   C734      1.0  0.43537  0.53077  0.37174  1.0000
  C   C735      1.0  0.43011  0.54748  0.40224  1.0000
  C   C736      1.0  0.40097  0.54975  0.41651  1.0000
  C   C737      1.0  0.37704  0.53484  0.40007  1.0000
  C   C738      1.0  0.38237  0.51780  0.36972  1.0000
  H   H584      1.0  0.45791  0.52919  0.36113  1.0000
  H   H585      1.0  0.44873  0.55895  0.41470  1.0000
  H   H586      1.0  0.35450  0.53639  0.41070  1.0000
  C   C739      1.0  0.61712  0.98777  0.46141  1.0000
  C   C740      1.0  0.45355  0.91091  0.17035  1.0000
  C   C741      1.0  0.45580  0.88430  0.15078  1.0000
  C   C742      1.0  0.43446  0.87739  0.12470  1.0000
  C   C743      1.0  0.41044  0.89693  0.11823  1.0000
  C   C744      1.0  0.40846  0.92371  0.13746  1.0000
  C   C745      1.0  0.42993  0.93072  0.16331  1.0000
  H   H587      1.0  0.47392  0.86876  0.15616  1.0000
  H   H588      1.0  0.43606  0.85661  0.11032  1.0000
  H   H589      1.0  0.38995  0.93893  0.13262  1.0000
  H   H590      1.0  0.42784  0.95112  0.17831  1.0000
  Fe  Fe52      1.0  0.50139  0.52323  0.23062  1.0000
  C   C746      1.0  0.45646  0.92620  0.45194  1.0000
  S   S103      1.0  0.50100  0.56286  0.19250  1.0000
  H   H591      1.0  0.39788  0.99048  0.45736  1.0000
  C   C747      1.0  0.50681  0.57751  0.37694  1.0000
  S   S104      1.0  0.49857  0.52644  0.28920  1.0000
  Fe  Fe53      1.0  0.61021  0.63853  0.04785  1.0000
  S   S105      1.0  0.60982  0.61007  0.09747  1.0000
  S   S106      1.0  0.62347  0.68771  0.04393  1.0000
  Fe  Fe54      1.0  0.63755  0.88497  0.46186  1.0000
  C   C748      1.0  0.42399  0.92584  0.01473  1.0000
  S   S107      1.0  0.60524  0.88764  0.41586  1.0000
  H   H592      1.0  0.66349  0.97821  0.44881  1.0000
  S   S108      1.0  0.42970  0.75025  0.03149  1.0000
  H   H593      1.0  0.56130  0.79285  0.01422  1.0000
  C   C749      1.0  0.57967  0.96622  0.34380  1.0000
  C   C750      1.0  0.56193  0.94019  0.34551  1.0000
  C   C751      1.0  0.57007  0.91652  0.36789  1.0000
  C   C752      1.0  0.59582  0.91867  0.38911  1.0000
  C   C753      1.0  0.61354  0.94475  0.38764  1.0000
  C   C754      1.0  0.60544  0.96846  0.36512  1.0000
  H   H594      1.0  0.54223  0.93802  0.32909  1.0000
  H   H595      1.0  0.55640  0.89630  0.36854  1.0000
  H   H596      1.0  0.63370  0.94637  0.40334  1.0000
  C   C755      1.0  0.46635  0.74359  0.01599  1.0000
  C   C756      1.0  0.57879  0.59621  0.12218  1.0000
  C   C757      1.0  0.58358  0.57268  0.14602  1.0000
  C   C758      1.0  0.55990  0.56177  0.16720  1.0000
  C   C759      1.0  0.53118  0.57457  0.16505  1.0000
  C   C760      1.0  0.52628  0.59783  0.14083  1.0000
  C   C761      1.0  0.54993  0.60856  0.11948  1.0000
  H   H597      1.0  0.60586  0.56307  0.14848  1.0000
  H   H598      1.0  0.56406  0.54396  0.18575  1.0000
  H   H599      1.0  0.50417  0.60792  0.13901  1.0000
  H   H600      1.0  0.54617  0.62699  0.10171  1.0000
  H   H601      1.0  0.47831  0.93911  0.07513  1.0000
  H   H602      1.0  0.44345  0.92305  0.39793  1.0000
  H   H603      1.0  0.61935  0.98849  0.36390  1.0000
  H   H604      1.0  0.36884  0.91216  0.44348  1.0000
  H   H605      1.0  0.36494  0.70959  0.36727  1.0000
  H   H606      1.0  0.43601  0.50969  0.01837  1.0000
  H   H607      1.0  0.57096  0.53515  0.38856  1.0000
  C   C762      1.0  0.45229  0.94134  0.48346  1.0000
  C   C763      1.0  0.48802  0.51452  0.06236  1.0000
  H   H608      1.0  0.36377  0.50626  0.35719  1.0000
  H   H609      1.0  0.48370  0.58239  0.32839  1.0000
  H   H610      1.0  0.37660  0.86558  0.34305  1.0000
  C   C764      1.0  0.36277  0.67162  0.40194  1.0000
  P   P24       1.0  0.49342  0.54292  0.02930  1.0000
  C   C765      1.0  0.56771  0.97241  0.11445  1.0000
  H   H611      1.0  0.41019  0.90761  0.00468  1.0000
  C   C766      1.0  0.43988  0.93445  0.42251  1.0000
  C   C767      1.0  0.66627  0.80139  0.40389  1.0000
  H   H612      1.0  0.40580  0.96377  0.40181  1.0000
  C   C768      1.0  0.41446  0.97267  0.45617  1.0000
  H   H613      1.0  0.47265  0.90806  0.45029  1.0000
  H   H614      1.0  0.49517  0.62015  0.44901  1.0000
  H   H615      1.0  0.39253  0.69551  0.02847  1.0000
  C   C769      1.0  0.48999  0.52242  0.09770  1.0000
  H   H616      1.0  0.36596  0.63092  0.43212  1.0000
  H   H617      1.0  0.34463  0.68079  0.41763  1.0000
  H   H618      1.0  0.44992  0.98203  0.12140  1.0000
  C   C770      1.0  0.45295  0.58101  0.06200  1.0000
  H   H619      1.0  0.54789  0.55821  0.06873  1.0000
  S   S109      1.0  0.64716  0.62422  0.01124  1.0000
  C   C771      1.0  0.46281  0.94381  0.05408  1.0000
  H   H620      1.0  0.49994  0.72438  0.25907  1.0000
  H   H621      1.0  0.45555  0.65416  0.08773  1.0000
  C   C772      1.0  0.50111  0.60368  0.04721  1.0000
  C   C773      1.0  0.58532  0.55254  0.03398  1.0000
  H   H622      1.0  0.37097  0.55123  0.29968  1.0000
  C   C774      1.0  0.37426  0.68780  0.37360  1.0000
  H   H623      1.0  0.52630  0.50805  0.40997  1.0000
  C   C775      1.0  0.63438  0.81564  0.00792  1.0000
  H   H624      1.0  0.61028  0.96446  0.45903  1.0000
  C   C776      1.0  0.54457  0.94168  0.45530  1.0000
  H   H625      1.0  0.37376  0.96021  0.32132  1.0000
  H   H626      1.0  0.52620  0.57749  0.42837  1.0000
  H   H627      1.0  0.33862  0.87188  0.38961  1.0000
  C   C777      1.0  0.65155  0.82516  0.38743  1.0000
  Fe  Fe55      1.0  0.35481  0.58724  0.48545  1.0000
  H   H628      1.0  0.65300  0.85585  0.03060  1.0000
  C   C778      1.0  0.37750  0.91247  0.32925  1.0000
  H   H629      1.0  0.42683  0.66148  0.27086  1.0000
  S   S110      1.0  0.52546  0.99113  0.22453  1.0000
  C   C779      1.0  0.43652  0.97884  0.01662  1.0000
  C   C780      1.0  0.50535  0.84684  0.00115  1.0000
  C   C781      1.0  0.51146  0.71242  0.01581  1.0000
  C   C782      1.0  0.40691  0.55791  0.26285  1.0000
  C   C783      1.0  0.46198  0.69395  0.26162  1.0000
  C   C784      1.0  0.39826  0.63171  0.39027  1.0000
  H   H630      1.0  0.50662  0.65012  0.06196  1.0000
  C   C785      1.0  0.40063  0.58732  0.31533  1.0000
  H   H631      1.0  0.60476  0.87163  0.05704  1.0000
  C   C786      1.0  0.51011  0.58797  0.41101  1.0000
  C   C787      1.0  0.48442  0.50100  0.12352  1.0000
  C   C788      1.0  0.56976  0.52856  0.41573  1.0000
  H   H632      1.0  0.44591  0.56862  0.23178  1.0000
  S   S111      1.0  0.42501  0.83965  0.01701  1.0000
  C   C789      1.0  0.39781  0.67595  0.35360  1.0000
  H   H633      1.0  0.47035  0.70145  0.04328  1.0000
  H   H634      1.0  0.52342  0.60263  0.03591  1.0000
  C   C790      1.0  0.49263  0.61200  0.42263  1.0000
  H   H635      1.0  0.53992  0.95100  0.42981  1.0000
  C   C791      1.0  0.45976  0.66152  0.31256  1.0000
  H   H636      1.0  0.46388  0.60868  0.27074  1.0000
  C   C792      1.0  0.46276  0.63314  0.07626  1.0000
  C   C793      1.0  0.44543  0.92025  0.04057  1.0000
  C   C794      1.0  0.37477  0.64355  0.41018  1.0000
  H   H637      1.0  0.61360  0.54667  0.42827  1.0000
  C   C795      1.0  0.55470  0.55144  0.04281  1.0000
  H   H638      1.0  0.42126  0.60986  0.08808  1.0000
  H   H639      1.0  0.52160  0.70751  0.31529  1.0000
  C   C796      1.0  0.45915  0.97319  0.04138  1.0000
  C   C797      1.0  0.41007  0.64776  0.36190  1.0000
  C   C798      1.0  0.46772  0.61461  0.36627  1.0000
  C   C799      1.0  0.50088  0.69744  0.30572  1.0000
  H   H640      1.0  0.40735  0.61000  0.39706  1.0000
  C   C800      1.0  0.44346  0.60821  0.07638  1.0000
  C   C801      1.0  0.57977  0.83257  0.03924  1.0000
  H   H641      1.0  0.44788  0.89771  0.05086  1.0000
  P   P25       1.0  0.54422  0.84395  0.05788  1.0000
  C   C802      1.0  0.54856  0.86758  0.09571  1.0000
  C   C803      1.0  0.52416  0.86309  0.02367  1.0000
  C   C804      1.0  0.52719  0.89423  0.01922  1.0000
  H   H642      1.0  0.47481  0.53462  0.46427  1.0000
  C   C805      1.0  0.47173  0.62549  0.40028  1.0000
  H   H643      1.0  0.39437  0.90976  0.30903  1.0000
  C   C806      1.0  0.55331  0.96018  0.48325  1.0000
  C   C807      1.0  0.52661  0.88921  0.10353  1.0000
  C   C808      1.0  0.52953  0.90712  0.13314  1.0000
  C   C809      1.0  0.55353  0.90271  0.15609  1.0000
  C   C810      1.0  0.57493  0.88051  0.14918  1.0000
  C   C811      1.0  0.57239  0.86287  0.11918  1.0000
  C   C812      1.0  0.52214  0.81245  0.07330  1.0000
  C   C813      1.0  0.53583  0.78506  0.08211  1.0000
  C   C814      1.0  0.51823  0.76092  0.09391  1.0000
  C   C815      1.0  0.48704  0.76419  0.09774  1.0000
  C   C816      1.0  0.47343  0.79165  0.09004  1.0000
  C   C817      1.0  0.49089  0.81574  0.07801  1.0000
  C   C818      1.0  0.49154  0.63086  0.06172  1.0000
  C   C819      1.0  0.35277  0.90105  0.46049  1.0000
  C   C820      1.0  0.44751  0.67135  0.28082  1.0000
  H   H644      1.0  0.65657  0.86474  0.35590  1.0000
  H   H645      1.0  0.52828  0.96278  0.03949  1.0000
  H   H646      1.0  0.54249  0.90700  0.03546  1.0000
  H   H647      1.0  0.45257  0.70128  0.23701  1.0000
  C   C821      1.0  0.56033  0.96160  0.08141  1.0000
  H   H648      1.0  0.57546  0.94630  0.06834  1.0000
  C   C822      1.0  0.48153  0.71745  0.02638  1.0000
  H   H649      1.0  0.50681  0.89185  0.08733  1.0000
  H   H650      1.0  0.51265  0.92394  0.13895  1.0000
  H   H651      1.0  0.55493  0.91599  0.17971  1.0000
  H   H652      1.0  0.59307  0.87659  0.16753  1.0000
  H   H653      1.0  0.58860  0.84514  0.11476  1.0000
  H   H654      1.0  0.55998  0.78213  0.07980  1.0000
  H   H655      1.0  0.52873  0.73955  0.09968  1.0000
  H   H656      1.0  0.47325  0.74533  0.10608  1.0000
  H   H657      1.0  0.44917  0.79401  0.09265  1.0000
  H   H658      1.0  0.47991  0.83684  0.07217  1.0000
  C   C823      1.0  0.48867  0.70696  0.27404  1.0000
  H   H659      1.0  0.40638  0.68894  0.33193  1.0000
  H   H660      1.0  0.65361  0.78600  0.42032  1.0000
  C   C824      1.0  0.60560  0.85081  0.04259  1.0000
  C   C825      1.0  0.59386  0.53490  0.43806  1.0000
  C   C826      1.0  0.43210  0.96554  0.48547  1.0000
  H   H661      1.0  0.49317  0.99069  0.46031  1.0000
  H   H662      1.0  0.49635  0.66775  0.34941  1.0000
  H   H663      1.0  0.43784  0.56177  0.06268  1.0000
  C   C827      1.0  0.54307  0.91050  0.45942  1.0000
  H   H664      1.0  0.52030  0.55888  0.36770  1.0000
  C   C828      1.0  0.48586  0.59089  0.35461  1.0000
  C   C829      1.0  0.58117  0.80669  0.01845  1.0000
  C   C830      1.0  0.42690  0.60382  0.30750  1.0000
  C   C831      1.0  0.44306  0.59700  0.27704  1.0000
  C   C832      1.0  0.43302  0.57419  0.25483  1.0000
  H   H665      1.0  0.38816  0.59119  0.33904  1.0000
  H   H666      1.0  0.52340  0.69267  0.02450  1.0000
  C   C833      1.0  0.39064  0.56461  0.29294  1.0000
  H   H667      1.0  0.39976  0.53949  0.24631  1.0000
  C   C834      1.0  0.48648  0.67482  0.32498  1.0000
  C   C835      1.0  0.56751  0.50970  0.48510  1.0000
  C   C836      1.0  0.53310  0.54252  0.01808  1.0000
  H   H668      1.0  0.49556  0.54515  0.10560  1.0000
  P   P26       1.0  0.44103  0.63221  0.33708  1.0000
  S   S112      1.0  0.57091  0.99583  0.31459  1.0000
  H   H669      1.0  0.45860  0.64425  0.40969  1.0000
  C   C837      1.0  0.36582  0.94092  0.33613  1.0000
  H   H670      1.0  0.53734  0.89636  0.43742  1.0000
  C   C838      1.0  0.51387  0.99049  0.08221  1.0000
  Fe  Fe56      1.0  0.65808  0.67347  0.00445  1.0000
  C   C839      1.0  0.59268  0.52560  0.47279  1.0000
  C   C840      1.0  0.63289  0.84214  0.02731  1.0000
  C   C841      1.0  0.53357  0.97074  0.06529  1.0000
  C   C842      1.0  0.34592  0.89129  0.37469  1.0000
  H   H671      1.0  0.61149  0.53033  0.49000  1.0000
  C   C843      1.0  0.64734  0.99550  0.45544  1.0000
  S   S113      1.0  0.57462  0.64030  0.00574  1.0000
  C   C844      1.0  0.60846  0.79808  0.00327  1.0000
  C   C845      1.0  0.36749  0.88764  0.34845  1.0000
  Fe  Fe57      1.0  0.52728  0.99573  0.28296  1.0000
  H   H672      1.0  0.33579  0.96706  0.36708  1.0000
  H   H673      1.0  0.50334  0.82273  0.00364  1.0000
  Fe  Fe58      1.0  0.40525  0.79290  0.01672  1.0000
  H   H674      1.0  0.37533  0.50652  0.49252  1.0000
  C   C846      1.0  0.54834  0.99227  0.13134  1.0000
  C   C847      1.0  0.36350  0.88412  0.48855  1.0000
  C   C848      1.0  0.47532  0.53143  0.49223  1.0000
  H   H675      1.0  0.55085  0.87311  0.49390  1.0000
  C   C849      1.0  0.54349  0.50268  0.46263  1.0000
  H   H676      1.0  0.34271  0.96245  0.46610  1.0000
  H   H677      1.0  0.34720  0.72757  0.02566  1.0000
  C   C850      1.0  0.55093  0.89736  0.49113  1.0000
  C   C851      1.0  0.38233  0.70050  0.00349  1.0000
  C   C852      1.0  0.35671  0.71857  0.00192  1.0000
  H   H678      1.0  0.38758  0.88214  0.49290  1.0000
  C   C853      1.0  0.66810  0.84586  0.36772  1.0000
  C   C854      1.0  0.59465  0.54450  0.00058  1.0000
  C   C855      1.0  0.41942  0.95514  0.00288  1.0000
  H   H679      1.0  0.53303  0.92095  0.89072  1.0000
  C   C856      1.0  0.34393  0.72575  0.96974  1.0000
  H   H680      1.0  0.53132  0.64346  0.84325  1.0000
  H   H681      1.0  0.44623  0.80326  0.90639  1.0000
  H   H682      1.0  0.49409  0.61746  0.54937  1.0000
  S   S114      1.0  0.40694  0.88071  0.92493  1.0000
  H   H683      1.0  0.52723  0.52374  0.96642  1.0000
  H   H684      1.0  0.42025  0.97719  0.60153  1.0000
  C   C857      1.0  0.37429  0.77143  0.87578  1.0000
  S   S115      1.0  0.49088  0.96441  0.71619  1.0000
  H   H685      1.0  0.52880  0.96686  0.57333  1.0000
  Fe  Fe59      1.0  0.49549  0.96774  0.77459  1.0000
  S   S116      1.0  0.50117  0.92692  0.81040  1.0000
  H   H686      1.0  0.60946  0.89489  0.98015  1.0000
  C   C858      1.0  0.49014  0.89295  0.97281  1.0000
  S   S117      1.0  0.36479  0.60625  0.61660  1.0000
  C   C859      1.0  0.42258  0.52958  0.66079  1.0000
  C   C860      1.0  0.41338  0.52927  0.62582  1.0000
  C   C861      1.0  0.39549  0.55245  0.61213  1.0000
  C   C862      1.0  0.38680  0.57641  0.63324  1.0000
  C   C863      1.0  0.39599  0.57682  0.66829  1.0000
  C   C864      1.0  0.41383  0.55347  0.68208  1.0000
  C   C865      1.0  0.61958  0.56250  0.61300  1.0000
  H   H687      1.0  0.38867  0.55190  0.58515  1.0000
  H   H688      1.0  0.38931  0.59529  0.68478  1.0000
  H   H689      1.0  0.42073  0.55390  0.70908  1.0000
  C   C866      1.0  0.43337  0.89232  0.89265  1.0000
  C   C867      1.0  0.42706  0.91832  0.87314  1.0000
  C   C868      1.0  0.44736  0.92900  0.84765  1.0000
  C   C869      1.0  0.47440  0.91387  0.84148  1.0000
  C   C870      1.0  0.48064  0.88769  0.86074  1.0000
  C   C871      1.0  0.46021  0.87686  0.88607  1.0000
  H   H690      1.0  0.40628  0.93034  0.87775  1.0000
  H   H691      1.0  0.44215  0.94903  0.83288  1.0000
  H   H692      1.0  0.50134  0.87563  0.85581  1.0000
  H   H693      1.0  0.46519  0.85653  0.90019  1.0000
  H   H694      1.0  0.42956  0.75980  0.94223  1.0000
  H   H695      1.0  0.56692  0.50245  0.51197  1.0000
  C   C872      1.0  0.35762  0.93377  0.56349  1.0000
  H   H696      1.0  0.46898  0.78416  0.98584  1.0000
  S   S118      1.0  0.62617  0.67669  0.95911  1.0000
  H   H697      1.0  0.65560  0.80865  0.99645  1.0000
  C   C873      1.0  0.36858  0.69139  0.80383  1.0000
  C   C874      1.0  0.49306  0.50504  0.54343  1.0000
  Fe  Fe60      1.0  0.61234  0.62890  0.96902  1.0000
  S   S119      1.0  0.61077  0.59369  0.92591  1.0000
  H   H698      1.0  0.48148  0.79536  0.85697  1.0000
  Fe  Fe61      1.0  0.49574  0.51836  0.79719  1.0000
  C   C875      1.0  0.47149  0.61002  0.59823  1.0000
  S   S120      1.0  0.49529  0.55736  0.83590  1.0000
  H   H699      1.0  0.36805  0.62514  0.84811  1.0000
  C   C876      1.0  0.46984  0.97600  0.91208  1.0000
  S   S121      1.0  0.51006  0.52168  0.74104  1.0000
  Fe  Fe62      1.0  0.64068  0.88266  0.54140  1.0000
  S   S122      1.0  0.61259  0.88574  0.59101  1.0000
  C   C877      1.0  0.57652  0.96917  0.64824  1.0000
  C   C878      1.0  0.59598  0.97266  0.61951  1.0000
  C   C879      1.0  0.60677  0.94746  0.60119  1.0000
  C   C880      1.0  0.59874  0.91844  0.61194  1.0000
  C   C881      1.0  0.57939  0.91500  0.64068  1.0000
  C   C882      1.0  0.56824  0.94018  0.65865  1.0000
  S   S123      1.0  0.64892  0.91971  0.50253  1.0000
  H   H700      1.0  0.62177  0.95044  0.57924  1.0000
  H   H701      1.0  0.57306  0.89265  0.64921  1.0000
  H   H702      1.0  0.55344  0.93707  0.68078  1.0000
  C   C883      1.0  0.36606  0.99428  0.54592  1.0000
  H   H703      1.0  0.43875  0.69396  0.75858  1.0000
  H   H704      1.0  0.53382  0.72454  0.90513  1.0000
  C   C884      1.0  0.52748  0.56734  0.86086  1.0000
  C   C885      1.0  0.55586  0.55528  0.85366  1.0000
  C   C886      1.0  0.58102  0.56362  0.87393  1.0000
  C   C887      1.0  0.57820  0.58417  0.90143  1.0000
  C   C888      1.0  0.54980  0.59621  0.90875  1.0000
  C   C889      1.0  0.52457  0.58782  0.88853  1.0000
  H   H705      1.0  0.55842  0.53952  0.83246  1.0000
  H   H706      1.0  0.60289  0.55424  0.86821  1.0000
  H   H707      1.0  0.54733  0.61204  0.92988  1.0000
  H   H708      1.0  0.50276  0.59725  0.89450  1.0000
  C   C890      1.0  0.45705  0.54856  0.93126  1.0000
  S   S124      1.0  0.35611  0.86074  0.99821  1.0000
  C   C891      1.0  0.52340  0.98467  0.90167  1.0000
  H   H709      1.0  0.55247  0.95868  0.84040  1.0000
  P   P27       1.0  0.56235  0.97717  0.91241  1.0000
  C   C892      1.0  0.58578  0.97949  0.87405  1.0000
  C   C893      1.0  0.57512  0.96787  0.84239  1.0000
  H   H710      1.0  0.60303  0.99487  0.61149  1.0000
  C   C894      1.0  0.43156  0.53003  0.93340  1.0000
  C   C895      1.0  0.45867  0.54676  0.54945  1.0000
  C   C896      1.0  0.38971  0.97382  0.54109  1.0000
  C   C897      1.0  0.56664  0.93862  0.92649  1.0000
  C   C898      1.0  0.58887  0.93080  0.95093  1.0000
  C   C899      1.0  0.35201  0.69889  0.86349  1.0000
  C   C900      1.0  0.57405  0.87839  0.94680  1.0000
  C   C901      1.0  0.55270  0.88584  0.92147  1.0000
  C   C902      1.0  0.54921  0.91575  0.91105  1.0000
  S   S125      1.0  0.38086  0.79860  0.96571  1.0000
  C   C903      1.0  0.56194  0.94661  0.51474  1.0000
  H   H711      1.0  0.55964  0.97617  0.98885  1.0000
  C   C904      1.0  0.50982  0.90915  0.99429  1.0000
  H   H712      1.0  0.47612  0.90446  0.95392  1.0000
  H   H713      1.0  0.60390  0.94771  0.96156  1.0000
  C   C905      1.0  0.46913  0.53764  0.99178  1.0000
  C   C906      1.0  0.61569  0.99006  0.87611  1.0000
  H   H714      1.0  0.53889  0.86842  0.90972  1.0000
  C   C907      1.0  0.59140  0.68157  0.87569  1.0000
  C   C908      1.0  0.56886  0.51025  0.59378  1.0000
  H   H715      1.0  0.61574  0.67981  0.87772  1.0000
  H   H716      1.0  0.44753  0.70930  0.92934  1.0000
  H   H717      1.0  0.62500  0.51655  0.80129  1.0000
  C   C909      1.0  0.34639  0.76233  0.88978  1.0000
  H   H718      1.0  0.40204  0.95941  0.98365  1.0000
  H   H719      1.0  0.49962  0.74419  0.84322  1.0000
  H   H720      1.0  0.47297  0.84912  0.95950  1.0000
  C   C910      1.0  0.45906  0.62607  0.96781  1.0000
  H   H721      1.0  0.36485  0.84737  0.87749  1.0000
  H   H722      1.0  0.46484  0.93392  0.50601  1.0000
  C   C911      1.0  0.61974  0.62246  0.59115  1.0000
  H   H723      1.0  0.57343  0.62341  0.60715  1.0000
  H   H724      1.0  0.57070  0.95967  0.53606  1.0000
  C   C912      1.0  0.59326  0.60951  0.60438  1.0000
  C   C913      1.0  0.64806  0.51217  0.85038  1.0000
  C   C914      1.0  0.52477  0.58118  0.61918  1.0000
  C   C915      1.0  0.49958  0.58191  0.64138  1.0000
  P   P28       1.0  0.55895  0.56257  0.63288  1.0000
  C   C916      1.0  0.35808  0.71037  0.83013  1.0000
  C   C917      1.0  0.59271  0.57911  0.61438  1.0000
  H   H725      1.0  0.58081  0.52800  0.95044  1.0000
  H   H726      1.0  0.49493  0.56759  0.95838  1.0000
  S   S126      1.0  0.34049  0.56055  0.53248  1.0000
  C   C918      1.0  0.57351  0.53406  0.97642  1.0000
  C   C919      1.0  0.52225  0.59313  0.58546  1.0000
  C   C920      1.0  0.55396  0.52331  0.62225  1.0000
  H   H727      1.0  0.58608  0.52411  0.68629  1.0000
  H   H728      1.0  0.44507  0.56123  0.56566  1.0000
  C   C921      1.0  0.56446  0.56723  0.67911  1.0000
  C   C922      1.0  0.55603  0.59405  0.69562  1.0000
  C   C923      1.0  0.56054  0.59764  0.73144  1.0000
  C   C924      1.0  0.57403  0.57476  0.75085  1.0000
  C   C925      1.0  0.58343  0.54848  0.73432  1.0000
  C   C926      1.0  0.57881  0.54476  0.69856  1.0000
  H   H729      1.0  0.63749  0.97884  0.79213  1.0000
  H   H730      1.0  0.50017  0.57112  0.66668  1.0000
  H   H731      1.0  0.35438  0.73384  0.82415  1.0000
  C   C927      1.0  0.62316  0.97903  0.81498  1.0000
  C   C928      1.0  0.51053  0.75900  0.98322  1.0000
  C   C929      1.0  0.33861  0.98454  0.56001  1.0000
  C   C930      1.0  0.36556  0.64900  0.84321  1.0000
  C   C931      1.0  0.37255  0.66077  0.81044  1.0000
  C   C932      1.0  0.48078  0.76420  0.99415  1.0000
  C   C933      1.0  0.64596  0.57548  0.59956  1.0000
  H   H732      1.0  0.54580  0.61212  0.68094  1.0000
  H   H733      1.0  0.58541  0.95818  0.78883  1.0000
  H   H734      1.0  0.58908  0.72168  0.90686  1.0000
  C   C934      1.0  0.44370  0.97430  0.59435  1.0000
  C   C935      1.0  0.44867  0.64792  0.77134  1.0000
  H   H735      1.0  0.39131  0.75501  0.86927  1.0000
  H   H736      1.0  0.56716  0.90511  0.54307  1.0000
  C   C936      1.0  0.54344  0.66130  0.85626  1.0000
  C   C937      1.0  0.47322  0.59660  0.63104  1.0000
  C   C938      1.0  0.38317  0.69770  0.94058  1.0000
  C   C939      1.0  0.64601  0.60539  0.58846  1.0000
  C   C940      1.0  0.47639  0.52439  0.56455  1.0000
  H   H737      1.0  0.45845  0.71413  0.81362  1.0000
  C   C941      1.0  0.34317  0.86967  0.51091  1.0000
  C   C942      1.0  0.38063  0.80199  0.87067  1.0000
  H   H738      1.0  0.58654  0.64068  0.84643  1.0000
  C   C943      1.0  0.42424  0.51603  0.96488  1.0000
  H   H739      1.0  0.66773  0.91649  0.66784  1.0000
  C   C944      1.0  0.47553  0.55271  0.96043  1.0000
  H   H740      1.0  0.40210  0.80908  0.85985  1.0000
  S   S127      1.0  0.62621  0.84902  0.50097  1.0000
  C   C945      1.0  0.52607  0.73337  0.99449  1.0000
  C   C946      1.0  0.44796  0.67880  0.77791  1.0000
  H   H741      1.0  0.51118  0.93328  0.99210  1.0000
  H   H742      1.0  0.39442  0.69040  0.91716  1.0000
  C   C947      1.0  0.62651  0.50414  0.82547  1.0000
  C   C948      1.0  0.59231  0.90083  0.96130  1.0000
  H   H743      1.0  0.57696  0.57727  0.77872  1.0000
  H   H744      1.0  0.46128  0.60438  0.79127  1.0000
  C   C949      1.0  0.44086  0.62692  0.93810  1.0000
  S   S128      1.0  0.36185  0.63008  0.51596  1.0000
  C   C950      1.0  0.48601  0.64249  0.96874  1.0000
  C   C951      1.0  0.49485  0.65975  0.94018  1.0000
  C   C952      1.0  0.47691  0.66052  0.91010  1.0000
  C   C953      1.0  0.44951  0.64443  0.90947  1.0000
  P   P29       1.0  0.48729  0.68510  0.87467  1.0000
  C   C954      1.0  0.52810  0.68498  0.87260  1.0000
  C   C955      1.0  0.47175  0.67075  0.83426  1.0000
  C   C956      1.0  0.47198  0.63970  0.82751  1.0000
  C   C957      1.0  0.46058  0.62839  0.79622  1.0000
  H   H745      1.0  0.45680  0.96587  0.64740  1.0000
  H   H746      1.0  0.41679  0.67811  0.97435  1.0000
  C   C958      1.0  0.45934  0.69019  0.80926  1.0000
  C   C959      1.0  0.54490  0.70685  0.89068  1.0000
  C   C960      1.0  0.57639  0.70521  0.89199  1.0000
  H   H747      1.0  0.62502  0.99781  0.90055  1.0000
  Fe  Fe63      1.0  0.34485  0.60371  0.56197  1.0000
  H   H748      1.0  0.41748  0.52653  0.91065  1.0000
  C   C961      1.0  0.47400  0.72259  0.88432  1.0000
  C   C962      1.0  0.45450  0.72750  0.91252  1.0000
  C   C963      1.0  0.44435  0.75639  0.92013  1.0000
  C   C964      1.0  0.45396  0.78083  0.90009  1.0000
  C   C965      1.0  0.47377  0.77631  0.87228  1.0000
  C   C966      1.0  0.48389  0.74731  0.86449  1.0000
  H   H749      1.0  0.41987  0.61430  0.93747  1.0000
  H   H750      1.0  0.52168  0.77507  0.96636  1.0000
  C   C967      1.0  0.59380  0.96752  0.81306  1.0000
  H   H751      1.0  0.51554  0.67278  0.94200  1.0000
  H   H752      1.0  0.43472  0.64557  0.88707  1.0000
  H   H753      1.0  0.48113  0.62408  0.84631  1.0000
  H   H754      1.0  0.57675  0.85517  0.95479  1.0000
  C   C968      1.0  0.56031  0.91542  0.51877  1.0000
  H   H755      1.0  0.59357  0.53053  0.74929  1.0000
  H   H756      1.0  0.46261  0.55952  0.90683  1.0000
  C   C969      1.0  0.53417  0.50561  0.64227  1.0000
  C   C970      1.0  0.50005  0.96985  0.91960  1.0000
  H   H757      1.0  0.55333  0.61805  0.74426  1.0000
  H   H758      1.0  0.45085  0.62116  0.59027  1.0000
  C   C971      1.0  0.48429  0.97486  0.55214  1.0000
  H   H759      1.0  0.66317  0.53099  0.84566  1.0000
  H   H760      1.0  0.50510  0.95311  0.93888  1.0000
  H   H761      1.0  0.51109  0.96113  0.63374  1.0000
  H   H762      1.0  0.58322  0.52357  0.57696  1.0000
  C   C972      1.0  0.45334  0.97713  0.55962  1.0000
  C   C973      1.0  0.35496  0.66790  0.86951  1.0000
  H   H763      1.0  0.45395  0.59736  0.64834  1.0000
  C   C974      1.0  0.57493  0.65960  0.85792  1.0000
  C   C975      1.0  0.38518  0.94344  0.54963  1.0000
  H   H764      1.0  0.54061  0.59107  0.56704  1.0000
  H   H765      1.0  0.44007  0.63911  0.74695  1.0000
  Fe  Fe64      1.0  0.39732  0.84667  0.96844  1.0000
  H   H766      1.0  0.37333  0.70040  0.77817  1.0000
  H   H767      1.0  0.40323  0.92736  0.54628  1.0000
  H   H768      1.0  0.62024  0.53957  0.62253  1.0000
  H   H769      1.0  0.52183  0.51525  0.66382  1.0000
  H   H770      1.0  0.45195  0.96358  0.92505  1.0000
  C   C976      1.0  0.49167  0.50765  0.50699  1.0000
  H   H771      1.0  0.38059  0.64608  0.79001  1.0000
  H   H772      1.0  0.49248  0.97788  0.52588  1.0000
  H   H773      1.0  0.65820  0.61595  0.68219  1.0000
  C   C977      1.0  0.50497  0.96876  0.57880  1.0000
  C   C978      1.0  0.35640  0.71442  0.93892  1.0000
  H   H774      1.0  0.35142  0.85638  0.53255  1.0000
  C   C979      1.0  0.35957  0.82366  0.88048  1.0000
  C   C980      1.0  0.49587  0.60796  0.57527  1.0000
  C   C981      1.0  0.49505  0.96547  0.61304  1.0000
  H   H775      1.0  0.61996  0.64585  0.58314  1.0000
  H   H776      1.0  0.35434  0.91041  0.57054  1.0000
  H   H777      1.0  0.65706  0.99872  0.84820  1.0000
  C   C982      1.0  0.45865  0.55070  0.51341  1.0000
  H   H778      1.0  0.51091  0.51541  0.90134  1.0000
  H   H779      1.0  0.66649  0.56246  0.59810  1.0000
  C   C983      1.0  0.48834  0.86173  0.97590  1.0000
  C   C984      1.0  0.63412  0.99025  0.84653  1.0000
  C   C985      1.0  0.39594  0.69060  0.97285  1.0000
  H   H780      1.0  0.44532  0.56846  0.50183  1.0000
  H   H781      1.0  0.50016  0.64237  0.99162  1.0000
  H   H782      1.0  0.34903  0.65836  0.89458  1.0000
  C   C986      1.0  0.46445  0.96819  0.62076  1.0000
  H   H783      1.0  0.34385  0.52834  0.68051  1.0000
  S   S129      1.0  0.56389  0.72876  0.98195  1.0000
  H   H784      1.0  0.47698  0.52189  0.59265  1.0000
  C   C987      1.0  0.66784  0.57106  0.69981  1.0000
  C   C988      1.0  0.46270  0.99746  0.88692  1.0000
  S   S130      1.0  0.44450  0.49930  0.67643  1.0000
  C   C989      1.0  0.56962  0.99729  0.98090  1.0000
  H   H785      1.0  0.61821  0.54674  0.99327  1.0000
  Fe  Fe65      1.0  0.59083  0.68814  0.99872  1.0000
  P   P30       1.0  0.42632  0.98580  0.52574  1.0000
  H   H786      1.0  0.45216  0.61288  0.99019  1.0000
  H   H787      1.0  0.40425  0.50189  0.96665  1.0000
  C   C990      1.0  0.54294  0.53246  0.98535  1.0000
  H   H788      1.0  0.66616  0.50290  0.90122  1.0000
  H   H789      1.0  0.64776  0.56945  0.71584  1.0000
  H   H790      1.0  0.42035  0.51112  0.60906  1.0000
  C   C991      1.0  0.44269  0.52012  0.99409  1.0000
  P   P31       1.0  0.33861  0.72305  0.89789  1.0000
  H   H791      1.0  0.60952  0.77756  0.98807  1.0000
  H   H792      1.0  0.66650  0.61549  0.57822  1.0000
  Fe  Fe66      1.0  0.34138  0.81225  0.99900  1.0000
  H   H793      1.0  0.94252  0.37506  0.30849  1.0000
  C   C992      1.0  0.76587  0.38801  0.44834  1.0000
  C   C993      1.0  0.91232  0.43605  0.01525  1.0000
  H   H794      1.0  0.81854  0.35565  0.26358  1.0000
  H   H795      1.0  0.98614  0.03408  0.40120  1.0000
  S   S131      1.0  0.99334  0.46134  0.25804  1.0000
  H   H796      1.0  0.97117  0.09411  0.42291  1.0000
  Fe  Fe67      1.0  0.87999  0.35386  0.04068  1.0000
  S   S132      1.0  0.88379  0.37517  0.09431  1.0000
  C   C994      1.0  0.90239  0.30868  0.14986  1.0000
  S   S133      1.0  0.86415  0.30607  0.03187  1.0000
  H   H797      1.0  0.87850  0.48430  0.43285  1.0000
  C   C995      1.0  0.78303  0.08513  0.40966  1.0000
  C   C996      1.0  0.89749  0.42960  0.33875  1.0000
  H   H798      1.0  0.81881  0.09252  0.37270  1.0000
  H   H799      1.0  0.99527  0.46053  0.46558  1.0000
  C   C997      1.0  0.91260  0.00332  0.11966  1.0000
  S   S134      1.0  0.86865  0.11160  0.42638  1.0000
  C   C998      1.0  0.75648  0.37763  0.41555  1.0000
  C   C999      1.0  0.75230  0.32701  0.43933  1.0000
  C   C1000     1.0  0.76564  0.48926  0.41342  1.0000
  C   C1001     1.0  0.76907  0.03319  0.42002  1.0000
  H   H800      1.0  0.75611  0.01689  0.43487  1.0000
  C   C1002     1.0  0.99760  0.09129  0.03123  1.0000
  H   H801      1.0  0.93884  0.38813  0.42884  1.0000
  C   C1003     1.0  0.89866  0.32437  0.35164  1.0000
  H   H802      1.0  0.77051  0.41159  0.45288  1.0000
  C   C1004     1.0  0.92997  0.03305  0.18048  1.0000
  C   C1005     1.0  0.80799  0.04544  0.37787  1.0000
  H   H803      1.0  0.74612  0.30353  0.43637  1.0000
  H   H804      1.0  0.89230  0.42409  0.00658  1.0000
  C   C1006     1.0  0.91497  0.46910  0.46610  1.0000
  P   P32       1.0  0.75342  0.40310  0.37893  1.0000
  H   H805      1.0  0.76263  0.32226  0.49379  1.0000
  C   C1007     1.0  0.92729  0.35617  0.31233  1.0000
  C   C1008     1.0  0.87455  0.43829  0.22463  1.0000
  H   H806      1.0  0.99708  0.11094  0.16358  1.0000
  C   C1009     1.0  0.92096  0.41290  0.23987  1.0000
  C   C1010     1.0  0.91199  0.45168  0.04671  1.0000
  H   H807      1.0  0.93200  0.00734  0.02850  1.0000
  C   C1011     1.0  0.71849  0.23295  0.00774  1.0000
  C   C1012     1.0  0.91050  0.02824  0.37522  1.0000
  C   C1013     1.0  0.91881  0.05712  0.36431  1.0000
  C   C1014     1.0  0.90601  0.08250  0.38039  1.0000
  C   C1015     1.0  0.88502  0.07923  0.40759  1.0000
  C   C1016     1.0  0.87702  0.05036  0.41867  1.0000
  C   C1017     1.0  0.88991  0.02504  0.40277  1.0000
  H   H808      1.0  0.93460  0.05994  0.34306  1.0000
  H   H809      1.0  0.91221  0.10478  0.37152  1.0000
  H   H810      1.0  0.86044  0.04757  0.43907  1.0000
  H   H811      1.0  0.83161  0.34006  0.32374  1.0000
  C   C1018     1.0  0.96677  0.42594  0.13594  1.0000
  C   C1019     1.0  0.96969  0.40676  0.10712  1.0000
  C   C1020     1.0  0.94434  0.39163  0.09336  1.0000
  C   C1021     1.0  0.91593  0.39542  0.10861  1.0000
  C   C1022     1.0  0.91304  0.41486  0.13716  1.0000
  C   C1023     1.0  0.93828  0.43028  0.15055  1.0000
  C   C1024     1.0  0.91853  0.34841  0.34614  1.0000
  H   H812      1.0  0.94681  0.37672  0.07136  1.0000
  H   H813      1.0  0.89113  0.41799  0.14895  1.0000
  H   H814      1.0  0.93580  0.44531  0.17240  1.0000
  H   H815      1.0  0.83387  0.48091  0.37431  1.0000
  C   C1025     1.0  0.99685  0.07892  0.46776  1.0000
  H   H816      1.0  0.69664  0.36890  0.39311  1.0000
  H   H817      1.0  0.85045  0.39234  0.39413  1.0000
  C   C1026     1.0  0.89132  0.00910  0.14564  1.0000
  H   H818      1.0  0.85854  0.40147  0.33079  1.0000
  P   P33       1.0  0.92774  0.35056  0.24034  1.0000
  C   C1027     1.0  0.96811  0.35614  0.23841  1.0000
  C   C1028     1.0  0.91645  0.33971  0.28373  1.0000
  C   C1029     1.0  0.79920  0.44672  0.37698  1.0000
  C   C1030     1.0  0.67599  0.43854  0.33748  1.0000
  H   H819      1.0  0.91520  0.46093  0.24086  1.0000
  C   C1031     1.0  0.88722  0.30832  0.32325  1.0000
  C   C1032     1.0  0.89570  0.31622  0.28935  1.0000
  C   C1033     1.0  0.76159  0.33755  0.47183  1.0000
  H   H820      1.0  0.89202  0.31824  0.37789  1.0000
  C   C1034     1.0  0.76552  0.06375  0.42723  1.0000
  C   C1035     1.0  0.76860  0.36794  0.47624  1.0000
  C   C1036     1.0  0.75359  0.46059  0.40767  1.0000
  C   C1037     1.0  0.91962  0.32238  0.20782  1.0000
  S   S135      1.0  0.84467  0.37300  0.00522  1.0000
  C   C1038     1.0  0.90761  0.38501  0.23218  1.0000
  C   C1039     1.0  0.90692  0.27835  0.15753  1.0000
  C   C1040     1.0  0.91882  0.27001  0.18981  1.0000
  C   C1041     1.0  0.92544  0.29195  0.21477  1.0000
  C   C1042     1.0  0.88827  0.41974  0.40981  1.0000
  H   H821      1.0  0.74820  0.41181  0.30311  1.0000
  C   C1043     1.0  0.97929  0.03903  0.06674  1.0000
  H   H822      1.0  0.92713  0.36115  0.36807  1.0000
  H   H823      1.0  0.79177  0.25691  0.01902  1.0000
  C   C1044     1.0  0.86907  0.40631  0.38538  1.0000
  H   H824      1.0  0.70549  0.30556  0.12022  1.0000
  S   S136      1.0  0.99933  0.44303  0.15393  1.0000
  H   H825      1.0  0.87163  0.28979  0.32754  1.0000
  H   H826      1.0  0.88590  0.30405  0.26772  1.0000
  H   H827      1.0  0.93522  0.45676  0.35366  1.0000
  C   C1045     1.0  0.90456  0.43941  0.23569  1.0000
  H   H828      1.0  0.68015  0.03134  0.45327  1.0000
  H   H829      1.0  0.90079  0.43414  0.31129  1.0000
  H   H830      1.0  0.96655  0.38475  0.19284  1.0000
  C   C1046     1.0  0.96998  0.28051  0.01970  1.0000
  C   C1047     1.0  0.71420  0.40881  0.36721  1.0000
  H   H831      1.0  0.90168  0.26139  0.13816  1.0000
  H   H832      1.0  0.92298  0.24650  0.19540  1.0000
  H   H833      1.0  0.93498  0.28516  0.23950  1.0000
  C   C1048     1.0  0.95934  0.39634  0.44080  1.0000
  P   P34       1.0  0.93745  0.45481  0.43055  1.0000
  H   H834      1.0  0.88433  0.41585  0.43731  1.0000
  H   H835      1.0  0.88371  0.00282  0.41163  1.0000
  C   C1049     1.0  0.97877  0.06711  0.08345  1.0000
  H   H836      1.0  0.99089  0.24093  0.10478  1.0000
  C   C1050     1.0  0.88677  0.48221  0.45930  1.0000
  H   H837      1.0  0.99135  0.01605  0.01904  1.0000
  C   C1051     1.0  0.96433  0.46594  0.03804  1.0000
  C   C1052     1.0  0.96243  0.00167  0.49630  1.0000
  H   H838      1.0  0.95646  0.29973  0.02673  1.0000
  H   H839      1.0  0.86609  0.36269  0.21689  1.0000
  C   C1053     1.0  0.91476  0.02792  0.49774  1.0000
  C   C1054     1.0  0.77013  0.43922  0.38891  1.0000
  H   H840      1.0  0.99236  0.39549  0.03021  1.0000
  C   C1055     1.0  0.80435  0.07596  0.38517  1.0000
  C   C1056     1.0  0.81150  0.47517  0.38369  1.0000
  C   C1057     1.0  0.68545  0.26886  0.09198  1.0000
  H   H841      1.0  0.97817  0.32706  0.28224  1.0000
  C   C1058     1.0  0.80601  0.36448  0.28549  1.0000
  C   C1059     1.0  0.90901  0.33066  0.17472  1.0000
  C   C1060     1.0  0.99999  0.25442  0.12586  1.0000
  H   H842      1.0  0.93799  0.47799  0.08305  1.0000
  Fe  Fe68      1.0  0.84503  0.11026  0.47900  1.0000
  H   H843      1.0  0.89184  0.45138  0.06273  1.0000
  H   H844      1.0  0.71337  0.22759  0.47882  1.0000
  S   S137      1.0  0.68807  0.37126  0.47424  1.0000
  S   S138      1.0  0.69540  0.20094  0.01759  1.0000
  H   H845      1.0  0.96355  0.28617  0.12489  1.0000
  C   C1061     1.0  0.91235  0.43812  0.39882  1.0000
  H   H846      1.0  0.98444  0.31699  0.17303  1.0000
  H   H847      1.0  0.81225  0.43088  0.36212  1.0000
  C   C1062     1.0  0.95814  0.48540  0.41039  1.0000
  C   C1063     1.0  0.77310  0.38697  0.34221  1.0000
  C   C1064     1.0  0.94636  0.10000  0.47014  1.0000
  H   H848      1.0  0.86810  0.00192  0.14220  1.0000
  C   C1065     1.0  0.98080  0.37407  0.21209  1.0000
  C   C1066     1.0  0.87715  0.38399  0.22198  1.0000
  C   C1067     1.0  0.96490  0.45010  0.00642  1.0000
  H   H849      1.0  0.74976  0.07082  0.44715  1.0000
  C   C1068     1.0  0.93797  0.46669  0.05807  1.0000
  S   S139      1.0  0.99543  0.06865  0.21999  1.0000
  H   H850      1.0  0.72277  0.45085  0.34016  1.0000
  H   H851      1.0  0.99162  0.40348  0.09552  1.0000
  H   H852      1.0  0.81539  0.00782  0.45673  1.0000
  C   C1069     1.0  0.98373  0.47929  0.38997  1.0000
  Fe  Fe69      1.0  0.99725  0.02782  0.25566  1.0000
  H   H853      1.0  0.80363  0.36036  0.37369  1.0000
  H   H854      1.0  0.99175  0.45649  0.38701  1.0000
  C   C1070     1.0  0.86079  0.41057  0.21789  1.0000
  C   C1071     1.0  0.79466  0.49649  0.40180  1.0000
  C   C1072     1.0  0.87360  0.41138  0.34983  1.0000
  H   H855      1.0  0.92718  0.11008  0.45716  1.0000
  H   H856      1.0  0.90579  0.35403  0.16784  1.0000
  C   C1073     1.0  0.97162  0.09127  0.45089  1.0000
  C   C1074     1.0  0.98788  0.09309  0.06571  1.0000
  C   C1075     1.0  0.95143  0.02694  0.15480  1.0000
  C   C1076     1.0  0.75005  0.34686  0.41119  1.0000
  C   C1077     1.0  0.68543  0.29184  0.11672  1.0000
  C   C1078     1.0  0.99751  0.27507  0.03671  1.0000
  C   C1079     1.0  0.93947  0.01717  0.47905  1.0000
  H   H857      1.0  0.78070  0.10879  0.41558  1.0000
  H   H858      1.0  0.89754  0.04086  0.48471  1.0000
  H   H859      1.0  0.97760  0.35175  0.44699  1.0000
  C   C1080     1.0  0.98457  0.27986  0.13728  1.0000
  H   H860      1.0  0.83755  0.40974  0.20911  1.0000
  C   C1081     1.0  0.79005  0.02383  0.39486  1.0000
  C   C1082     1.0  0.69162  0.38819  0.37712  1.0000
  C   C1083     1.0  0.79721  0.36708  0.34763  1.0000
  H   H861      1.0  0.94400  0.41435  0.24913  1.0000
  C   C1084     1.0  0.78248  0.38470  0.27989  1.0000
  H   H862      1.0  0.77683  0.39167  0.25365  1.0000
  C   C1085     1.0  0.76614  0.39599  0.30810  1.0000
  H   H863      1.0  0.86204  0.45898  0.22127  1.0000
  H   H864      1.0  0.98430  0.47695  0.04799  1.0000
  H   H865      1.0  0.88351  0.02871  0.19609  1.0000
  H   H866      1.0  0.93669  0.04476  0.20397  1.0000
  H   H867      1.0  0.97468  0.03376  0.15904  1.0000
  H   H868      1.0  0.70535  0.26480  0.07619  1.0000
  S   S140      1.0  0.79757  0.12667  0.48779  1.0000
  H   H869      1.0  0.94113  0.02159  0.45136  1.0000
  C   C1086     1.0  0.81335  0.35567  0.31935  1.0000
  C   C1087     1.0  0.91699  0.44266  0.36306  1.0000
  H   H870      1.0  0.73121  0.45531  0.41748  1.0000
  H   H871      1.0  0.82539  0.03891  0.35970  1.0000
  C   C1088     1.0  0.96431  0.42726  0.44568  1.0000
  C   C1089     1.0  0.89998  0.02407  0.17600  1.0000
  C   C1090     1.0  0.99656  0.29737  0.16416  1.0000
  H   H872      1.0  0.74267  0.33831  0.38621  1.0000
  C   C1091     1.0  0.70601  0.43424  0.34761  1.0000
  H   H873      1.0  0.89376  0.31527  0.12453  1.0000
  H   H874      1.0  0.97209  0.06913  0.11038  1.0000
  C   C1092     1.0  0.99120  0.43691  0.46147  1.0000
  S   S141      1.0  0.99927  0.03142  0.31411  1.0000
  C   C1093     1.0  0.94286  0.01237  0.12393  1.0000
  C   C1094     1.0  0.98725  0.34180  0.26236  1.0000
  C   C1095     1.0  0.99844  0.06349  0.01453  1.0000
  P   P35       1.0  0.97061  0.00491  0.09052  1.0000
  Fe  Fe70      1.0  0.99718  0.47400  0.20125  1.0000
  C   C1096     1.0  0.98125  0.37557  0.45108  1.0000
  H   H875      1.0  0.75460  0.19334  0.49739  1.0000
  C   C1097     1.0  0.98953  0.03743  0.03217  1.0000
  C   C1098     1.0  0.86903  0.49298  0.48662  1.0000
  S   S142      1.0  0.91618  0.35331  0.99966  1.0000
  H   H876      1.0  0.98799  0.11459  0.07894  1.0000
  C   C1099     1.0  0.74907  0.23281  0.01796  1.0000
  C   C1100     1.0  0.76834  0.25756  0.01111  1.0000
  H   H877      1.0  0.75798  0.21328  0.03116  1.0000
  H   H878      1.0  0.70106  0.14627  0.47330  1.0000
  C   C1101     1.0  0.99850  0.38652  0.00507  1.0000
  H   H879      1.0  0.99531  0.34089  0.02316  1.0000
  C   C1102     1.0  0.99964  0.35537  0.00104  1.0000
  C   C1103     1.0  0.72893  0.23468  0.49893  1.0000
  C   C1104     1.0  0.00138  0.01804  0.41309  1.0000
  H   H880      1.0  0.66966  0.45830  0.32270  1.0000
  H   H881      1.0  0.68446  0.13370  0.65288  1.0000
  C   C1105     1.0  0.68382  0.17503  0.56671  1.0000
  S   S143      1.0  0.86379  0.32337  0.94824  1.0000
  H   H882      1.0  0.71816  0.47702  0.58375  1.0000
  Fe  Fe71      1.0  0.68005  0.33465  0.51370  1.0000
  S   S144      1.0  0.88520  0.41021  0.92774  1.0000
  C   C1106     1.0  0.96656  0.48750  0.61429  1.0000
  C   C1107     1.0  0.78558  0.05364  0.64425  1.0000
  H   H883      1.0  0.94686  0.49778  0.88479  1.0000
  C   C1108     1.0  0.90744  0.12439  0.79658  1.0000
  S   S145      1.0  0.96692  0.00813  0.80350  1.0000
  C   C1109     1.0  0.71152  0.14217  0.52779  1.0000
  C   C1110     1.0  0.97042  0.45713  0.60661  1.0000
  H   H884      1.0  0.98710  0.02828  0.60293  1.0000
  H   H885      1.0  0.78454  0.25942  0.57107  1.0000
  H   H886      1.0  0.94906  0.47339  0.94211  1.0000
  S   S146      1.0  0.80979  0.11394  0.57168  1.0000
  C   C1111     1.0  0.99626  0.47073  0.55328  1.0000
  Fe  Fe72      1.0  0.85648  0.09863  0.55642  1.0000
  S   S147      1.0  0.89825  0.08843  0.58962  1.0000
  C   C1112     1.0  0.88482  0.19633  0.93692  1.0000
  S   S148      1.0  0.86354  0.13913  0.52197  1.0000
  C   C1113     1.0  0.68250  0.05610  0.58184  1.0000
  C   C1114     1.0  0.96957  0.47554  0.92720  1.0000
  P   P36       1.0  0.68510  0.02510  0.64498  1.0000
  H   H887      1.0  0.71769  0.30289  0.97101  1.0000
  H   H888      1.0  0.98853  0.42514  0.57035  1.0000
  C   C1115     1.0  0.91294  0.02324  0.53359  1.0000
  C   C1116     1.0  0.99703  0.46415  0.93969  1.0000
  H   H889      1.0  0.89567  0.45748  0.74261  1.0000
  C   C1117     1.0  0.91898  0.02068  0.67748  1.0000
  C   C1118     1.0  0.89103  0.01950  0.66001  1.0000
  C   C1119     1.0  0.88423  0.03992  0.63297  1.0000
  C   C1120     1.0  0.90546  0.06169  0.62301  1.0000
  C   C1121     1.0  0.93366  0.06238  0.63990  1.0000
  C   C1122     1.0  0.94039  0.04210  0.66703  1.0000
  C   C1123     1.0  0.94848  0.03885  0.94462  1.0000
  H   H890      1.0  0.86256  0.03893  0.62003  1.0000
  H   H891      1.0  0.95026  0.07907  0.63233  1.0000
  H   H892      1.0  0.96199  0.04324  0.68010  1.0000
  C   C1124     1.0  0.91382  0.41458  0.89587  1.0000
  C   C1125     1.0  0.91087  0.43737  0.87081  1.0000
  C   C1126     1.0  0.93294  0.44153  0.84486  1.0000
  C   C1127     1.0  0.95827  0.42291  0.84369  1.0000
  C   C1128     1.0  0.96122  0.40010  0.86882  1.0000
  C   C1129     1.0  0.93930  0.39619  0.89507  1.0000
  H   H893      1.0  0.89127  0.45176  0.87123  1.0000
  H   H894      1.0  0.93016  0.45896  0.82558  1.0000
  C   C1130     1.0  0.96148  0.30928  0.83181  1.0000
  H   H895      1.0  0.94205  0.37892  0.91460  1.0000
  H   H896      1.0  0.93151  0.11548  0.74894  1.0000
  P   P37       1.0  0.94186  0.13338  0.89535  1.0000
  H   H897      1.0  0.93433  0.00533  0.57892  1.0000
  C   C1131     1.0  0.71665  0.48102  0.50068  1.0000
  H   H898      1.0  0.77515  0.37618  0.50169  1.0000
  S   S149      1.0  0.74896  0.06415  0.52496  1.0000
  S   S150      1.0  0.84033  0.06908  0.51244  1.0000
  C   C1132     1.0  0.93829  0.12953  0.84866  1.0000
  H   H899      1.0  0.79515  0.01834  0.51860  1.0000
  H   H900      1.0  0.95561  0.49394  0.63831  1.0000
  C   C1133     1.0  0.97514  0.15533  0.90536  1.0000
  C   C1134     1.0  0.93338  0.11983  0.77662  1.0000
  H   H901      1.0  0.94674  0.45719  0.50672  1.0000
  C   C1135     1.0  0.75231  0.21516  0.50941  1.0000
  C   C1136     1.0  0.77269  0.22395  0.53535  1.0000
  H   H902      1.0  0.83657  0.39291  0.79077  1.0000
  C   C1137     1.0  0.98515  0.44873  0.57602  1.0000
  H   H903      1.0  0.87091  0.24230  0.76371  1.0000
  H   H904      1.0  0.76906  0.09877  0.63847  1.0000
  C   C1138     1.0  0.93808  0.06307  0.96430  1.0000
  S   S151      1.0  0.80244  0.20013  0.55010  1.0000
  H   H905      1.0  0.93956  0.42517  0.75596  1.0000
  Fe  Fe73      1.0  0.87995  0.36950  0.96340  1.0000
  C   C1139     1.0  0.74227  0.46490  0.51047  1.0000
  H   H906      1.0  0.85198  0.35040  0.74116  1.0000
  H   H907      1.0  0.84425  0.44139  0.76051  1.0000
  C   C1140     1.0  0.96175  0.12039  0.79247  1.0000
  H   H908      1.0  0.93156  0.05976  0.99120  1.0000
  H   H909      1.0  0.84932  0.25877  0.70722  1.0000
  H   H910      1.0  0.96233  0.44018  0.62469  1.0000
  C   C1141     1.0  0.74740  0.01456  0.64870  1.0000
  H   H911      1.0  0.83984  0.31284  0.69637  1.0000
  H   H912      1.0  0.98641  0.12484  0.84018  1.0000
  H   H913      1.0  0.88310  0.27956  0.80912  1.0000
  C   C1142     1.0  0.90898  0.15196  0.91297  1.0000
  H   H914      1.0  0.98055  0.38539  0.86792  1.0000
  H   H915      1.0  0.97008  0.18523  0.86122  1.0000
  C   C1143     1.0  0.70527  0.15234  0.56139  1.0000
  C   C1144     1.0  0.97746  0.23595  0.98481  1.0000
  C   C1145     1.0  0.92521  0.46720  0.50064  1.0000
  H   H916      1.0  0.68808  0.18688  0.68522  1.0000
  H   H917      1.0  0.80916  0.06034  0.64319  1.0000
  C   C1146     1.0  0.71027  0.19113  0.63523  1.0000
  C   C1147     1.0  0.70936  0.18987  0.67174  1.0000
  C   C1148     1.0  0.73597  0.19274  0.69113  1.0000
  C   C1149     1.0  0.76356  0.19741  0.67422  1.0000
  C   C1150     1.0  0.76448  0.19960  0.63797  1.0000
  C   C1151     1.0  0.73793  0.19677  0.61856  1.0000
  H   H918      1.0  0.83571  0.13735  0.93536  1.0000
  Fe  Fe74      1.0  0.98718  0.46711  0.77386  1.0000
  C   C1152     1.0  0.76910  0.25242  0.55079  1.0000
  P   P38       1.0  0.99949  0.44595  0.98187  1.0000
  S   S152      1.0  0.69495  0.28643  0.50029  1.0000
  C   C1153     1.0  0.75725  0.28305  0.99408  1.0000
  C   C1154     1.0  0.87948  0.49123  0.52088  1.0000
  H   H919      1.0  0.69479  0.47007  0.50037  1.0000
  C   C1155     1.0  0.93868  0.43506  0.99532  1.0000
  H   H920      1.0  0.98141  0.29830  0.88145  1.0000
  H   H921      1.0  0.69854  0.02466  0.51555  1.0000
  C   C1156     1.0  0.77059  0.47926  0.51073  1.0000
  C   C1157     1.0  0.85799  0.18013  0.94140  1.0000
  C   C1158     1.0  0.95721  0.04331  0.91006  1.0000
  H   H922      1.0  0.71765  0.14287  0.58307  1.0000
  C   C1159     1.0  0.74566  0.27192  0.54036  1.0000
  H   H923      1.0  0.68003  0.07003  0.76309  1.0000
  H   H924      1.0  0.73519  0.19160  0.71928  1.0000
  H   H925      1.0  0.78420  0.19969  0.68915  1.0000
  H   H926      1.0  0.78575  0.20369  0.62470  1.0000
  H   H927      1.0  0.73913  0.19922  0.59056  1.0000
  Fe  Fe75      1.0  0.83113  0.32518  0.99311  1.0000
  C   C1160     1.0  0.99523  0.07310  0.50365  1.0000
  H   H928      1.0  0.70483  0.05942  0.70715  1.0000
  S   S153      1.0  0.98634  0.42702  0.81100  1.0000
  H   H929      1.0  0.72888  0.12547  0.52376  1.0000
  C   C1161     1.0  0.91022  0.18238  0.92275  1.0000
  C   C1162     1.0  0.94556  0.09546  0.50608  1.0000
  Fe  Fe76      1.0  0.81546  0.15224  0.53364  1.0000
  S   S154      1.0  0.98364  0.46480  0.71522  1.0000
  C   C1163     1.0  0.72451  0.03617  0.64568  1.0000
  C   C1164     1.0  0.88192  0.13580  0.91768  1.0000
  C   C1165     1.0  0.98324  0.17981  0.88413  1.0000
  H   H930      1.0  0.71533  0.08369  0.64005  1.0000
  C   C1166     1.0  0.96002  0.26108  0.99351  1.0000
  S   S155      1.0  0.69017  0.36366  0.56026  1.0000
  H   H931      1.0  0.88045  0.11232  0.91045  1.0000
  H   H932      1.0  0.92580  0.10199  0.52088  1.0000
  H   H933      1.0  0.92865  0.11033  0.96519  1.0000
  H   H934      1.0  0.68392  0.25908  0.98288  1.0000
  H   H935      1.0  0.79045  0.46684  0.51837  1.0000
  H   H936      1.0  0.93069  0.19552  0.91986  1.0000
  S   S156      1.0  0.73968  0.42732  0.52444  1.0000
  H   H937      1.0  0.96543  0.02463  0.89471  1.0000
  C   C1167     1.0  0.90752  0.47828  0.52789  1.0000
  C   C1168     1.0  0.90983  0.12921  0.83247  1.0000
  C   C1169     1.0  0.99226  0.14918  0.93523  1.0000
  H   H938      1.0  0.74315  0.29360  0.55269  1.0000
  C   C1170     1.0  0.85654  0.14988  0.93177  1.0000
  C   C1171     1.0  0.79059  0.49559  0.60389  1.0000
  C   C1172     1.0  0.76296  0.07531  0.64166  1.0000
  Fe  Fe77      1.0  0.69593  0.40093  0.52076  1.0000
  C   C1173     1.0  0.94458  0.09630  0.91449  1.0000
  H   H939      1.0  0.88940  0.13224  0.84736  1.0000
  H   H940      1.0  0.68162  0.08077  0.53369  1.0000
  H   H941      1.0  0.83838  0.19105  0.95248  1.0000
  H   H942      1.0  0.88603  0.21976  0.94466  1.0000
  H   H943      1.0  0.87439  0.00291  0.66776  1.0000
  H   H944      1.0  0.96269  0.07472  0.86836  1.0000
  Fe  Fe78      1.0  0.79431  0.08764  0.52483  1.0000
  C   C1174     1.0  0.95545  0.07191  0.89507  1.0000
  C   C1175     1.0  0.99389  0.49135  0.87370  1.0000
  C   C1176     1.0  0.68266  0.05006  0.71204  1.0000
  C   C1177     1.0  0.80710  0.32351  0.87583  1.0000
  C   C1178     1.0  0.80368  0.34959  0.89558  1.0000
  C   C1179     1.0  0.82206  0.37457  0.88903  1.0000
  C   C1180     1.0  0.84393  0.37347  0.86282  1.0000
  C   C1181     1.0  0.84743  0.34744  0.84268  1.0000
  C   C1182     1.0  0.82895  0.32235  0.84955  1.0000
  P   P39       1.0  0.87815  0.34511  0.81179  1.0000
  C   C1183     1.0  0.88404  0.38130  0.79116  1.0000
  C   C1184     1.0  0.91175  0.33217  0.83392  1.0000
  C   C1185     1.0  0.93629  0.32116  0.81473  1.0000
  C   C1186     1.0  0.93638  0.09173  0.94943  1.0000
  C   C1187     1.0  0.96214  0.30784  0.86815  1.0000
  C   C1188     1.0  0.93781  0.31868  0.88741  1.0000
  C   C1189     1.0  0.91287  0.33109  0.87040  1.0000
  C   C1190     1.0  0.91304  0.39074  0.78105  1.0000
  C   C1191     1.0  0.91706  0.41797  0.76340  1.0000
  C   C1192     1.0  0.89234  0.43624  0.75606  1.0000
  C   C1193     1.0  0.86341  0.42717  0.76622  1.0000
  C   C1194     1.0  0.85921  0.39977  0.78356  1.0000
  C   C1195     1.0  0.86869  0.31788  0.77856  1.0000
  C   C1196     1.0  0.85626  0.32696  0.74660  1.0000
  C   C1197     1.0  0.84930  0.30567  0.72103  1.0000
  C   C1198     1.0  0.85462  0.27519  0.72715  1.0000
  C   C1199     1.0  0.86681  0.26594  0.75894  1.0000
  C   C1200     1.0  0.87379  0.28716  0.78456  1.0000
  H   H945      1.0  0.79330  0.30395  0.88167  1.0000
  H   H946      1.0  0.78740  0.35011  0.91668  1.0000
  H   H947      1.0  0.82016  0.39445  0.90512  1.0000
  H   H948      1.0  0.85873  0.39267  0.85909  1.0000
  H   H949      1.0  0.83168  0.30165  0.83528  1.0000
  H   H950      1.0  0.93588  0.32165  0.78654  1.0000
  C   C1201     1.0  0.77327  0.00791  0.51524  1.0000
  H   H951      1.0  0.81294  0.48583  0.60470  1.0000
  H   H952      1.0  0.93819  0.31752  0.91562  1.0000
  H   H953      1.0  0.89463  0.33994  0.88586  1.0000
  H   H954      1.0  0.93278  0.37751  0.78700  1.0000
  C   C1202     1.0  0.96423  0.12527  0.82828  1.0000
  H   H955      1.0  0.76898  0.45463  0.58691  1.0000
  H   H956      1.0  0.88544  0.12370  0.78426  1.0000
  H   H957      1.0  0.68933  0.24142  0.56832  1.0000
  C   C1203     1.0  0.66867  0.05615  0.74393  1.0000
  C   C1204     1.0  0.73256  0.06666  0.64250  1.0000
  C   C1205     1.0  0.74715  0.02525  0.51734  1.0000
  H   H958      1.0  0.91559  0.47700  0.55452  1.0000
  P   P40       1.0  0.67589  0.18800  0.61024  1.0000
  H   H959      1.0  0.98679  0.13039  0.95200  1.0000
  C   C1206     1.0  0.67196  0.24721  0.58692  1.0000
  H   H960      1.0  0.70599  0.05011  0.57861  1.0000
  C   C1207     1.0  0.76585  0.47798  0.59404  1.0000
  C   C1208     1.0  0.96816  0.48940  0.89455  1.0000
  C   C1209     1.0  0.70732  0.25851  0.99086  1.0000
  S   S157      1.0  0.92618  0.26784  0.97093  1.0000
  H   H961      1.0  0.79539  0.00655  0.64981  1.0000
  H   H962      1.0  0.90048  0.49678  0.98382  1.0000
  C   C1210     1.0  0.69579  0.15386  0.49936  1.0000
  C   C1211     1.0  0.72545  0.26322  0.51419  1.0000
  H   H963      1.0  0.98191  0.11631  0.77719  1.0000
  H   H964      1.0  0.93873  0.42210  0.97145  1.0000
  H   H965      1.0  0.96853  0.07729  0.55053  1.0000
  H   H966      1.0  0.94990  0.01666  0.95612  1.0000
  H   H967      1.0  0.98041  0.30103  0.81683  1.0000
  H   H968      1.0  0.96977  0.22076  0.96468  1.0000
  S   S158      1.0  0.78044  0.31514  0.98478  1.0000
  C   C1212     1.0  0.77780  0.02332  0.64792  1.0000
  C   C1213     1.0  0.93575  0.00765  0.55088  1.0000
  C   C1214     1.0  0.71883  0.01141  0.51356  1.0000
  C   C1215     1.0  0.72657  0.28335  0.98418  1.0000
  H   H969      1.0  0.89425  0.03252  0.54823  1.0000
  C   C1216     1.0  0.67356  0.17557  0.50457  1.0000
  C   C1217     1.0  0.96982  0.08165  0.52279  1.0000
  Fe  Fe79      1.0  0.89763  0.30726  0.98765  1.0000
  C   C1218     1.0  0.73712  0.49066  0.59232  1.0000
  C   C1219     1.0  0.66864  0.07346  0.55610  1.0000
  H   H970      1.0  0.66948  0.29305  0.56899  1.0000
  C   C1220     1.0  0.85075  0.97932  0.47482  1.0000
  H   H971      1.0  0.80330  0.78522  0.41814  1.0000
  C   C1221     1.0  0.81521  0.73313  0.10667  1.0000
  H   H972      1.0  0.93880  0.82064  0.23781  1.0000
  H   H973      1.0  0.85392  0.99202  0.49861  1.0000
  C   C1222     1.0  0.76155  0.93479  0.40758  1.0000
  C   C1223     1.0  0.74763  0.52592  0.49218  1.0000
  Fe  Fe80      1.0  0.88823  0.85500  0.06767  1.0000
  S   S159      1.0  0.89391  0.89351  0.10615  1.0000
  S   S160      1.0  0.78941  0.79740  0.05523  1.0000
  S   S161      1.0  0.87346  0.80817  0.08132  1.0000
  H   H974      1.0  0.91125  0.56249  0.06779  1.0000
  P   P41       1.0  0.82318  0.65463  0.05209  1.0000
  H   H975      1.0  0.94904  0.89990  0.05616  1.0000
  S   S162      1.0  0.68495  0.86832  0.45598  1.0000
  Fe  Fe81      1.0  0.85018  0.60807  0.44174  1.0000
  C   C1224     1.0  0.86714  0.62231  0.08855  1.0000
  S   S163      1.0  0.88182  0.60802  0.39491  1.0000
  C   C1225     1.0  0.85842  0.60670  0.02900  1.0000
  C   C1226     1.0  0.86449  0.93803  0.43728  1.0000
  H   H976      1.0  0.75235  0.50603  0.42670  1.0000
  H   H977      1.0  0.75491  0.85538  0.49853  1.0000
  S   S164      1.0  0.80226  0.62491  0.44144  1.0000
  H   H978      1.0  0.71169  0.64793  0.05632  1.0000
  C   C1227     1.0  0.85200  0.62620  0.05671  1.0000
  C   C1228     1.0  0.99158  0.54497  0.04228  1.0000
  C   C1229     1.0  0.89485  0.58031  0.06464  1.0000
  C   C1230     1.0  0.98263  0.77549  0.01887  1.0000
  H   H979      1.0  0.98241  0.96663  0.15105  1.0000
  C   C1231     1.0  0.74405  0.71431  0.48096  1.0000
  C   C1232     1.0  0.93945  0.86494  0.25941  1.0000
  S   S165      1.0  0.86331  0.64016  0.48416  1.0000
  C   C1233     1.0  0.96281  0.53818  0.39502  1.0000
  C   C1234     1.0  0.95992  0.94560  0.06987  1.0000
  C   C1235     1.0  0.98002  0.57236  0.03008  1.0000
  C   C1236     1.0  0.82430  0.97199  0.41995  1.0000
  H   H980      1.0  0.83920  0.93379  0.38981  1.0000
  C   C1237     1.0  0.99181  0.87711  0.33713  1.0000
  C   C1238     1.0  0.98330  0.56054  0.10179  1.0000
  H   H981      1.0  0.86222  0.81932  0.29059  1.0000
  C   C1239     1.0  0.87969  0.58382  0.03302  1.0000
  C   C1240     1.0  0.91285  0.52968  0.32566  1.0000
  C   C1241     1.0  0.92435  0.55871  0.32098  1.0000
  C   C1242     1.0  0.91440  0.58233  0.34236  1.0000
  C   C1243     1.0  0.89316  0.57719  0.36892  1.0000
  C   C1244     1.0  0.88190  0.54804  0.37398  1.0000
  C   C1245     1.0  0.89160  0.52443  0.35224  1.0000
  H   H982      1.0  0.94060  0.56308  0.30056  1.0000
  H   H983      1.0  0.92322  0.60477  0.33826  1.0000
  H   H984      1.0  0.86558  0.54380  0.39436  1.0000
  S   S166      1.0  0.95694  0.99643  0.25621  1.0000
  C   C1246     1.0  0.96393  0.91011  0.19245  1.0000
  C   C1247     1.0  0.96579  0.88405  0.17190  1.0000
  C   C1248     1.0  0.94463  0.87851  0.14519  1.0000
  C   C1249     1.0  0.92138  0.89901  0.13901  1.0000
  C   C1250     1.0  0.91954  0.92496  0.15964  1.0000
  C   C1251     1.0  0.94065  0.93050  0.18623  1.0000
  H   H985      1.0  0.78190  0.92508  0.41817  1.0000
  H   H986      1.0  0.94635  0.85853  0.12937  1.0000
  H   H987      1.0  0.90164  0.94091  0.15499  1.0000
  H   H988      1.0  0.93891  0.95062  0.20180  1.0000
  H   H989      1.0  0.81622  0.73198  0.42556  1.0000
  C   C1252     1.0  0.69940  0.84273  0.36432  1.0000
  C   C1253     1.0  0.93605  0.58052  0.47118  1.0000
  H   H990      1.0  0.98195  0.99443  0.48174  1.0000
  H   H991      1.0  0.96728  0.85515  0.37843  1.0000
  C   C1254     1.0  0.72917  0.72011  0.01279  1.0000
  H   H992      1.0  0.78763  0.96122  0.26225  1.0000
  C   C1255     1.0  0.70762  0.95932  0.38274  1.0000
  H   H993      1.0  0.79709  0.74813  0.11400  1.0000
  H   H994      1.0  0.80754  0.60684  0.10281  1.0000
  H   H995      1.0  0.73479  0.82504  0.45031  1.0000
  C   C1256     1.0  0.75927  0.60442  0.10400  1.0000
  H   H996      1.0  0.91880  0.59280  0.45709  1.0000
  C   C1257     1.0  0.94631  0.92337  0.04939  1.0000
  C   C1258     1.0  0.80856  0.70674  0.08852  1.0000
  H   H997      1.0  0.83172  0.71454  0.26317  1.0000
  C   C1259     1.0  0.91304  0.79963  0.15843  1.0000
  C   C1260     1.0  0.93357  0.78369  0.13800  1.0000
  C   C1261     1.0  0.95560  0.97612  0.06209  1.0000
  S   S167      1.0  0.80544  0.70459  0.49383  1.0000
  H   H998      1.0  0.88054  0.68325  0.07333  1.0000
  Fe  Fe82      1.0  0.96198  0.99734  0.31450  1.0000
  C   C1262     1.0  0.79899  0.85126  0.41147  1.0000
  C   C1263     1.0  0.98609  0.85369  0.36049  1.0000
  H   H999      1.0  0.97728  0.89659  0.33680  1.0000
  H   H1000     1.0  0.84010  0.78706  0.33609  1.0000
  H   H1001     1.0  0.78521  0.70181  0.08234  1.0000
  S   S168      1.0  0.75037  0.56340  0.47803  1.0000
  H   H1002     1.0  0.69672  0.72288  0.47170  1.0000
  H   H1003     1.0  0.93957  0.79186  0.11226  1.0000
  H   H1004     1.0  0.72917  0.77735  0.07183  1.0000
  H   H1005     1.0  0.87732  0.98058  0.29922  1.0000
  H   H1006     1.0  0.96354  0.86467  0.26440  1.0000
  C   C1264     1.0  0.85336  0.97751  0.30411  1.0000
  C   C1265     1.0  0.76026  0.65047  0.05454  1.0000
  H   H1007     1.0  0.95401  0.56083  0.39593  1.0000
  C   C1266     1.0  0.94581  0.75685  0.15026  1.0000
  H   H1008     1.0  0.90401  0.82049  0.14845  1.0000
  C   C1267     1.0  0.97295  0.58834  0.09000  1.0000
  C   C1268     1.0  0.73752  0.76269  0.05163  1.0000
  S   S169      1.0  0.92412  0.99555  0.35434  1.0000
  C   C1269     1.0  0.73216  0.61588  0.09104  1.0000
  H   H1009     1.0  0.86203  0.63654  0.11060  1.0000
  C   C1270     1.0  0.84206  0.98169  0.33770  1.0000
  C   C1271     1.0  0.99755  0.98747  0.40603  1.0000
  H   H1010     1.0  0.88272  0.50202  0.35605  1.0000
  C   C1272     1.0  0.69754  0.79823  0.40068  1.0000
  C   C1273     1.0  0.75571  0.83731  0.44657  1.0000
  C   C1274     1.0  0.83441  0.74886  0.30247  1.0000
  C   C1275     1.0  0.81063  0.86791  0.43932  1.0000
  C   C1276     1.0  0.92280  0.89064  0.26718  1.0000
  C   C1277     1.0  0.98870  0.56892  0.48138  1.0000
  S   S170      1.0  0.92399  0.49964  0.29833  1.0000
  S   S171      1.0  0.93016  0.75071  0.04488  1.0000
  H   H1011     1.0  0.83204  0.87951  0.43681  1.0000
  H   H1012     1.0  0.96675  0.60540  0.10873  1.0000
  H   H1013     1.0  0.94781  0.72557  0.19305  1.0000
  H   H1014     1.0  0.90021  0.59666  0.11701  1.0000
  C   C1278     1.0  0.82982  0.85614  0.14208  1.0000
  C   C1279     1.0  0.80498  0.83769  0.13513  1.0000
  C   C1280     1.0  0.80088  0.81111  0.15390  1.0000
  C   C1281     1.0  0.82177  0.80278  0.17945  1.0000
  C   C1282     1.0  0.84702  0.82110  0.18651  1.0000
  C   C1283     1.0  0.85088  0.84784  0.16743  1.0000
  P   P42       1.0  0.87623  0.80874  0.21628  1.0000
  C   C1284     1.0  0.85990  0.78532  0.25015  1.0000
  C   C1285     1.0  0.90410  0.78857  0.19110  1.0000
  C   C1286     1.0  0.91753  0.76221  0.20392  1.0000
  H   H1015     1.0  0.82467  0.73477  0.32270  1.0000
  Fe  Fe83      1.0  0.81456  0.65410  0.48704  1.0000
  C   C1287     1.0  0.77164  0.72626  0.49230  1.0000
  H   H1016     1.0  0.93407  0.91017  0.27810  1.0000
  C   C1288     1.0  0.85579  0.79655  0.28401  1.0000
  C   C1289     1.0  0.85109  0.75558  0.24288  1.0000
  C   C1290     1.0  0.89442  0.84088  0.23614  1.0000
  C   C1291     1.0  0.87766  0.86657  0.24469  1.0000
  C   C1292     1.0  0.89189  0.89141  0.25998  1.0000
  C   C1293     1.0  0.92538  0.84015  0.24393  1.0000
  C   C1294     1.0  0.84515  0.74088  0.11384  1.0000
  H   H1017     1.0  0.68663  0.96883  0.37332  1.0000
  H   H1018     1.0  0.83331  0.87643  0.12690  1.0000
  H   H1019     1.0  0.78932  0.84359  0.11452  1.0000
  H   H1020     1.0  0.78185  0.79663  0.14777  1.0000
  H   H1021     1.0  0.81830  0.78173  0.19283  1.0000
  H   H1022     1.0  0.87062  0.86196  0.17119  1.0000
  H   H1023     1.0  0.91213  0.75377  0.22961  1.0000
  C   C1295     1.0  0.93811  0.74630  0.18341  1.0000
  C   C1296     1.0  0.86876  0.95437  0.46794  1.0000
  C   C1297     1.0  0.76681  0.76740  0.03826  1.0000
  C   C1298     1.0  0.84317  0.77834  0.31001  1.0000
  H   H1024     1.0  0.85409  0.74629  0.21706  1.0000
  H   H1025     1.0  0.85371  0.86752  0.23925  1.0000
  H   H1026     1.0  0.87911  0.91147  0.26582  1.0000
  H   H1027     1.0  0.97301  0.93878  0.09229  1.0000
  C   C1299     1.0  0.83838  0.73750  0.26892  1.0000
  H   H1028     1.0  0.76013  0.66845  0.03560  1.0000
  H   H1029     1.0  0.87865  0.91886  0.43182  1.0000
  C   C1300     1.0  0.71438  0.81865  0.38049  1.0000
  Fe  Fe84      1.0  0.96534  0.50342  0.26333  1.0000
  P   P43       1.0  0.75512  0.81571  0.37860  1.0000
  C   C1301     1.0  0.76590  0.77671  0.38284  1.0000
  C   C1302     1.0  0.76819  0.83086  0.33745  1.0000
  C   C1303     1.0  0.77417  0.81183  0.30917  1.0000
  C   C1304     1.0  0.78370  0.82380  0.27729  1.0000
  C   C1305     1.0  0.78733  0.85483  0.27333  1.0000
  C   C1306     1.0  0.78134  0.87396  0.30127  1.0000
  C   C1307     1.0  0.77167  0.86208  0.33314  1.0000
  C   C1308     1.0  0.79040  0.76852  0.40401  1.0000
  C   C1309     1.0  0.79791  0.73827  0.40828  1.0000
  C   C1310     1.0  0.78097  0.71593  0.39175  1.0000
  C   C1311     1.0  0.75672  0.72385  0.37039  1.0000
  C   C1312     1.0  0.74922  0.75412  0.36587  1.0000
  C   C1313     1.0  0.77095  0.83654  0.41461  1.0000
  C   C1314     1.0  0.73454  0.97584  0.38049  1.0000
  H   H1030     1.0  0.92807  0.52066  0.42797  1.0000
  H   H1031     1.0  0.84256  0.96712  0.25083  1.0000
  Fe  Fe85      1.0  0.83751  0.81241  0.04031  1.0000
  Fe  Fe86      1.0  0.99157  0.95982  0.25689  1.0000
  H   H1032     1.0  0.71168  0.85945  0.34958  1.0000
  H   H1033     1.0  0.70853  0.78033  0.41495  1.0000
  H   H1034     1.0  0.77134  0.78776  0.31146  1.0000
  H   H1035     1.0  0.78806  0.80897  0.25553  1.0000
  H   H1036     1.0  0.79436  0.86404  0.24847  1.0000
  H   H1037     1.0  0.78379  0.89806  0.29815  1.0000
  H   H1038     1.0  0.76653  0.87730  0.35430  1.0000
  S   S172      1.0  0.92186  0.84062  0.02706  1.0000
  S   S173      1.0  0.84161  0.56976  0.47866  1.0000
  H   H1039     1.0  0.78630  0.69246  0.39622  1.0000
  H   H1040     1.0  0.74330  0.70644  0.35805  1.0000
  H   H1041     1.0  0.72998  0.75985  0.34979  1.0000
  C   C1315     1.0  0.71880  0.73925  0.03901  1.0000
  C   C1316     1.0  0.78764  0.63904  0.06719  1.0000
  H   H1042     1.0  0.89185  0.72952  0.10598  1.0000
  H   H1043     1.0  0.85021  0.76156  0.12748  1.0000
  H   H1044     1.0  0.69641  0.73594  0.04963  1.0000
  C   C1317     1.0  0.83189  0.68769  0.07757  1.0000
  C   C1318     1.0  0.79455  0.86971  0.47051  1.0000
  S   S174      1.0  0.99086  0.91631  0.22582  1.0000
  S   S175      1.0  0.96573  0.51329  0.20563  1.0000
  C   C1319     1.0  0.88863  0.59958  0.09237  1.0000
  S   S176      1.0  0.85003  0.86080  0.02961  1.0000
  H   H1045     1.0  0.71067  0.60705  0.10014  1.0000
  H   H1046     1.0  0.88606  0.94783  0.48635  1.0000
  C   C1320     1.0  0.73469  0.91827  0.40948  1.0000
  C   C1321     1.0  0.92299  0.96168  0.01384  1.0000
  H   H1047     1.0  0.96823  0.94045  0.49682  1.0000
  H   H1048     1.0  0.80302  0.88319  0.49192  1.0000
  C   C1322     1.0  0.73270  0.63891  0.06636  1.0000
  H   H1049     1.0  0.80386  0.51875  0.40661  1.0000
  C   C1323     1.0  0.81110  0.97831  0.34459  1.0000
  C   C1324     1.0  0.98366  0.72227  0.03168  1.0000
  Fe  Fe87      1.0  0.90400  0.79393  0.03774  1.0000
  H   H1050     1.0  0.97242  0.70213  0.04093  1.0000
  C   C1325     1.0  0.77723  0.74815  0.01220  1.0000
  Fe  Fe88      1.0  0.79460  0.58884  0.48186  1.0000
  C   C1326     1.0  0.76731  0.85411  0.47424  1.0000
  C   C1327     1.0  0.98785  0.53186  0.37431  1.0000
  C   C1328     1.0  0.97130  0.59431  0.05429  1.0000
  H   H1051     1.0  0.81191  0.84981  0.38766  1.0000
  H   H1052     1.0  0.84718  0.50279  0.48123  1.0000
  H   H1053     1.0  0.75879  0.58663  0.12328  1.0000
  C   C1329     1.0  0.78693  0.61596  0.09221  1.0000
  C   C1330     1.0  0.96795  0.74958  0.03075  1.0000
  H   H1054     1.0  0.97278  0.60013  0.44242  1.0000
  H   H1055     1.0  0.96110  0.74423  0.13385  1.0000
  H   H1056     1.0  0.68680  0.91776  0.39923  1.0000
  C   C1331     1.0  0.79155  0.97080  0.31707  1.0000
  H   H1057     1.0  0.98813  0.80235  0.20688  1.0000
  C   C1332     1.0  0.93681  0.98399  0.03405  1.0000
  C   C1333     1.0  0.86858  0.72268  0.10196  1.0000
  C   C1334     1.0  0.86203  0.69634  0.08355  1.0000
  H   H1058     1.0  0.98374  0.86818  0.17659  1.0000
  C   C1335     1.0  0.71936  0.51149  0.49151  1.0000
  C   C1336     1.0  0.99307  0.53903  0.07799  1.0000
  H   H1059     1.0  0.73479  0.89629  0.42152  1.0000
  Fe  Fe89      1.0  0.67488  0.83452  0.49783  1.0000
  H   H1060     1.0  0.85755  0.98792  0.35821  1.0000
  H   H1061     1.0  0.74290  0.69119  0.47247  1.0000
  C   C1337     1.0  0.84219  0.94663  0.41348  1.0000
  C   C1338     1.0  0.94798  0.51513  0.41304  1.0000
  C   C1339     1.0  0.83379  0.96996  0.27694  1.0000
  S   S177      1.0  0.74081  0.92403  0.49868  1.0000
  H   H1062     1.0  0.96348  0.61612  0.04595  1.0000
  C   C1340     1.0  0.80289  0.96662  0.28342  1.0000
  C   C1341     1.0  0.71793  0.73243  0.48036  1.0000
  C   C1342     1.0  0.70770  0.93049  0.39719  1.0000
  H   H1063     1.0  0.97959  0.98016  0.38884  1.0000
  C   C1343     1.0  0.76175  0.96364  0.39286  1.0000
  C   C1344     1.0  0.96652  0.58465  0.46301  1.0000
  C   C1345     1.0  0.92775  0.93136  0.02150  1.0000
  S   S178      1.0  0.68504  0.78425  0.49019  1.0000
  C   C1346     1.0  0.71898  0.76274  0.49091  1.0000
  H   H1064     1.0  0.99205  0.90088  0.46160  1.0000
  H   H1065     1.0  0.90524  0.99155  0.09655  1.0000
  S   S179      1.0  0.99325  0.95772  0.31532  1.0000
  P   P44       1.0  0.79679  0.98428  0.38820  1.0000
  H   H1066     1.0  0.99924  0.52816  0.02409  1.0000
  C   C1347     1.0  0.99847  0.50246  0.37198  1.0000
  H   H1067     1.0  0.76752  0.96846  0.32126  1.0000
  H   H1068     1.0  0.97080  0.79662  0.01835  1.0000
  C   C1348     1.0  0.82870  0.98817  0.45092  1.0000
  H   H1069     1.0  0.69955  0.52386  0.48355  1.0000
  H   H1070     1.0  0.98466  0.55601  0.12951  1.0000
  H   H1071     1.0  0.94155  0.52647  0.00982  1.0000
  H   H1072     1.0  0.99846  0.54963  0.35928  1.0000
  H   H1073     1.0  0.00010  0.81012  0.37871  1.0000
  H   H1074     1.0  0.73413  0.99804  0.36889  1.0000
  C   C1349     1.0  0.82037  0.66571  0.00694  1.0000
  H   H1075     1.0  0.85050  0.70416  0.01173  1.0000
  H   H1076     1.0  0.91649  0.91407  0.00628  1.0000
  H   H1077     1.0  0.84675  0.60877  0.00438  1.0000
  H   H1078     1.0  0.88422  0.56869  0.01162  1.0000
  C   C1350     1.0  0.92780  0.56091  0.49795  1.0000
  H   H1079     1.0  0.79963  0.75138  0.00162  1.0000
  C   C1351     1.0  0.75851  0.72477  0.99958  1.0000
  C   C1352     1.0  0.96934  0.61805  0.97477  1.0000
  C   C1353     1.0  0.80961  0.59994  0.63140  1.0000
  C   C1354     1.0  0.73009  0.59311  0.56198  1.0000
  H   H1080     1.0  0.99081  0.97697  0.92080  1.0000
  H   H1081     1.0  0.97367  0.82206  0.95970  1.0000
  S   S180      1.0  0.88450  0.86517  0.93571  1.0000
  C   C1355     1.0  0.97667  0.86085  0.81198  1.0000
  C   C1356     1.0  0.83688  0.60673  0.64799  1.0000
  C   C1357     1.0  0.69947  0.59927  0.65983  1.0000
  C   C1358     1.0  0.78652  0.52571  0.61289  1.0000
  H   H1082     1.0  0.81328  0.69027  0.91004  1.0000
  H   H1083     1.0  0.74611  0.67809  0.57629  1.0000
  H   H1084     1.0  0.94271  0.53162  0.53830  1.0000
  Fe  Fe90      1.0  0.99559  0.53489  0.77464  1.0000
  C   C1359     1.0  0.68293  0.98575  0.63344  1.0000
  C   C1360     1.0  0.81578  0.59027  0.70291  1.0000
  S   S181      1.0  0.80426  0.61901  0.52767  1.0000
  H   H1085     1.0  0.97476  0.95079  0.97447  1.0000
  Fe  Fe91      1.0  0.85204  0.60284  0.52147  1.0000
  S   S182      1.0  0.88825  0.59801  0.56330  1.0000
  C   C1361     1.0  0.68789  0.54697  0.69812  1.0000
  C   C1362     1.0  0.67428  0.93338  0.64891  1.0000
  C   C1363     1.0  0.83404  0.69949  0.95964  1.0000
  C   C1364     1.0  0.68089  0.92475  0.61486  1.0000
  C   C1365     1.0  0.99028  0.96518  0.62616  1.0000
  H   H1086     1.0  0.84593  0.71928  0.95046  1.0000
  H   H1087     1.0  0.71267  0.60659  0.51196  1.0000
  H   H1088     1.0  0.77010  0.57406  0.70162  1.0000
  H   H1089     1.0  0.97074  0.85274  0.75724  1.0000
  C   C1366     1.0  0.94993  0.76844  0.93018  1.0000
  C   C1367     1.0  0.90437  0.53147  0.65310  1.0000
  C   C1368     1.0  0.87853  0.52835  0.63199  1.0000
  C   C1369     1.0  0.87346  0.54803  0.60375  1.0000
  C   C1370     1.0  0.89408  0.57117  0.59670  1.0000
  C   C1371     1.0  0.92002  0.57400  0.61752  1.0000
  C   C1372     1.0  0.92519  0.55426  0.64550  1.0000
  H   H1090     1.0  0.78500  0.64568  0.93149  1.0000
  H   H1091     1.0  0.85345  0.54571  0.58785  1.0000
  H   H1092     1.0  0.93606  0.59186  0.61225  1.0000
  H   H1093     1.0  0.94511  0.55695  0.66148  1.0000
  C   C1373     1.0  0.91430  0.88637  0.91650  1.0000
  C   C1374     1.0  0.90990  0.89941  0.88350  1.0000
  C   C1375     1.0  0.93318  0.91580  0.86690  1.0000
  C   C1376     1.0  0.96133  0.91897  0.88300  1.0000
  C   C1377     1.0  0.96570  0.90601  0.91604  1.0000
  C   C1378     1.0  0.94228  0.89004  0.93286  1.0000
  H   H1094     1.0  0.88832  0.89673  0.87062  1.0000
  H   H1095     1.0  0.92948  0.92546  0.84141  1.0000
  S   S183      1.0  0.92606  0.99508  0.71214  1.0000
  H   H1096     1.0  0.94595  0.88015  0.95819  1.0000
  S   S184      1.0  0.95448  0.50503  0.77806  1.0000
  C   C1379     1.0  0.99396  0.83383  0.95174  1.0000
  H   H1097     1.0  0.91753  0.74363  0.96096  1.0000
  C   C1380     1.0  0.75755  0.53853  0.61204  1.0000
  H   H1098     1.0  0.91317  0.66978  0.98350  1.0000
  C   C1381     1.0  0.84006  0.60171  0.68368  1.0000
  C   C1382     1.0  0.78511  0.58831  0.65048  1.0000
  C   C1383     1.0  0.74861  0.63355  0.59851  1.0000
  C   C1384     1.0  0.74316  0.60269  0.59338  1.0000
  S   S185      1.0  0.70728  0.68929  0.99647  1.0000
  H   H1099     1.0  0.72255  0.66081  0.52145  1.0000
  H   H1100     1.0  0.95399  0.70329  0.96174  1.0000
  H   H1101     1.0  0.91422  0.92160  0.62190  1.0000
  H   H1102     1.0  0.88160  0.50886  0.92482  1.0000
  H   H1103     1.0  0.86588  0.50000  0.54198  1.0000
  C   C1385     1.0  0.93365  0.53249  0.98418  1.0000
  C   C1386     1.0  0.98286  0.81232  0.78475  1.0000
  H   H1104     1.0  0.78947  0.62981  0.99271  1.0000
  C   C1387     1.0  0.99119  0.93393  0.50260  1.0000
  H   H1105     1.0  0.97955  0.73942  0.86446  1.0000
  S   S186      1.0  0.99248  0.93679  0.86214  1.0000
  Fe  Fe92      1.0  0.95407  0.50568  0.71947  1.0000
  H   H1106     1.0  0.93789  0.93256  0.67903  1.0000
  H   H1107     1.0  0.99562  0.85987  0.99885  1.0000
  C   C1388     1.0  0.94989  0.54568  0.51689  1.0000
  H   H1108     1.0  0.74782  0.79780  0.51057  1.0000
  C   C1389     1.0  0.93528  0.56360  0.93237  1.0000
  H   H1109     1.0  0.90383  0.55163  0.89181  1.0000
  C   C1390     1.0  0.71370  0.54893  0.67722  1.0000
  H   H1110     1.0  0.97165  0.88466  0.81017  1.0000
  C   C1391     1.0  0.95408  0.79008  0.90391  1.0000
  C   C1392     1.0  0.96032  0.99600  0.53217  1.0000
  H   H1111     1.0  0.98323  0.89744  0.70216  1.0000
  C   C1393     1.0  0.68987  0.97679  0.59935  1.0000
  C   C1394     1.0  0.68901  0.94640  0.59018  1.0000
  H   H1112     1.0  0.79505  0.52077  0.50240  1.0000
  C   C1395     1.0  0.94069  0.62991  0.98199  1.0000
  P   P45       1.0  0.99091  0.97782  0.55486  1.0000
  H   H1113     1.0  0.70335  0.61970  0.64519  1.0000
  H   H1114     1.0  0.69626  0.99319  0.57990  1.0000
  P   P46       1.0  0.97702  0.57890  0.98370  1.0000
  C   C1396     1.0  0.98059  0.54938  0.50866  1.0000
  C   C1397     1.0  0.72231  0.61412  0.53639  1.0000
  P   P47       1.0  0.99175  0.80030  0.89014  1.0000
  P   P48       1.0  0.75133  0.57628  0.62793  1.0000
  C   C1398     1.0  0.98269  0.84799  0.84441  1.0000
  H   H1115     1.0  0.98661  0.95998  0.68163  1.0000
  C   C1399     1.0  0.91191  0.54650  0.91779  1.0000
  C   C1400     1.0  0.99194  0.63713  0.96149  1.0000
  H   H1116     1.0  0.90810  0.96776  0.99257  1.0000
  C   C1401     1.0  0.89937  0.52245  0.93636  1.0000
  C   C1402     1.0  0.74118  0.65439  0.57265  1.0000
  H   H1117     1.0  0.69452  0.93955  0.56390  1.0000
  C   C1403     1.0  0.99725  0.96031  0.97285  1.0000
  H   H1118     1.0  0.99344  0.54943  0.91700  1.0000
  C   C1404     1.0  0.99264  0.50138  0.56096  1.0000
  C   C1405     1.0  0.72792  0.64468  0.54166  1.0000
  C   C1406     1.0  0.97640  0.84294  0.78220  1.0000
  H   H1119     1.0  0.94496  0.58196  0.91741  1.0000
  Fe  Fe93      1.0  0.88286  0.84357  0.98970  1.0000
  C   C1407     1.0  0.81565  0.68315  0.93688  1.0000
  H   H1120     1.0  0.86151  0.60627  0.69625  1.0000
  H   H1121     1.0  0.81844  0.58610  0.73052  1.0000
  C   C1408     1.0  0.97649  0.95495  0.65666  1.0000
  C   C1409     1.0  0.67576  0.96368  0.65838  1.0000
  C   C1410     1.0  0.78836  0.58355  0.68642  1.0000
  C   C1411     1.0  0.94652  0.55663  0.96560  1.0000
  H   H1122     1.0  0.67127  0.96956  0.68513  1.0000
  C   C1412     1.0  0.95798  0.67946  0.96471  1.0000
  H   H1123     1.0  0.74194  0.99092  0.65129  1.0000
  H   H1124     1.0  0.99320  0.77557  0.81862  1.0000
  C   C1413     1.0  0.97743  0.50957  0.59155  1.0000
  C   C1414     1.0  0.92078  0.75960  0.93996  1.0000
  C   C1415     1.0  0.89570  0.77206  0.92332  1.0000
  C   C1416     1.0  0.89965  0.79434  0.89815  1.0000
  C   C1417     1.0  0.92868  0.80350  0.88859  1.0000
  H   H1125     1.0  0.93803  0.94005  0.56770  1.0000
  H   H1126     1.0  0.80806  0.60291  0.60348  1.0000
  C   C1418     1.0  0.80218  0.64921  0.98379  1.0000
  H   H1127     1.0  0.99254  0.50152  0.84807  1.0000
  S   S187      1.0  0.99162  0.95041  0.75698  1.0000
  H   H1128     1.0  0.72627  0.56952  0.55672  1.0000
  H   H1129     1.0  0.71048  0.53009  0.60003  1.0000
  C   C1419     1.0  0.93509  0.66056  0.97715  1.0000
  C   C1420     1.0  0.97611  0.96072  0.59390  1.0000
  S   S188      1.0  0.68848  0.86527  0.54156  1.0000
  C   C1421     1.0  0.91009  0.51562  0.96962  1.0000
  C   C1422     1.0  0.79976  0.65800  0.94895  1.0000
  H   H1130     1.0  0.85583  0.61520  0.63290  1.0000
  C   C1423     1.0  0.98630  0.66774  0.95669  1.0000
  C   C1424     1.0  0.99966  0.86679  0.66332  1.0000
  H   H1131     1.0  0.87309  0.76536  0.93079  1.0000
  H   H1132     1.0  0.88014  0.80525  0.88676  1.0000
  H   H1133     1.0  0.93091  0.82128  0.86954  1.0000
  H   H1134     1.0  0.96919  0.75869  0.94337  1.0000
  C   C1425     1.0  0.94915  0.94401  0.59238  1.0000
  H   H1135     1.0  0.69464  0.96986  0.50498  1.0000
  H   H1136     1.0  0.72893  0.52997  0.67619  1.0000
  H   H1137     1.0  0.98751  0.90795  0.92842  1.0000
  H   H1138     1.0  0.92291  0.61558  0.99203  1.0000
  H   H1139     1.0  0.80602  0.53856  0.62107  1.0000
  C   C1426     1.0  0.73296  0.52082  0.60113  1.0000
  H   H1140     1.0  0.75871  0.64157  0.62245  1.0000
  C   C1427     1.0  0.67374  0.59725  0.68086  1.0000
  H   H1141     1.0  0.76675  0.71020  0.97930  1.0000
  C   C1428     1.0  0.71949  0.57496  0.65747  1.0000
  Fe  Fe94      1.0  0.96807  0.99472  0.74668  1.0000
  H   H1142     1.0  0.67938  0.90127  0.60758  1.0000
  C   C1429     1.0  0.94906  0.93937  0.65515  1.0000
  C   C1430     1.0  0.98866  0.81712  0.84741  1.0000
  H   H1143     1.0  0.97450  0.53303  0.59825  1.0000
  S   S189      1.0  0.99235  0.53882  0.71616  1.0000
  C   C1431     1.0  0.93562  0.93348  0.62297  1.0000
  H   H1144     1.0  0.68334  0.52664  0.71286  1.0000
  C   C1432     1.0  0.98901  0.79941  0.81721  1.0000
  H   H1145     1.0  0.86232  0.51077  0.63770  1.0000
  Fe  Fe95      1.0  0.99346  0.96580  0.81286  1.0000
  C   C1433     1.0  0.83647  0.69083  0.99452  1.0000
  H   H1146     1.0  0.98271  0.87289  0.64426  1.0000
  H   H1147     1.0  0.98246  0.79846  0.76161  1.0000
  S   S190      1.0  0.90991  0.50665  0.68873  1.0000
  C   C1434     1.0  0.74665  0.77475  0.50186  1.0000
  H   H1148     1.0  0.98164  0.86201  0.86730  1.0000
  H   H1149     1.0  0.00112  0.61455  0.87107  1.0000
  C   C1435     1.0  0.71655  0.98037  0.50764  1.0000
  S   S191      1.0  0.86723  0.79550  0.99749  1.0000
  C   C1436     1.0  0.99999  0.88067  0.69589  1.0000
  C   C1437     1.0  0.77324  0.50979  0.50194  1.0000
  Fe  Fe96      1.0  0.69571  0.90004  0.49979  1.0000
  H   H1150     1.0  0.79396  0.76622  0.51111  1.0000
  C   C1438     1.0  0.74266  0.96300  0.50562  1.0000
  H   H1151     1.0  0.90423  0.55822  0.50485  1.0000
  S   S192      1.0  0.99534  0.57246  0.81500  1.0000
  H   H1152     1.0  0.79120  0.96334  0.50814  1.0000
  C   C1439     1.0  0.77277  0.75667  0.50237  1.0000
  C   C1440     1.0  0.77100  0.97683  0.50934  1.0000
