data_image0
_chemical_formula_structural       CH2FeS2FeS2FeSFeS3CSC2FeSFeSPCFeHSHS2C6H3C8H3C6H4C6H4C6H3C3HSC3HC2H3CH3SHC2HCHCH2CH2CHC2H2C2S2H5SCHCHCHCHPC3HC11H2CH2CH9C11PC18H21C3H2C4HFe2CHCHC2H3C9H4CH2C6PCH3CSC3H2C2SCH2PC3HFeSHFeSHFeSFeSHSHC2FeS2FeS2C5FeH2CHC6H4C3H2CHCH2CHCH2C4H3C3H7C2H2CHCH2CH2C2HC2H2C3PHC8HC2H2CH6SCSCH2C4HC2PCH2CHC5HC9HC3H2CH2C2PH5SCHC3HC2SH2C2HCHCHCHC2SCH3C3HCHC2H4CHCHFeSHSC6H4SCHCSH2PC6H3C11HC2FeH2CH4SH7CH3C2HC4HCHCHCFeC5HC5H2SHCH3CH2CFeCH3FeSPHCHC2HC3H4CHC3HC2H3CH2CH2CHC3PCH2CHC6HC3HC3HPCHC2HCH2C2H4CHFeS2FeS2FeSFeS3CSC4H2CFeHC8H7CHFeS2FeS2FeSFeS4HSC6H4C3H4C3H2CPCH4C4HCH3C7PC9HC10H9C2FeH3CH2CH3C2HCHC2HC2H4C3HC2H4C9PC8SC3H2CH7CH2C9H9C3HC3H2C2PC2HC2HCHC7HC3HC2H5CH3C2HCH2C2HCHCPC2H3C2H2CHPCH3C2HCHCHC3H2CH4C5H2CSHSHSCFeSFeSFeS2FeS2FeSFeS3HCSCSHC6H4CHCH3CH2SC6H4C6H3C6H2SH3C2HC3HC3H2C4HFeHC2H2C3H2C4HCH3CH2CHCH4C2H4CHCHC2PH4C2HC2H3C7PC18H13C2HC4HCHCFeCHSCPHFeHC4HC4HCH2C4HC2HC2H2SPC2HCHC2H2CH3C2FeS2FeCSFeHFeCS2C3FeS2FeSCH5CH3CHSHC4H6C6H4C5H2CH2PC3HCH4C4H5C5H2C5HC2HCH2CH2CHCH2C2HCHPH5CFeCH2C2PCH2CHC2HCHC7HCHCHC2HC2H2CHC6H3CH3SCHCSC2H2CSH3C4H2FeS2C2FeS2FeS2FeSFeS3FeSCSFeSFeS2HFeHSCSH2C4H5C4H6C6H4C6H4C6H3C2HC4PC6HC8H3C2H8C2H2CPC7H2C4H4CH4CHCH2CPC7H2SC6H3SH2C2HCH2FePC3H3CHC6HC3HC11HFeCH4CH2C2PHC2H5CSH2CH2CHCSC3HC2H4FeHC3HCH4C2H3C4HCHCFeCH2C2H2C2HCHCFeSHFeSCFeSFeS3C2SFeSHFeS2C6H4C6H4C3H2C5H5CHC7PC18H12CH9C8PC18HCH16C3HCHSC3H4CH3C4PC2HCH2C3H3C3HCHCFeCH5CHCH3SH3SCHC3H2SH2SH2CH3CHCHCHCSHC7H4SC4H2C7H4C6H2C2H2C6HCH5C4HPC2HCH3SC2HC2HCSH4C2HCHCH3C2H7CH3C3H2CPC2FeH2SHSCSHCH2CHC3H4C3H3CFeS2FeS2FeSFeS3CSHC3H2C2H2C7H4C3H2FeS2FeS2FeSFeS3HCSC6H5C3HCHC3H2CHCH2C3H2C2PC5FeC6H2CH14SHC2FeC4H3C7PCHC3H6C5H5CSH2CH2C2H7CHCH3CHCHC2HC2H3CH2C4HC4HC2HCHC2PCHC4H2PH2C3HCH2C3H2C2HC6HC3HCHCHCH2C2HCHPC2H2CHC2HC6H5C2H2SC2H2C2H2C2SFeSCFeSFeSFeS2FeS2FeSFeS3CS2FeSC7H4C4HCH4C6H4C6H3C6H2CHCH2C3SPC15H4CH9C2H2C2HCHC3HC2HCHCH2C4HC2HCH3C2PH2SCH4CHCH2C5HC4H3C3HC3H7CH3CSCHCHC3HFeSC2H4C2HC4SH3CSHCHFeC2HCHC2H3C5H2CPC2H4C3H2CHCPHC4HCHCHC3H5FeHC3HCHFeS2FeS2FeHFeCS2C3FeS2FeS2H3CHC3HCH2C7HCH2C6H7C2H2C5HC3HC2H3CH4CH4SCHC2H4C2H2C2PC7HCH2CH2CHC2HC2HC2HCPH5CHCHC2H2C5HCHC4H2C2H2C4H2CHC4FeCHCHSC4HCPCHPH2C2HC2HC2HC2HSCHCHC2HC3HC2H4CHC6H2CS
_chemical_formula_sum              "C1440 H1152 Fe96 S192 P48"
_cell_length_a       45.5425
_cell_length_b       50.4491
_cell_length_c       34.9186
_cell_angle_alpha    90.4977
_cell_angle_beta     90.1918
_cell_angle_gamma    89.9253

_space_group_name_H-M_alt    "P 1"
_space_group_IT_number       1

loop_
  _space_group_symop_operation_xyz
  'x, y, z'

loop_
  _atom_site_type_symbol
  _atom_site_label
  _atom_site_symmetry_multiplicity
  _atom_site_fract_x
  _atom_site_fract_y
  _atom_site_fract_z
  _atom_site_occupancy
  C   C1        1.0  0.48584  0.28899  0.16983  1.0000
  H   H1        1.0  0.22617  0.23943  0.37073  1.0000
  H   H2        1.0  0.02364  0.17372  0.41641  1.0000
  Fe  Fe1       1.0  0.37938  0.17181  0.19202  1.0000
  S   S1        1.0  0.39325  0.21483  0.19208  1.0000
  S   S2        1.0  0.38438  0.14497  0.13958  1.0000
  Fe  Fe2       1.0  0.35133  0.17639  0.27092  1.0000
  S   S3        1.0  0.36391  0.21889  0.27753  1.0000
  S   S4        1.0  0.32106  0.15701  0.31351  1.0000
  Fe  Fe3       1.0  0.34859  0.22358  0.21696  1.0000
  S   S5        1.0  0.32195  0.26118  0.20804  1.0000
  Fe  Fe4       1.0  0.40724  0.20676  0.25256  1.0000
  S   S6        1.0  0.44653  0.22643  0.28041  1.0000
  S   S7        1.0  0.33338  0.18161  0.21153  1.0000
  S   S8        1.0  0.39622  0.16323  0.25138  1.0000
  C   C2        1.0  0.07839  0.15914  0.33693  1.0000
  S   S9        1.0  0.13106  0.26155  0.24257  1.0000
  C   C3        1.0  0.48717  0.20314  0.23222  1.0000
  C   C4        1.0  0.41118  0.28635  0.26395  1.0000
  Fe  Fe5       1.0  0.08880  0.27455  0.21541  1.0000
  S   S10       1.0  0.05524  0.24337  0.19957  1.0000
  Fe  Fe6       1.0  0.15278  0.28390  0.19527  1.0000
  S   S11       1.0  0.18736  0.26232  0.16064  1.0000
  P   P1        1.0  0.02980  0.19325  0.33702  1.0000
  C   C5        1.0  0.00142  0.15735  0.28778  1.0000
  Fe  Fe7       1.0  0.20794  0.22039  0.49372  1.0000
  H   H3        1.0  0.99467  0.24161  0.35563  1.0000
  S   S12       1.0  0.17506  0.21207  0.44608  1.0000
  H   H4        1.0  0.08448  0.21498  0.50833  1.0000
  S   S13       1.0  0.31765  0.20514  0.48170  1.0000
  S   S14       1.0  0.24641  0.24773  0.48837  1.0000
  C   C6        1.0  0.14983  0.28034  0.36652  1.0000
  C   C7        1.0  0.14842  0.25407  0.35359  1.0000
  C   C8        1.0  0.15626  0.23325  0.37812  1.0000
  C   C9        1.0  0.16562  0.23856  0.41575  1.0000
  C   C10       1.0  0.16655  0.26477  0.42891  1.0000
  C   C11       1.0  0.15835  0.28556  0.40449  1.0000
  H   H5        1.0  0.14133  0.24978  0.32470  1.0000
  H   H6        1.0  0.15540  0.21304  0.36769  1.0000
  H   H7        1.0  0.17334  0.26894  0.45803  1.0000
  C   C12       1.0  0.43691  0.29586  0.24729  1.0000
  C   C13       1.0  0.48095  0.22365  0.25815  1.0000
  C   C14       1.0  0.13551  0.14813  0.04346  1.0000
  C   C15       1.0  0.02203  0.17806  0.29093  1.0000
  C   C16       1.0  0.48595  0.16886  0.10759  1.0000
  C   C17       1.0  0.10233  0.09433  0.41948  1.0000
  C   C18       1.0  0.43147  0.29821  0.40380  1.0000
  C   C19       1.0  0.01213  0.26334  0.24736  1.0000
  H   H8        1.0  0.02793  0.27807  0.25650  1.0000
  H   H9        1.0  0.02875  0.11383  0.37075  1.0000
  H   H10       1.0  0.47033  0.18888  0.22471  1.0000
  C   C20       1.0  0.28422  0.26052  0.19637  1.0000
  C   C21       1.0  0.27103  0.23808  0.18008  1.0000
  C   C22       1.0  0.24118  0.23875  0.16968  1.0000
  C   C23       1.0  0.22407  0.26142  0.17690  1.0000
  C   C24       1.0  0.23704  0.28358  0.19429  1.0000
  C   C25       1.0  0.26716  0.28328  0.20333  1.0000
  H   H11       1.0  0.28401  0.22049  0.17455  1.0000
  H   H12       1.0  0.23136  0.22169  0.15577  1.0000
  H   H13       1.0  0.22407  0.30119  0.19962  1.0000
  H   H14       1.0  0.04974  0.02669  0.51334  1.0000
  C   C26       1.0  0.32005  0.17073  0.35999  1.0000
  C   C27       1.0  0.29514  0.16694  0.38288  1.0000
  C   C28       1.0  0.29402  0.17757  0.42023  1.0000
  C   C29       1.0  0.31813  0.19146  0.43512  1.0000
  C   C30       1.0  0.34321  0.19472  0.41247  1.0000
  C   C31       1.0  0.34399  0.18482  0.37478  1.0000
  H   H15       1.0  0.27659  0.15602  0.37151  1.0000
  H   H16       1.0  0.27451  0.17509  0.43735  1.0000
  H   H17       1.0  0.36205  0.20503  0.42403  1.0000
  H   H18       1.0  0.36337  0.18747  0.35744  1.0000
  C   C32       1.0  0.45759  0.08314  0.11964  1.0000
  C   C33       1.0  0.43504  0.08646  0.09282  1.0000
  C   C34       1.0  0.41241  0.10500  0.09980  1.0000
  C   C35       1.0  0.41217  0.12054  0.13347  1.0000
  C   C36       1.0  0.43453  0.11700  0.16050  1.0000
  C   C37       1.0  0.45698  0.09830  0.15367  1.0000
  H   H19       1.0  0.43515  0.07491  0.06657  1.0000
  H   H20       1.0  0.39522  0.10757  0.07871  1.0000
  H   H21       1.0  0.43463  0.12878  0.18651  1.0000
  C   C38       1.0  0.07168  0.26414  0.32261  1.0000
  C   C39       1.0  0.03677  0.22849  0.33311  1.0000
  C   C40       1.0  0.99623  0.14488  0.25249  1.0000
  H   H22       1.0  0.13606  0.14415  0.45151  1.0000
  S   S15       1.0  0.45834  0.99795  0.05212  1.0000
  C   C41       1.0  0.36661  0.30936  0.36045  1.0000
  C   C42       1.0  0.06592  0.06617  0.50275  1.0000
  C   C43       1.0  0.04211  0.19718  0.51751  1.0000
  H   H23       1.0  0.09319  0.27070  0.31382  1.0000
  C   C44       1.0  0.07007  0.09349  0.36412  1.0000
  C   C45       1.0  0.17450  0.13820  0.48582  1.0000
  H   H24       1.0  0.11558  0.19458  0.42341  1.0000
  H   H25       1.0  0.15439  0.29838  0.09851  1.0000
  H   H26       1.0  0.22330  0.30034  0.47958  1.0000
  C   C46       1.0  0.01965  0.24480  0.21910  1.0000
  H   H27       1.0  0.06551  0.08723  0.33491  1.0000
  H   H28       1.0  0.02738  0.13128  0.51107  1.0000
  H   H29       1.0  0.04549  0.17823  0.19831  1.0000
  S   S16       1.0  0.08534  0.31194  0.25071  1.0000
  H   H30       1.0  0.27526  0.22136  0.38612  1.0000
  C   C47       1.0  0.10659  0.15165  0.34866  1.0000
  C   C48       1.0  0.06450  0.23724  0.32097  1.0000
  H   H31       1.0  0.47400  0.09562  0.17488  1.0000
  C   C49       1.0  0.32712  0.29259  0.32031  1.0000
  H   H32       1.0  0.43184  0.19409  0.46975  1.0000
  C   C50       1.0  0.08158  0.10934  0.44002  1.0000
  H   H33       1.0  0.44667  0.26460  0.17455  1.0000
  H   H34       1.0  0.36444  0.28240  0.25859  1.0000
  C   C51       1.0  0.34464  0.31366  0.33302  1.0000
  H   H35       1.0  0.03843  0.12741  0.43747  1.0000
  H   H36       1.0  0.44298  0.18097  0.12707  1.0000
  C   C52       1.0  0.23598  0.27830  0.39256  1.0000
  H   H37       1.0  0.44557  0.29624  0.46299  1.0000
  C   C53       1.0  0.18624  0.12640  0.51850  1.0000
  C   C54       1.0  0.99859  0.18821  0.36800  1.0000
  H   H38       1.0  0.09563  0.17066  0.03688  1.0000
  H   H39       1.0  0.06609  0.20828  0.40271  1.0000
  C   C55       1.0  0.04935  0.10846  0.38433  1.0000
  C   C56       1.0  0.38044  0.28602  0.45508  1.0000
  S   S17       1.0  0.48742  0.06104  0.11143  1.0000
  S   S18       1.0  0.11049  0.29443  0.16577  1.0000
  H   H40       1.0  0.47074  0.22383  0.15241  1.0000
  H   H41       1.0  0.27331  0.31926  0.49123  1.0000
  H   H42       1.0  0.11825  0.13616  0.33334  1.0000
  H   H43       1.0  0.27725  0.30068  0.21596  1.0000
  H   H44       1.0  0.14352  0.16012  0.06720  1.0000
  S   S19       1.0  0.14212  0.30719  0.33592  1.0000
  C   C57       1.0  0.12001  0.16449  0.37966  1.0000
  H   H45       1.0  0.08097  0.22329  0.31113  1.0000
  C   C58       1.0  0.07684  0.19195  0.38801  1.0000
  H   H46       1.0  0.10923  0.17300  0.49473  1.0000
  C   C59       1.0  0.08602  0.17259  0.50084  1.0000
  H   H47       1.0  0.11252  0.07469  0.36605  1.0000
  C   C60       1.0  0.10856  0.15409  0.02632  1.0000
  H   H48       1.0  0.04707  0.29984  0.18270  1.0000
  P   P2        1.0  0.39917  0.27812  0.41089  1.0000
  C   C61       1.0  0.41173  0.24416  0.41001  1.0000
  C   C62       1.0  0.06344  0.17962  0.35624  1.0000
  C   C63       1.0  0.36116  0.26750  0.47111  1.0000
  H   H49       1.0  0.14230  0.15947  0.38778  1.0000
  C   C64       1.0  0.03836  0.18503  0.25855  1.0000
  C   C65       1.0  0.05129  0.28265  0.33595  1.0000
  C   C66       1.0  0.28975  0.13342  0.51479  1.0000
  C   C67       1.0  0.41837  0.23094  0.44421  1.0000
  C   C68       1.0  0.42750  0.20444  0.44326  1.0000
  C   C69       1.0  0.43050  0.19113  0.40820  1.0000
  C   C70       1.0  0.42482  0.20442  0.37405  1.0000
  C   C71       1.0  0.41574  0.23091  0.37490  1.0000
  C   C72       1.0  0.37175  0.28374  0.37443  1.0000
  C   C73       1.0  0.35383  0.26283  0.36183  1.0000
  C   C74       1.0  0.33170  0.26724  0.33493  1.0000
  H   H50       1.0  0.20244  0.31649  0.11832  1.0000
  H   H51       1.0  0.12265  0.08814  0.43292  1.0000
  C   C75       1.0  0.07018  0.14868  0.50137  1.0000
  H   H52       1.0  0.30146  0.29670  0.43234  1.0000
  H   H53       1.0  0.35797  0.24825  0.45781  1.0000
  C   C76       1.0  0.09658  0.08650  0.38165  1.0000
  H   H54       1.0  0.00757  0.28869  0.35748  1.0000
  H   H55       1.0  0.00782  0.14284  0.19287  1.0000
  H   H56       1.0  0.41614  0.24087  0.47165  1.0000
  H   H57       1.0  0.25559  0.11109  0.48677  1.0000
  H   H58       1.0  0.43712  0.17049  0.40744  1.0000
  H   H59       1.0  0.42729  0.19420  0.34677  1.0000
  H   H60       1.0  0.41155  0.24086  0.34807  1.0000
  H   H61       1.0  0.35653  0.24305  0.37304  1.0000
  H   H62       1.0  0.31819  0.25076  0.32561  1.0000
  C   C77       1.0  0.24252  0.25188  0.38432  1.0000
  C   C78       1.0  0.27013  0.24171  0.39326  1.0000
  C   C79       1.0  0.00639  0.29343  0.15290  1.0000
  C   C80       1.0  0.05503  0.11633  0.42214  1.0000
  C   C81       1.0  0.45053  0.30348  0.43461  1.0000
  C   C82       1.0  0.20114  0.12145  0.34583  1.0000
  C   C83       1.0  0.20442  0.13485  0.38078  1.0000
  C   C84       1.0  0.20799  0.16235  0.38140  1.0000
  C   C85       1.0  0.20833  0.17648  0.34715  1.0000
  C   C86       1.0  0.20560  0.16313  0.31188  1.0000
  C   C87       1.0  0.20178  0.13551  0.31148  1.0000
  P   P3        1.0  0.20822  0.18081  0.26719  1.0000
  C   C88       1.0  0.17275  0.18363  0.24405  1.0000
  C   C89       1.0  0.22149  0.21398  0.27638  1.0000
  C   C90       1.0  0.20156  0.23428  0.28567  1.0000
  C   C91       1.0  0.21144  0.26011  0.29257  1.0000
  C   C92       1.0  0.24136  0.26582  0.29037  1.0000
  C   C93       1.0  0.26133  0.24567  0.28139  1.0000
  C   C94       1.0  0.25156  0.21981  0.27464  1.0000
  C   C95       1.0  0.16913  0.20143  0.21373  1.0000
  C   C96       1.0  0.14173  0.20464  0.19627  1.0000
  C   C97       1.0  0.11748  0.19063  0.20958  1.0000
  C   C98       1.0  0.12075  0.17295  0.23992  1.0000
  C   C99       1.0  0.14830  0.16940  0.25711  1.0000
  C   C100      1.0  0.23434  0.16363  0.23686  1.0000
  C   C101      1.0  0.25780  0.14969  0.25347  1.0000
  C   C102      1.0  0.27845  0.13672  0.23043  1.0000
  C   C103      1.0  0.27616  0.13786  0.19060  1.0000
  C   C104      1.0  0.25308  0.15188  0.17377  1.0000
  C   C105      1.0  0.23220  0.16467  0.19674  1.0000
  H   H63       1.0  0.19882  0.10008  0.34526  1.0000
  H   H64       1.0  0.20459  0.12393  0.40735  1.0000
  H   H65       1.0  0.21094  0.17281  0.40840  1.0000
  H   H66       1.0  0.21125  0.19770  0.34844  1.0000
  H   H67       1.0  0.19996  0.12483  0.28450  1.0000
  H   H68       1.0  0.17833  0.23014  0.28727  1.0000
  H   H69       1.0  0.19584  0.27573  0.29928  1.0000
  H   H70       1.0  0.24900  0.28591  0.29502  1.0000
  H   H71       1.0  0.28434  0.25021  0.27795  1.0000
  H   H72       1.0  0.26753  0.20466  0.26738  1.0000
  H   H73       1.0  0.18740  0.21331  0.20403  1.0000
  H   H74       1.0  0.13916  0.21879  0.17326  1.0000
  H   H75       1.0  0.09612  0.19394  0.19668  1.0000
  H   H76       1.0  0.10184  0.16221  0.25025  1.0000
  H   H77       1.0  0.15027  0.15592  0.28080  1.0000
  H   H78       1.0  0.26072  0.14930  0.28426  1.0000
  H   H79       1.0  0.29687  0.12657  0.24359  1.0000
  H   H80       1.0  0.29274  0.12844  0.17285  1.0000
  H   H81       1.0  0.25169  0.15321  0.14287  1.0000
  H   H82       1.0  0.21483  0.17560  0.18291  1.0000
  H   H83       1.0  0.98901  0.15084  0.31230  1.0000
  C   C106      1.0  0.29098  0.25780  0.41142  1.0000
  C   C107      1.0  0.12673  0.11910  0.49981  1.0000
  C   C108      1.0  0.10495  0.18432  0.39971  1.0000
  H   H84       1.0  0.05443  0.20077  0.26002  1.0000
  H   H85       1.0  0.06869  0.14931  0.31232  1.0000
  C   C109      1.0  0.07138  0.09146  0.51845  1.0000
  C   C110      1.0  0.15199  0.12656  0.03019  1.0000
  C   C111      1.0  0.02627  0.30840  0.17450  1.0000
  C   C112      1.0  0.38415  0.29055  0.24621  1.0000
  H   H86       1.0  0.17275  0.12179  0.04377  1.0000
  Fe  Fe8       1.0  0.12983  0.30051  0.27363  1.0000
  Fe  Fe9       1.0  0.27338  0.21338  0.50825  1.0000
  C   C113      1.0  0.46957  0.26541  0.16643  1.0000
  H   H87       1.0  0.31202  0.24951  0.41934  1.0000
  C   C114      1.0  0.01628  0.24735  0.34627  1.0000
  H   H88       1.0  0.36175  0.30622  0.19705  1.0000
  C   C115      1.0  0.99872  0.22622  0.20679  1.0000
  C   C116      1.0  0.28462  0.28443  0.41941  1.0000
  H   H89       1.0  0.21486  0.28607  0.38409  1.0000
  H   H90       1.0  0.41727  0.16383  0.06969  1.0000
  H   H91       1.0  0.29244  0.14718  0.49140  1.0000
  C   C117      1.0  0.25681  0.29474  0.41039  1.0000
  C   C118      1.0  0.48713  0.14605  0.04617  1.0000
  C   C119      1.0  0.34571  0.27362  0.50456  1.0000
  C   C120      1.0  0.38272  0.30398  0.21147  1.0000
  C   C121      1.0  0.03356  0.17207  0.22348  1.0000
  C   C122      1.0  0.02355  0.27428  0.34758  1.0000
  C   C123      1.0  0.01225  0.15227  0.22032  1.0000
  C   C124      1.0  0.04010  0.14940  0.51029  1.0000
  C   C125      1.0  0.15776  0.31967  0.09887  1.0000
  H   H92       1.0  0.15908  0.30581  0.41484  1.0000
  H   H93       1.0  0.01188  0.27324  0.14479  1.0000
  H   H94       1.0  0.45773  0.29126  0.26068  1.0000
  H   H95       1.0  0.05706  0.30349  0.33707  1.0000
  C   C126      1.0  0.26896  0.11312  0.51233  1.0000
  H   H96       1.0  0.41224  0.27456  0.28965  1.0000
  H   H97       1.0  0.00406  0.21234  0.18410  1.0000
  C   C127      1.0  0.07199  0.19668  0.50869  1.0000
  C   C128      1.0  0.47628  0.31803  0.42893  1.0000
  C   C129      1.0  0.45555  0.17190  0.10411  1.0000
  C   C130      1.0  0.00210  0.17833  0.40522  1.0000
  C   C131      1.0  0.36794  0.31714  0.50607  1.0000
  C   C132      1.0  0.14500  0.13427  0.47623  1.0000
  P   P4        1.0  0.08773  0.11733  0.48997  1.0000
  C   C133      1.0  0.44098  0.16216  0.07167  1.0000
  H   H98       1.0  0.31023  0.29574  0.29885  1.0000
  H   H99       1.0  0.18792  0.15132  0.46881  1.0000
  H   H100      1.0  0.07113  0.06166  0.47322  1.0000
  C   C134      1.0  0.43571  0.30956  0.21245  1.0000
  S   S20       1.0  0.23564  0.18515  0.50923  1.0000
  C   C135      1.0  0.43944  0.30637  0.36690  1.0000
  C   C136      1.0  0.40841  0.31315  0.19434  1.0000
  C   C137      1.0  0.38322  0.31116  0.47233  1.0000
  H   H101      1.0  0.33094  0.25911  0.51680  1.0000
  H   H102      1.0  0.42597  0.30135  0.34239  1.0000
  C   C138      1.0  0.20885  0.31669  0.47297  1.0000
  C   C139      1.0  0.45670  0.14907  0.04288  1.0000
  S   S21       1.0  0.01900  0.99700  0.05531  1.0000
  C   C140      1.0  0.48308  0.24215  0.15351  1.0000
  H   H103      1.0  0.02196  0.06552  0.02781  1.0000
  H   H104      1.0  0.48086  0.23073  0.38290  1.0000
  P   P5        1.0  0.46931  0.31885  0.18879  1.0000
  C   C141      1.0  0.18404  0.32085  0.49569  1.0000
  C   C142      1.0  0.46515  0.32096  0.36127  1.0000
  C   C143      1.0  0.02621  0.17353  0.51848  1.0000
  H   H105      1.0  0.17961  0.30758  0.51926  1.0000
  Fe  Fe10      1.0  0.06145  0.01605  0.67192  1.0000
  S   S22       1.0  0.05653  0.05659  0.69732  1.0000
  H   H106      1.0  0.21575  0.31617  0.72508  1.0000
  Fe  Fe11      1.0  0.12551  0.01199  0.69640  1.0000
  S   S23       1.0  0.12573  0.05225  0.72526  1.0000
  H   H107      1.0  0.46498  0.11327  0.66771  1.0000
  Fe  Fe12      1.0  0.08119  0.04008  0.74755  1.0000
  S   S24       1.0  0.06117  0.05269  0.80410  1.0000
  Fe  Fe13      1.0  0.10099  0.06560  0.67296  1.0000
  S   S25       1.0  0.10508  0.10407  0.64007  1.0000
  H   H108      1.0  0.24950  0.07975  0.54013  1.0000
  S   S26       1.0  0.10370  0.02627  0.64263  1.0000
  H   H109      1.0  0.20871  0.13038  0.52710  1.0000
  C   C144      1.0  0.44612  0.00793  0.78416  1.0000
  C   C145      1.0  0.45868  0.31479  0.89214  1.0000
  Fe  Fe14      1.0  0.24002  0.25699  0.55094  1.0000
  S   S27       1.0  0.26977  0.22429  0.57056  1.0000
  S   S28       1.0  0.24256  0.30052  0.56974  1.0000
  Fe  Fe15      1.0  0.22915  0.19868  0.56998  1.0000
  S   S29       1.0  0.22383  0.16787  0.61654  1.0000
  S   S30       1.0  0.19865  0.23221  0.55489  1.0000
  C   C146      1.0  0.20190  0.00658  0.83259  1.0000
  C   C147      1.0  0.03482  0.02271  0.90553  1.0000
  C   C148      1.0  0.03758  0.03862  0.87286  1.0000
  C   C149      1.0  0.05505  0.03043  0.84195  1.0000
  C   C150      1.0  0.06638  0.98991  0.87597  1.0000
  Fe  Fe16      1.0  0.46266  0.00710  0.98938  1.0000
  H   H110      1.0  0.02193  0.02952  0.92962  1.0000
  H   H111      1.0  0.02639  0.05747  0.87159  1.0000
  C   C151      1.0  0.11471  0.11704  0.98197  1.0000
  H   H112      1.0  0.08123  0.99882  0.81868  1.0000
  C   C152      1.0  0.19029  0.15112  0.62400  1.0000
  C   C153      1.0  0.16447  0.15865  0.60522  1.0000
  C   C154      1.0  0.13833  0.14442  0.61121  1.0000
  C   C155      1.0  0.13795  0.12228  0.63537  1.0000
  C   C156      1.0  0.16367  0.11493  0.65446  1.0000
  C   C157      1.0  0.18963  0.12950  0.64909  1.0000
  H   H113      1.0  0.16468  0.17533  0.58595  1.0000
  H   H114      1.0  0.11848  0.15027  0.59640  1.0000
  H   H115      1.0  0.16356  0.09806  0.67337  1.0000
  H   H116      1.0  0.20936  0.12373  0.66413  1.0000
  C   C158      1.0  0.23566  0.01684  0.72846  1.0000
  C   C159      1.0  0.20610  0.01205  0.71895  1.0000
  C   C160      1.0  0.06865  0.00562  0.84301  1.0000
  H   H117      1.0  0.24165  0.03516  0.74272  1.0000
  H   H118      1.0  0.18950  0.02671  0.72563  1.0000
  C   C161      1.0  0.19349  0.05390  0.61114  1.0000
  H   H119      1.0  0.29491  0.27714  0.60473  1.0000
  C   C162      1.0  0.04981  0.99857  0.90756  1.0000
  H   H120      1.0  0.18803  0.04437  0.90902  1.0000
  H   H121      1.0  0.11277  0.15284  0.92179  1.0000
  C   C163      1.0  0.25744  0.99808  0.71945  1.0000
  H   H122      1.0  0.12543  0.09557  0.55165  1.0000
  C   C164      1.0  0.10740  0.04183  0.94426  1.0000
  H   H123      1.0  0.08479  0.04033  0.95334  1.0000
  H   H124      1.0  0.22378  0.99915  0.83819  1.0000
  C   C165      1.0  0.43002  0.26736  0.87381  1.0000
  C   C166      1.0  0.22130  0.01321  0.61589  1.0000
  C   C167      1.0  0.04724  0.05126  0.56383  1.0000
  C   C168      1.0  0.30412  0.11829  0.57771  1.0000
  H   H125      1.0  0.17251  0.06411  0.61105  1.0000
  H   H126      1.0  0.31819  0.12035  0.60263  1.0000
  H   H127      1.0  0.34274  0.00680  0.55311  1.0000
  C   C169      1.0  0.46005  0.09866  0.84824  1.0000
  C   C170      1.0  0.16854  0.11042  0.54123  1.0000
  C   C171      1.0  0.99066  0.99321  0.66031  1.0000
  H   H128      1.0  0.32328  0.15191  0.54920  1.0000
  H   H129      1.0  0.00499  0.06195  0.76744  1.0000
  H   H130      1.0  0.39732  0.29144  0.84686  1.0000
  H   H131      1.0  0.40071  0.08191  0.83449  1.0000
  H   H132      1.0  0.16725  0.06500  0.81379  1.0000
  H   H133      1.0  0.47173  0.04342  0.92301  1.0000
  H   H134      1.0  0.34732  0.07885  0.82519  1.0000
  C   C172      1.0  0.47994  0.02748  0.66818  1.0000
  C   C173      1.0  0.31266  0.05464  0.61061  1.0000
  H   H135      1.0  0.41871  0.24898  0.86716  1.0000
  H   H136      1.0  0.45656  0.11424  0.82758  1.0000
  C   C174      1.0  0.31773  0.30950  0.63289  1.0000
  H   H137      1.0  0.07708  0.14334  0.98301  1.0000
  C   C175      1.0  0.46446  0.02998  0.77897  1.0000
  H   H138      1.0  0.12384  0.03557  0.81682  1.0000
  H   H139      1.0  0.32689  0.05793  0.76615  1.0000
  C   C176      1.0  0.36193  0.07182  0.80289  1.0000
  H   H140      1.0  0.42347  0.01048  0.79266  1.0000
  H   H141      1.0  0.38419  0.01310  0.59861  1.0000
  C   C177      1.0  0.05383  0.04621  0.52540  1.0000
  C   C178      1.0  0.17016  0.04406  0.81941  1.0000
  H   H142      1.0  0.36018  0.04097  0.71608  1.0000
  C   C179      1.0  0.31529  0.03630  0.58031  1.0000
  C   C180      1.0  0.41808  0.29153  0.86201  1.0000
  H   H143      1.0  0.16469  0.00124  0.92269  1.0000
  H   H144      1.0  0.39266  0.01590  0.87763  1.0000
  C   C181      1.0  0.21968  0.06833  0.60970  1.0000
  C   C182      1.0  0.24689  0.05530  0.61153  1.0000
  C   C183      1.0  0.24751  0.02762  0.61561  1.0000
  P   P6        1.0  0.28004  0.07480  0.61458  1.0000
  H   H145      1.0  0.21885  0.08976  0.60829  1.0000
  C   C184      1.0  0.33648  0.05845  0.63572  1.0000
  C   C185      1.0  0.27795  0.09103  0.66069  1.0000
  C   C186      1.0  0.27176  0.11822  0.66374  1.0000
  C   C187      1.0  0.26817  0.13014  0.69971  1.0000
  C   C188      1.0  0.27040  0.11495  0.73288  1.0000
  C   C189      1.0  0.27611  0.08776  0.73003  1.0000
  C   C190      1.0  0.27981  0.07583  0.69408  1.0000
  C   C191      1.0  0.34929  0.29834  0.52226  1.0000
  H   H146      1.0  0.38058  0.04647  0.65047  1.0000
  C   C192      1.0  0.06260  0.09034  0.95459  1.0000
  C   C193      1.0  0.43268  0.31540  0.87044  1.0000
  H   H147      1.0  0.03138  0.21588  0.52397  1.0000
  H   H148      1.0  0.33746  0.30293  0.54841  1.0000
  C   C194      1.0  0.15241  0.01936  0.92664  1.0000
  H   H149      1.0  0.46071  0.03131  0.85685  1.0000
  H   H150      1.0  0.26873  0.13023  0.63852  1.0000
  H   H151      1.0  0.26289  0.15109  0.70159  1.0000
  H   H152      1.0  0.26723  0.12417  0.76068  1.0000
  H   H153      1.0  0.27718  0.07578  0.75559  1.0000
  H   H154      1.0  0.28366  0.05465  0.69222  1.0000
  S   S31       1.0  0.42471  0.01189  0.94778  1.0000
  C   C195      1.0  0.09814  0.13859  0.99579  1.0000
  S   S32       1.0  0.42483  0.00615  0.66605  1.0000
  C   C196      1.0  0.45860  0.07189  0.83692  1.0000
  H   H155      1.0  0.07317  0.07578  0.01119  1.0000
  H   H156      1.0  0.33551  0.07307  0.65853  1.0000
  C   C197      1.0  0.47033  0.08554  0.91347  1.0000
  C   C198      1.0  0.16556  0.04372  0.91900  1.0000
  C   C199      1.0  0.46254  0.05209  0.86435  1.0000
  C   C200      1.0  0.12333  0.01841  0.93904  1.0000
  H   H157      1.0  0.36986  0.31728  0.73717  1.0000
  C   C201      1.0  0.12055  0.06647  0.93712  1.0000
  C   C202      1.0  0.14961  0.06719  0.92382  1.0000
  P   P7        1.0  0.10041  0.09710  0.94290  1.0000
  C   C203      1.0  0.41151  0.06358  0.77982  1.0000
  H   H158      1.0  0.21722  0.04655  0.82459  1.0000
  H   H159      1.0  0.11285  0.99953  0.94446  1.0000
  C   C204      1.0  0.46970  0.08569  0.75641  1.0000
  H   H160      1.0  0.33525  0.29698  0.64340  1.0000
  C   C205      1.0  0.40076  0.99578  0.87953  1.0000
  C   C206      1.0  0.14569  0.02745  0.82088  1.0000
  C   C207      1.0  0.45627  0.26688  0.89466  1.0000
  C   C208      1.0  0.47365  0.10891  0.69589  1.0000
  C   C209      1.0  0.19824  0.03365  0.82548  1.0000
  H   H161      1.0  0.43775  0.08372  0.71027  1.0000
  C   C210      1.0  0.03976  0.09549  0.92857  1.0000
  C   C211      1.0  0.10303  0.11404  0.89771  1.0000
  C   C212      1.0  0.09931  0.09958  0.86352  1.0000
  C   C213      1.0  0.10177  0.11210  0.82813  1.0000
  C   C214      1.0  0.10808  0.13915  0.82657  1.0000
  C   C215      1.0  0.11196  0.15370  0.86048  1.0000
  C   C216      1.0  0.10948  0.14122  0.89599  1.0000
  C   C217      1.0  0.00429  0.07894  0.97409  1.0000
  C   C218      1.0  0.14163  0.11098  0.99967  1.0000
  H   H162      1.0  0.46733  0.12605  0.89508  1.0000
  C   C219      1.0  0.28286  0.09817  0.57587  1.0000
  C   C220      1.0  0.29488  0.29818  0.61087  1.0000
  C   C221      1.0  0.27204  0.31406  0.59713  1.0000
  H   H163      1.0  0.41391  0.04337  0.72506  1.0000
  H   H164      1.0  0.21401  0.30771  0.65495  1.0000
  C   C222      1.0  0.36921  0.05070  0.74126  1.0000
  H   H165      1.0  0.41061  0.31992  0.78405  1.0000
  H   H166      1.0  0.15992  0.08594  0.91722  1.0000
  C   C223      1.0  0.36429  0.02479  0.60166  1.0000
  C   C224      1.0  0.13885  0.10693  0.53226  1.0000
  P   P8        1.0  0.45080  0.06307  0.78781  1.0000
  H   H167      1.0  0.04423  0.10343  0.90052  1.0000
  H   H168      1.0  0.09432  0.07858  0.86424  1.0000
  H   H169      1.0  0.09855  0.10078  0.80188  1.0000
  H   H170      1.0  0.10993  0.14879  0.79904  1.0000
  H   H171      1.0  0.11690  0.17468  0.85921  1.0000
  S   S33       1.0  0.08324  0.99871  0.72361  1.0000
  C   C225      1.0  0.41774  0.98828  0.91124  1.0000
  H   H172      1.0  0.22178  0.99192  0.61914  1.0000
  C   C226      1.0  0.39236  0.07353  0.80802  1.0000
  C   C227      1.0  0.14935  0.00034  0.82729  1.0000
  C   C228      1.0  0.26548  0.09550  0.54275  1.0000
  H   H173      1.0  0.15458  0.09416  0.99048  1.0000
  C   C229      1.0  0.01068  0.08973  0.93835  1.0000
  C   C230      1.0  0.34089  0.02120  0.57617  1.0000
  S   S34       1.0  0.02589  0.99417  0.63933  1.0000
  H   H174      1.0  0.26800  0.01714  0.61978  1.0000
  H   H175      1.0  0.29755  0.03370  0.55990  1.0000
  C   C231      1.0  0.05264  0.07631  0.57961  1.0000
  C   C232      1.0  0.06467  0.09633  0.55709  1.0000
  H   H176      1.0  0.00165  0.01817  0.70862  1.0000
  C   C233      1.0  0.30726  0.13605  0.54747  1.0000
  H   H177      1.0  0.17737  0.10210  0.56725  1.0000
  C   C234      1.0  0.45823  0.09205  0.72024  1.0000
  H   H178      1.0  0.46535  0.24814  0.90405  1.0000
  C   C235      1.0  0.46859  0.05894  0.90230  1.0000
  H   H179      1.0  0.47493  0.09060  0.94312  1.0000
  C   C236      1.0  0.35038  0.06025  0.76962  1.0000
  C   C237      1.0  0.46345  0.00407  0.67024  1.0000
  S   S35       1.0  0.29425  0.00457  0.73184  1.0000
  C   C238      1.0  0.47053  0.29060  0.90395  1.0000
  H   H180      1.0  0.03824  0.03569  0.58156  1.0000
  H   H181      1.0  0.04820  0.08005  0.60968  1.0000
  H   H182      1.0  0.06942  0.11542  0.57022  1.0000
  C   C239      1.0  0.39963  0.05210  0.74645  1.0000
  C   C240      1.0  0.36216  0.04354  0.63117  1.0000
  C   C241      1.0  0.46603  0.10543  0.88642  1.0000
  H   H183      1.0  0.46882  0.04629  0.66512  1.0000
  C   C242      1.0  0.02691  0.07407  0.00020  1.0000
  H   H184      1.0  0.44514  0.14065  0.01852  1.0000
  C   C243      1.0  0.19432  0.02634  0.61410  1.0000
  C   C244      1.0  0.05591  0.07990  0.99065  1.0000
  H   H185      1.0  0.17406  0.01518  0.61631  1.0000
  H   H186      1.0  0.99316  0.09309  0.91792  1.0000
  H   H187      1.0  0.00313  0.17392  0.52589  1.0000
  H   H188      1.0  0.12880  0.99377  0.56857  1.0000
  C   C245      1.0  0.17752  0.98953  0.83218  1.0000
  H   H189      1.0  0.17511  0.99459  0.53124  1.0000
  C   C246      1.0  0.19822  0.98839  0.70056  1.0000
  H   H190      1.0  0.00132  0.59307  0.13615  1.0000
  Fe  Fe17      1.0  0.46763  0.51355  0.05142  1.0000
  S   S36       1.0  0.44076  0.48008  0.07435  1.0000
  H   H191      1.0  0.11336  0.32884  0.08216  1.0000
  S   S37       1.0  0.10030  0.37341  0.18622  1.0000
  C   C247      1.0  0.07237  0.38315  0.15398  1.0000
  C   C248      1.0  0.06278  0.40963  0.15451  1.0000
  C   C249      1.0  0.04130  0.41846  0.12849  1.0000
  C   C250      1.0  0.02906  0.40076  0.10191  1.0000
  C   C251      1.0  0.03852  0.37423  0.10150  1.0000
  C   C252      1.0  0.06028  0.36549  0.12721  1.0000
  H   H192      1.0  0.07212  0.42343  0.17506  1.0000
  H   H193      1.0  0.03404  0.43888  0.12922  1.0000
  H   H194      1.0  0.48179  0.37368  0.21502  1.0000
  H   H195      1.0  0.06757  0.34508  0.12648  1.0000
  S   S38       1.0  0.02099  0.48901  0.06719  1.0000
  C   C253      1.0  0.46208  0.34222  0.15078  1.0000
  H   H196      1.0  0.47105  0.32731  0.33271  1.0000
  C   C254      1.0  0.31372  0.37575  0.49199  1.0000
  S   S39       1.0  0.37633  0.60861  0.18938  1.0000
  H   H197      1.0  0.19788  0.33324  0.36345  1.0000
  H   H198      1.0  0.06939  0.63161  0.26928  1.0000
  P   P9        1.0  0.24850  0.32946  0.41557  1.0000
  C   C255      1.0  0.44420  0.56995  0.10844  1.0000
  C   C256      1.0  0.42132  0.55513  0.12411  1.0000
  C   C257      1.0  0.40101  0.56730  0.14909  1.0000
  C   C258      1.0  0.40361  0.59423  0.15938  1.0000
  C   C259      1.0  0.42712  0.60879  0.14486  1.0000
  C   C260      1.0  0.44719  0.59673  0.11936  1.0000
  H   H199      1.0  0.41876  0.53449  0.11618  1.0000
  H   H200      1.0  0.38299  0.55581  0.16032  1.0000
  H   H201      1.0  0.42958  0.62940  0.15291  1.0000
  C   C261      1.0  0.16077  0.41187  0.22104  1.0000
  C   C262      1.0  0.15446  0.43854  0.22836  1.0000
  C   C263      1.0  0.99238  0.34537  0.17488  1.0000
  C   C264      1.0  0.15568  0.43864  0.03907  1.0000
  C   C265      1.0  0.16571  0.42118  0.15318  1.0000
  C   C266      1.0  0.16658  0.40322  0.18367  1.0000
  C   C267      1.0  0.09782  0.44596  0.06364  1.0000
  C   C268      1.0  0.22624  0.43652  0.11020  1.0000
  C   C269      1.0  0.29527  0.63296  0.15139  1.0000
  C   C270      1.0  0.44374  0.36421  0.15741  1.0000
  C   C271      1.0  0.19667  0.35559  0.43602  1.0000
  H   H202      1.0  0.21040  0.36492  0.12068  1.0000
  C   C272      1.0  0.20952  0.41739  0.09047  1.0000
  C   C273      1.0  0.02370  0.62910  0.11957  1.0000
  Fe  Fe18      1.0  0.99145  0.45412  0.05683  1.0000
  H   H203      1.0  0.01166  0.56924  0.07612  1.0000
  H   H204      1.0  0.46307  0.60467  0.48515  1.0000
  C   C274      1.0  0.01679  0.60374  0.21062  1.0000
  H   H205      1.0  0.15897  0.46226  0.13781  1.0000
  H   H206      1.0  0.30263  0.64491  0.48585  1.0000
  H   H207      1.0  0.45711  0.64020  0.28203  1.0000
  H   H208      1.0  0.39699  0.32620  0.45978  1.0000
  S   S40       1.0  0.46818  0.55644  0.07325  1.0000
  H   H209      1.0  0.36149  0.60112  0.49390  1.0000
  H   H210      1.0  0.34092  0.59019  0.10523  1.0000
  H   H211      1.0  0.16017  0.39764  0.24410  1.0000
  H   H212      1.0  0.14938  0.44505  0.25724  1.0000
  H   H213      1.0  0.01732  0.64036  0.28523  1.0000
  H   H214      1.0  0.03656  0.59808  0.19542  1.0000
  H   H215      1.0  0.28092  0.37954  0.40471  1.0000
  C   C275      1.0  0.24497  0.33986  0.36641  1.0000
  H   H216      1.0  0.40685  0.32210  0.16638  1.0000
  H   H217      1.0  0.26023  0.39909  0.02341  1.0000
  H   H218      1.0  0.26780  0.45685  0.11397  1.0000
  C   C276      1.0  0.26086  0.63931  0.51267  1.0000
  C   C277      1.0  0.03456  0.60191  0.05045  1.0000
  H   H219      1.0  0.07533  0.44867  0.07304  1.0000
  C   C278      1.0  0.36030  0.59497  0.02920  1.0000
  C   C279      1.0  0.25497  0.44207  0.09866  1.0000
  C   C280      1.0  0.24038  0.34818  0.28711  1.0000
  C   C281      1.0  0.11748  0.43128  0.08585  1.0000
  H   H220      1.0  0.43409  0.36755  0.18532  1.0000
  C   C282      1.0  0.26787  0.34891  0.30504  1.0000
  H   H221      1.0  0.14890  0.47728  0.20393  1.0000
  C   C283      1.0  0.30169  0.35191  0.50449  1.0000
  H   H222      1.0  0.31534  0.40417  0.44641  1.0000
  C   C284      1.0  0.00643  0.58758  0.23998  1.0000
  Fe  Fe19      1.0  0.11037  0.33093  0.20285  1.0000
  C   C285      1.0  0.45012  0.37831  0.09185  1.0000
  C   C286      1.0  0.32846  0.60814  0.11040  1.0000
  C   C287      1.0  0.13474  0.33682  0.08951  1.0000
  C   C288      1.0  0.18495  0.32993  0.11000  1.0000
  C   C289      1.0  0.37656  0.61963  0.44270  1.0000
  H   H223      1.0  0.21727  0.44721  0.13446  1.0000
  C   C290      1.0  0.00127  0.62666  0.20027  1.0000
  C   C291      1.0  0.01383  0.60297  0.11427  1.0000
  C   C292      1.0  0.30657  0.38534  0.45567  1.0000
  C   C293      1.0  0.12484  0.65092  0.49201  1.0000
  C   C294      1.0  0.27575  0.34679  0.44386  1.0000
  H   H224      1.0  0.38954  0.64339  0.39456  1.0000
  H   H225      1.0  0.48425  0.52709  0.15337  1.0000
  S   S41       1.0  0.00172  0.41086  0.06909  1.0000
  H   H226      1.0  0.42455  0.39959  0.13363  1.0000
  C   C295      1.0  0.25070  0.40954  0.04762  1.0000
  H   H227      1.0  0.23855  0.35110  0.25646  1.0000
  H   H228      1.0  0.40456  0.54143  0.04488  1.0000
  H   H229      1.0  0.11010  0.42301  0.11262  1.0000
  C   C296      1.0  0.15972  0.44804  0.16085  1.0000
  H   H230      1.0  0.28947  0.43295  0.05850  1.0000
  H   H231      1.0  0.24873  0.64087  0.48603  1.0000
  C   C297      1.0  0.36616  0.61981  0.48038  1.0000
  Fe  Fe20      1.0  0.37069  0.64948  0.21753  1.0000
  C   C298      1.0  0.26720  0.42860  0.06740  1.0000
  H   H232      1.0  0.17798  0.43633  0.02911  1.0000
  H   H233      1.0  0.12055  0.37709  0.08464  1.0000
  H   H234      1.0  0.07349  0.65157  0.42121  1.0000
  Fe  Fe21      1.0  0.48214  0.45558  0.07008  1.0000
  S   S42       1.0  0.15494  0.32221  0.22824  1.0000
  P   P10       1.0  0.17221  0.41020  0.10451  1.0000
  H   H235      1.0  0.14590  0.34516  0.50568  1.0000
  C   C299      1.0  0.18932  0.35735  0.11127  1.0000
  H   H236      1.0  0.08286  0.63197  0.48459  1.0000
  C   C300      1.0  0.36114  0.64395  0.49966  1.0000
  C   C301      1.0  0.17158  0.35949  0.45841  1.0000
  H   H237      1.0  0.15712  0.37608  0.45279  1.0000
  C   C302      1.0  0.14659  0.42755  0.07386  1.0000
  C   C303      1.0  0.06393  0.64394  0.29383  1.0000
  C   C304      1.0  0.16524  0.34209  0.48820  1.0000
  H   H238      1.0  0.34125  0.33330  0.32154  1.0000
  H   H239      1.0  0.44634  0.39274  0.06955  1.0000
  H   H240      1.0  0.30924  0.59289  0.16197  1.0000
  H   H241      1.0  0.20166  0.36964  0.41372  1.0000
  C   C305      1.0  0.38233  0.64347  0.42414  1.0000
  H   H242      1.0  0.17046  0.38232  0.17874  1.0000
  C   C306      1.0  0.03823  0.64178  0.08940  1.0000
  C   C307      1.0  0.38253  0.57930  0.04529  1.0000
  C   C308      1.0  0.13896  0.36428  0.09091  1.0000
  H   H243      1.0  0.03869  0.59133  0.02383  1.0000
  C   C309      1.0  0.33113  0.63006  0.08621  1.0000
  C   C310      1.0  0.27021  0.34451  0.34448  1.0000
  H   H244      1.0  0.05519  0.63797  0.03200  1.0000
  H   H245      1.0  0.19393  0.34167  0.29472  1.0000
  H   H246      1.0  0.20073  0.64812  0.32895  1.0000
  C   C311      1.0  0.04387  0.62814  0.05512  1.0000
  H   H247      1.0  0.39636  0.58729  0.06777  1.0000
  H   H248      1.0  0.37960  0.60103  0.42747  1.0000
  C   C312      1.0  0.41586  0.63665  0.03730  1.0000
  H   H249      1.0  0.07896  0.64416  0.14713  1.0000
  H   H250      1.0  0.28740  0.35233  0.28816  1.0000
  C   C313      1.0  0.15408  0.45665  0.19830  1.0000
  H   H251      1.0  0.06416  0.39537  0.02136  1.0000
  C   C314      1.0  0.46702  0.62213  0.46807  1.0000
  C   C315      1.0  0.38707  0.55326  0.03255  1.0000
  C   C316      1.0  0.21525  0.34299  0.30858  1.0000
  P   P11       1.0  0.35546  0.62892  0.04544  1.0000
  C   C317      1.0  0.28734  0.37111  0.43185  1.0000
  H   H252      1.0  0.02901  0.36039  0.08116  1.0000
  H   H253      1.0  0.10887  0.65187  0.30781  1.0000
  C   C318      1.0  0.28287  0.33744  0.48057  1.0000
  H   H254      1.0  0.28190  0.63421  0.17696  1.0000
  C   C319      1.0  0.10711  0.45722  0.02937  1.0000
  C   C320      1.0  0.16641  0.37477  0.10143  1.0000
  C   C321      1.0  0.01925  0.33426  0.18568  1.0000
  C   C322      1.0  0.21513  0.33377  0.44261  1.0000
  C   C323      1.0  0.22197  0.40395  0.05905  1.0000
  C   C324      1.0  0.43791  0.38220  0.12810  1.0000
  H   H255      1.0  0.20941  0.38919  0.04333  1.0000
  C   C325      1.0  0.03455  0.64891  0.30272  1.0000
  C   C326      1.0  0.21753  0.33861  0.34793  1.0000
  C   C327      1.0  0.31041  0.60957  0.14270  1.0000
  H   H256      1.0  0.29172  0.34390  0.35770  1.0000
  C   C328      1.0  0.44310  0.64748  0.04732  1.0000
  C   C329      1.0  0.01943  0.58941  0.07995  1.0000
  C   C330      1.0  0.09898  0.64502  0.47199  1.0000
  H   H257      1.0  0.46491  0.60834  0.10761  1.0000
  P   P12       1.0  0.01516  0.64755  0.16271  1.0000
  C   C331      1.0  0.45030  0.64503  0.47404  1.0000
  H   H258      1.0  0.37954  0.32598  0.37068  1.0000
  C   C332      1.0  0.31618  0.65367  0.09551  1.0000
  C   C333      1.0  0.47433  0.33853  0.11422  1.0000
  H   H259      1.0  0.43320  0.64525  0.49554  1.0000
  C   C334      1.0  0.39067  0.64296  0.05868  1.0000
  H   H260      1.0  0.46256  0.64202  0.03128  1.0000
  H   H261      1.0  0.03491  0.34588  0.20219  1.0000
  C   C335      1.0  0.29145  0.64182  0.51272  1.0000
  C   C336      1.0  0.46823  0.35645  0.08490  1.0000
  H   H262      1.0  0.15523  0.64942  0.36744  1.0000
  H   H263      1.0  0.01796  0.56943  0.24692  1.0000
  H   H264      1.0  0.47838  0.35387  0.05711  1.0000
  H   H265      1.0  0.32807  0.38704  0.51083  1.0000
  C   C337      1.0  0.48347  0.32696  0.39234  1.0000
  H   H266      1.0  0.29463  0.63525  0.01967  1.0000
  Fe  Fe22      1.0  0.35338  0.39182  0.69332  1.0000
  S   S43       1.0  0.37181  0.42597  0.66000  1.0000
  S   S44       1.0  0.34744  0.34973  0.66967  1.0000
  Fe  Fe23      1.0  0.35217  0.42480  0.76881  1.0000
  S   S45       1.0  0.36976  0.46135  0.74092  1.0000
  S   S46       1.0  0.33581  0.42327  0.83018  1.0000
  Fe  Fe24      1.0  0.33894  0.45071  0.69274  1.0000
  S   S47       1.0  0.30962  0.48097  0.66444  1.0000
  Fe  Fe25      1.0  0.40100  0.43356  0.71108  1.0000
  S   S48       1.0  0.45052  0.43790  0.71133  1.0000
  S   S49       1.0  0.31874  0.41610  0.72252  1.0000
  S   S50       1.0  0.38523  0.39744  0.74231  1.0000
  C   C338      1.0  0.38586  0.61951  0.59873  1.0000
  S   S51       1.0  0.38706  0.45743  0.99339  1.0000
  C   C339      1.0  0.47156  0.46153  0.88390  1.0000
  C   C340      1.0  0.27918  0.48909  0.69329  1.0000
  C   C341      1.0  0.25304  0.48543  0.75331  1.0000
  C   C342      1.0  0.27795  0.48030  0.73104  1.0000
  H   H267      1.0  0.25248  0.47877  0.78257  1.0000
  H   H268      1.0  0.29617  0.46945  0.74318  1.0000
  C   C343      1.0  0.46957  0.46786  0.70425  1.0000
  Fe  Fe26      1.0  0.01296  0.49885  0.00524  1.0000
  H   H269      1.0  0.40192  0.57204  0.81793  1.0000
  C   C344      1.0  0.38978  0.32917  0.79085  1.0000
  C   C345      1.0  0.46920  0.35751  0.81835  1.0000
  C   C346      1.0  0.35210  0.43348  0.87408  1.0000
  C   C347      1.0  0.33450  0.43258  0.90682  1.0000
  C   C348      1.0  0.34562  0.44028  0.94266  1.0000
  C   C349      1.0  0.37468  0.44881  0.94666  1.0000
  C   C350      1.0  0.39259  0.44967  0.91403  1.0000
  C   C351      1.0  0.38132  0.44206  0.87768  1.0000
  H   H270      1.0  0.31199  0.42593  0.90448  1.0000
  H   H271      1.0  0.33161  0.43942  0.96758  1.0000
  H   H272      1.0  0.41508  0.45584  0.91711  1.0000
  H   H273      1.0  0.39516  0.44270  0.85266  1.0000
  H   H274      1.0  0.20153  0.34396  0.61078  1.0000
  H   H275      1.0  0.21697  0.56102  0.59304  1.0000
  H   H276      1.0  0.00711  0.44709  0.78512  1.0000
  C   C352      1.0  0.25298  0.42593  0.81937  1.0000
  H   H277      1.0  0.25521  0.35399  0.59454  1.0000
  Fe  Fe27      1.0  0.09441  0.52279  0.71888  1.0000
  S   S52       1.0  0.08710  0.56668  0.72490  1.0000
  S   S53       1.0  0.06160  0.48972  0.70597  1.0000
  Fe  Fe28      1.0  0.15881  0.52736  0.74599  1.0000
  S   S54       1.0  0.15589  0.57141  0.75487  1.0000
  S   S55       1.0  0.19766  0.50350  0.76683  1.0000
  Fe  Fe29      1.0  0.11159  0.56287  0.78088  1.0000
  S   S56       1.0  0.09739  0.58058  0.83803  1.0000
  Fe  Fe30      1.0  0.13209  0.57115  0.69826  1.0000
  S   S57       1.0  0.14028  0.59848  0.64745  1.0000
  S   S58       1.0  0.11653  0.51904  0.77606  1.0000
  S   S59       1.0  0.13761  0.52709  0.68797  1.0000
  S   S60       1.0  0.45703  0.50386  0.98965  1.0000
  H   H278      1.0  0.03679  0.42977  0.98646  1.0000
  S   S61       1.0  0.05154  0.50268  0.96484  1.0000
  C   C353      1.0  0.05590  0.52644  0.92833  1.0000
  C   C354      1.0  0.05876  0.51763  0.89030  1.0000
  C   C355      1.0  0.07012  0.53442  0.86199  1.0000
  C   C356      1.0  0.07929  0.56010  0.87160  1.0000
  C   C357      1.0  0.07504  0.56939  0.90922  1.0000
  C   C358      1.0  0.06349  0.55262  0.93751  1.0000
  H   H279      1.0  0.05340  0.49736  0.88310  1.0000
  H   H280      1.0  0.07244  0.52724  0.83299  1.0000
  H   H281      1.0  0.08194  0.58924  0.91690  1.0000
  H   H282      1.0  0.06222  0.55943  0.96691  1.0000
  C   C359      1.0  0.29205  0.63620  0.58152  1.0000
  C   C360      1.0  0.18446  0.63190  0.67466  1.0000
  C   C361      1.0  0.16558  0.62516  0.64444  1.0000
  H   H283      1.0  0.08975  0.38272  0.72578  1.0000
  H   H284      1.0  0.44141  0.39157  0.90287  1.0000
  H   H285      1.0  0.18362  0.62086  0.70104  1.0000
  H   H286      1.0  0.35656  0.36893  0.85738  1.0000
  C   C362      1.0  0.25575  0.50396  0.67841  1.0000
  C   C363      1.0  0.23042  0.50861  0.70055  1.0000
  C   C364      1.0  0.22893  0.49898  0.73795  1.0000
  H   H287      1.0  0.25673  0.51108  0.64933  1.0000
  H   H288      1.0  0.21200  0.51931  0.68859  1.0000
  C   C365      1.0  0.45736  0.48897  0.68389  1.0000
  P   P13       1.0  0.34669  0.64445  0.54791  1.0000
  C   C366      1.0  0.02271  0.49193  0.70459  1.0000
  H   H289      1.0  0.43520  0.48742  0.67286  1.0000
  H   H290      1.0  0.01729  0.45003  0.71357  1.0000
  H   H291      1.0  0.34974  0.56693  0.79869  1.0000
  H   H292      1.0  0.28192  0.61045  0.84266  1.0000
  C   C367      1.0  0.33651  0.35472  0.80572  1.0000
  C   C368      1.0  0.39142  0.38442  0.97381  1.0000
  C   C369      1.0  0.41532  0.39433  0.95354  1.0000
  C   C370      1.0  0.42286  0.38340  0.91800  1.0000
  H   H293      1.0  0.33256  0.54918  0.96614  1.0000
  C   C371      1.0  0.46510  0.55386  0.81131  1.0000
  H   H294      1.0  0.37258  0.52211  0.99442  1.0000
  H   H295      1.0  0.42750  0.41103  0.96502  1.0000
  H   H296      1.0  0.32600  0.52276  0.80045  1.0000
  C   C372      1.0  0.35947  0.35645  0.83231  1.0000
  C   C373      1.0  0.14924  0.37810  0.81610  1.0000
  C   C374      1.0  0.17739  0.37753  0.83212  1.0000
  C   C375      1.0  0.18461  0.39488  0.86206  1.0000
  C   C376      1.0  0.16378  0.41295  0.87583  1.0000
  C   C377      1.0  0.13534  0.41347  0.86018  1.0000
  C   C378      1.0  0.12822  0.39595  0.83009  1.0000
  P   P14       1.0  0.10820  0.43565  0.88038  1.0000
  C   C379      1.0  0.09484  0.42295  0.92550  1.0000
  C   C380      1.0  0.12517  0.46774  0.88675  1.0000
  C   C381      1.0  0.11848  0.48363  0.91868  1.0000
  C   C382      1.0  0.12967  0.50935  0.92180  1.0000
  C   C383      1.0  0.14773  0.51936  0.89313  1.0000
  C   C384      1.0  0.15517  0.50342  0.86173  1.0000
  C   C385      1.0  0.14392  0.47771  0.85842  1.0000
  C   C386      1.0  0.06817  0.43239  0.94050  1.0000
  C   C387      1.0  0.05722  0.42232  0.97480  1.0000
  H   H297      1.0  0.39602  0.63856  0.60351  1.0000
  C   C388      1.0  0.09940  0.39348  0.98011  1.0000
  C   C389      1.0  0.11041  0.40339  0.94566  1.0000
  C   C390      1.0  0.07695  0.43893  0.84857  1.0000
  C   C391      1.0  0.05587  0.41865  0.84652  1.0000
  C   C392      1.0  0.03100  0.42142  0.82325  1.0000
  C   C393      1.0  0.02676  0.44462  0.80236  1.0000
  C   C394      1.0  0.04761  0.46485  0.80417  1.0000
  C   C395      1.0  0.07272  0.46197  0.82690  1.0000
  C   C396      1.0  0.34887  0.59139  0.56945  1.0000
  C   C397      1.0  0.48765  0.37359  0.79655  1.0000
  H   H298      1.0  0.20652  0.39455  0.87428  1.0000
  H   H299      1.0  0.16974  0.42637  0.89897  1.0000
  H   H300      1.0  0.10659  0.39600  0.81728  1.0000
  H   H301      1.0  0.10371  0.47672  0.94053  1.0000
  H   H302      1.0  0.12316  0.52194  0.94565  1.0000
  H   H303      1.0  0.15531  0.53971  0.89472  1.0000
  H   H304      1.0  0.16880  0.51139  0.83921  1.0000
  H   H305      1.0  0.14895  0.46612  0.83301  1.0000
  H   H306      1.0  0.05593  0.44776  0.92590  1.0000
  C   C398      1.0  0.00806  0.51581  0.69761  1.0000
  C   C399      1.0  0.99071  0.57900  0.84462  1.0000
  Fe  Fe31      1.0  0.43316  0.46864  0.01244  1.0000
  H   H307      1.0  0.13093  0.39560  0.93503  1.0000
  H   H308      1.0  0.05851  0.40081  0.86324  1.0000
  H   H309      1.0  0.46785  0.56279  0.71461  1.0000
  C   C400      1.0  0.47455  0.51150  0.67603  1.0000
  H   H310      1.0  0.04425  0.48289  0.78802  1.0000
  H   H311      1.0  0.08828  0.47810  0.82797  1.0000
  C   C401      1.0  0.48106  0.49272  0.81934  1.0000
  H   H312      1.0  0.00865  0.47346  0.91605  1.0000
  H   H313      1.0  0.14363  0.36463  0.79289  1.0000
  H   H314      1.0  0.40632  0.58255  0.95978  1.0000
  C   C402      1.0  0.28288  0.64180  0.70672  1.0000
  C   C403      1.0  0.20438  0.65309  0.67075  1.0000
  H   H315      1.0  0.03175  0.54500  0.76036  1.0000
  C   C404      1.0  0.15470  0.41653  0.72451  1.0000
  H   H316      1.0  0.04917  0.58820  0.78604  1.0000
  C   C405      1.0  0.24437  0.40578  0.75712  1.0000
  C   C406      1.0  0.45226  0.40930  0.80073  1.0000
  H   H317      1.0  0.25259  0.39377  0.73363  1.0000
  C   C407      1.0  0.22519  0.43758  0.81798  1.0000
  C   C408      1.0  0.45871  0.48662  0.88150  1.0000
  H   H318      1.0  0.28415  0.40123  0.79003  1.0000
  H   H319      1.0  0.21805  0.45064  0.84093  1.0000
  H   H320      1.0  0.26758  0.42978  0.84339  1.0000
  H   H321      1.0  0.44536  0.42917  0.79319  1.0000
  C   C409      1.0  0.37537  0.36308  0.95895  1.0000
  C   C410      1.0  0.20688  0.43321  0.78633  1.0000
  C   C411      1.0  0.20501  0.35771  0.72025  1.0000
  H   H322      1.0  0.48514  0.50434  0.79401  1.0000
  C   C412      1.0  0.00613  0.46866  0.70892  1.0000
  C   C413      1.0  0.19721  0.37346  0.65563  1.0000
  H   H323      1.0  0.39480  0.55528  0.62572  1.0000
  H   H324      1.0  0.02056  0.53374  0.69327  1.0000
  H   H325      1.0  0.46552  0.52731  0.65891  1.0000
  H   H326      1.0  0.01462  0.40587  0.82200  1.0000
  C   C414      1.0  0.30848  0.64725  0.00153  1.0000
  C   C415      1.0  0.45204  0.57295  0.96672  1.0000
  C   C416      1.0  0.42546  0.57364  0.94662  1.0000
  C   C417      1.0  0.22417  0.57312  0.65148  1.0000
  C   C418      1.0  0.34015  0.34034  0.77170  1.0000
  C   C419      1.0  0.26316  0.56527  0.60589  1.0000
  C   C420      1.0  0.28401  0.57179  0.63396  1.0000
  C   C421      1.0  0.27511  0.57851  0.67121  1.0000
  C   C422      1.0  0.24494  0.57965  0.67956  1.0000
  P   P15       1.0  0.30181  0.58947  0.70628  1.0000
  C   C423      1.0  0.28797  0.58281  0.75353  1.0000
  C   C424      1.0  0.33600  0.57132  0.70407  1.0000
  C   C425      1.0  0.33652  0.54516  0.69024  1.0000
  C   C426      1.0  0.36260  0.53047  0.69091  1.0000
  C   C427      1.0  0.38832  0.54172  0.70558  1.0000
  C   C428      1.0  0.38794  0.56768  0.71986  1.0000
  C   C429      1.0  0.36178  0.58226  0.71976  1.0000
  C   C430      1.0  0.27479  0.55827  0.76097  1.0000
  S   S62       1.0  0.47206  0.44131  0.01047  1.0000
  C   C431      1.0  0.26614  0.57168  0.82669  1.0000
  C   C432      1.0  0.28000  0.59589  0.81981  1.0000
  C   C433      1.0  0.29100  0.60145  0.78336  1.0000
  H   H327      1.0  0.20091  0.57386  0.65817  1.0000
  H   H328      1.0  0.35122  0.54990  0.58385  1.0000
  C   C434      1.0  0.47910  0.39943  0.78760  1.0000
  H   H329      1.0  0.30701  0.57168  0.62664  1.0000
  H   H330      1.0  0.23725  0.58571  0.70761  1.0000
  H   H331      1.0  0.31666  0.53587  0.67966  1.0000
  H   H332      1.0  0.36274  0.51016  0.68045  1.0000
  H   H333      1.0  0.40839  0.53013  0.70616  1.0000
  H   H334      1.0  0.40777  0.57632  0.73173  1.0000
  H   H335      1.0  0.36159  0.60189  0.73252  1.0000
  C   C435      1.0  0.01554  0.59089  0.82889  1.0000
  H   H336      1.0  0.25717  0.56749  0.85470  1.0000
  H   H337      1.0  0.15231  0.63481  0.58695  1.0000
  C   C436      1.0  0.24588  0.63526  0.54702  1.0000
  C   C437      1.0  0.11419  0.44528  0.74292  1.0000
  C   C438      1.0  0.14396  0.44167  0.73505  1.0000
  C   C439      1.0  0.20474  0.43413  0.67599  1.0000
  C   C440      1.0  0.18434  0.44989  0.65612  1.0000
  C   C441      1.0  0.19337  0.46539  0.62533  1.0000
  C   C442      1.0  0.22260  0.46473  0.61338  1.0000
  C   C443      1.0  0.24287  0.44874  0.63243  1.0000
  C   C444      1.0  0.23412  0.43376  0.66387  1.0000
  H   H338      1.0  0.10601  0.46476  0.75050  1.0000
  H   H339      1.0  0.15844  0.45872  0.73623  1.0000
  H   H340      1.0  0.18579  0.44283  0.78618  1.0000
  H   H341      1.0  0.32998  0.58859  0.55088  1.0000
  H   H342      1.0  0.16138  0.45019  0.66375  1.0000
  H   H343      1.0  0.17762  0.47789  0.61071  1.0000
  H   H344      1.0  0.22966  0.47683  0.58967  1.0000
  H   H345      1.0  0.26565  0.44844  0.62350  1.0000
  H   H346      1.0  0.34866  0.62143  0.67052  1.0000
  C   C445      1.0  0.23324  0.56591  0.61469  1.0000
  C   C446      1.0  0.47662  0.56097  0.95013  1.0000
  C   C447      1.0  0.26363  0.55286  0.79729  1.0000
  H   H347      1.0  0.35690  0.35536  0.97478  1.0000
  C   C448      1.0  0.30723  0.64066  0.54722  1.0000
  C   C449      1.0  0.21629  0.41731  0.75542  1.0000
  C   C450      1.0  0.27251  0.34142  0.60544  1.0000
  H   H348      1.0  0.46859  0.44975  0.90939  1.0000
  H   H349      1.0  0.41676  0.59971  0.63581  1.0000
  C   C451      1.0  0.46337  0.50244  0.84927  1.0000
  C   C452      1.0  0.47453  0.54927  0.91377  1.0000
  P   P16       1.0  0.44573  0.53444  0.84635  1.0000
  C   C453      1.0  0.44803  0.55010  0.89314  1.0000
  C   C454      1.0  0.43384  0.39333  0.82252  1.0000
  H   H350      1.0  0.41263  0.40092  0.83135  1.0000
  C   C455      1.0  0.02980  0.57899  0.79787  1.0000
  C   C456      1.0  0.99497  0.54286  0.79873  1.0000
  H   H351      1.0  0.44528  0.49379  0.90492  1.0000
  C   C457      1.0  0.45745  0.55147  0.77245  1.0000
  H   H352      1.0  0.30371  0.63516  0.60842  1.0000
  C   C458      1.0  0.42341  0.56227  0.90998  1.0000
  C   C459      1.0  0.40779  0.53062  0.83159  1.0000
  C   C460      1.0  0.39399  0.50578  0.83287  1.0000
  C   C461      1.0  0.36457  0.50306  0.82190  1.0000
  C   C462      1.0  0.34871  0.52506  0.80933  1.0000
  C   C463      1.0  0.36219  0.54991  0.80817  1.0000
  C   C464      1.0  0.39168  0.55269  0.81905  1.0000
  H   H353      1.0  0.25032  0.42172  0.67829  1.0000
  C   C465      1.0  0.47319  0.56522  0.74468  1.0000
  C   C466      1.0  0.33123  0.63449  0.67987  1.0000
  C   C467      1.0  0.40651  0.36227  0.90253  1.0000
  H   H354      1.0  0.44007  0.53818  0.76348  1.0000
  C   C468      1.0  0.36084  0.56939  0.58800  1.0000
  C   C469      1.0  0.19903  0.37869  0.69519  1.0000
  H   H355      1.0  0.20595  0.36112  0.75084  1.0000
  H   H356      1.0  0.02434  0.60898  0.84127  1.0000
  H   H357      1.0  0.40247  0.56263  0.89541  1.0000
  H   H358      1.0  0.40581  0.48844  0.84221  1.0000
  H   H359      1.0  0.35408  0.48376  0.82299  1.0000
  C   C470      1.0  0.36137  0.61666  0.57442  1.0000
  H   H360      1.0  0.14312  0.46218  0.99039  1.0000
  H   H361      1.0  0.19210  0.38911  0.63565  1.0000
  H   H362      1.0  0.24982  0.63070  0.60807  1.0000
  C   C471      1.0  0.13492  0.39521  0.72149  1.0000
  C   C472      1.0  0.29524  0.35273  0.62779  1.0000
  H   H363      1.0  0.29521  0.37375  0.63413  1.0000
  C   C473      1.0  0.31799  0.33677  0.64170  1.0000
  H   H364      1.0  0.27014  0.55990  0.57725  1.0000
  H   H365      1.0  0.45349  0.58108  0.99554  1.0000
  C   C474      1.0  0.30610  0.62450  0.69797  1.0000
  C   C475      1.0  0.26241  0.40988  0.78910  1.0000
  H   H366      1.0  0.31627  0.36539  0.81095  1.0000
  C   C476      1.0  0.38613  0.34327  0.82538  1.0000
  H   H367      1.0  0.47577  0.33730  0.82383  1.0000
  C   C477      1.0  0.39770  0.59747  0.61736  1.0000
  P   P17       1.0  0.41690  0.34695  0.85771  1.0000
  C   C478      1.0  0.44226  0.36744  0.83180  1.0000
  C   C479      1.0  0.38532  0.57242  0.61180  1.0000
  H   H368      1.0  0.27277  0.54341  0.73854  1.0000
  H   H369      1.0  0.14230  0.37568  0.71284  1.0000
  H   H370      1.0  0.26276  0.63433  0.71909  1.0000
  C   C480      1.0  0.16686  0.63986  0.61041  1.0000
  C   C481      1.0  0.26151  0.63357  0.58139  1.0000
  H   H371      1.0  0.25264  0.53414  0.80244  1.0000
  H   H372      1.0  0.22215  0.63368  0.54712  1.0000
  C   C482      1.0  0.10502  0.39905  0.72891  1.0000
  H   H373      1.0  0.37064  0.33513  0.91258  1.0000
  P   P18       1.0  0.19324  0.41198  0.71354  1.0000
  C   C483      1.0  0.09467  0.42410  0.73955  1.0000
  H   H374      1.0  0.07143  0.42738  0.74438  1.0000
  H   H375      1.0  0.11152  0.37853  0.99570  1.0000
  H   H376      1.0  0.30169  0.62027  0.77854  1.0000
  C   C484      1.0  0.34662  0.55773  0.98807  1.0000
  C   C485      1.0  0.07274  0.40286  0.99457  1.0000
  H   H377      1.0  0.38521  0.39358  0.00082  1.0000
  C   C486      1.0  0.38307  0.35183  0.92362  1.0000
  H   H378      1.0  0.19366  0.36371  0.82133  1.0000
  C   C487      1.0  0.21039  0.33219  0.70581  1.0000
  H   H379      1.0  0.41453  0.62315  0.01309  1.0000
  C   C488      1.0  0.99178  0.47638  0.89461  1.0000
  C   C489      1.0  0.01987  0.55476  0.78327  1.0000
  C   C490      1.0  0.20233  0.34788  0.64138  1.0000
  H   H380      1.0  0.32274  0.33975  0.75044  1.0000
  H   H381      1.0  0.32460  0.59528  0.98794  1.0000
  C   C491      1.0  0.13598  0.45343  0.01698  1.0000
  H   H382      1.0  0.30644  0.34484  0.53311  1.0000
  H   H383      1.0  0.99169  0.51865  0.90176  1.0000
  H   H384      1.0  0.09181  0.46876  0.01239  1.0000
  H   H385      1.0  0.46963  0.33309  0.90021  1.0000
  C   C492      1.0  0.36680  0.32760  0.76426  1.0000
  C   C493      1.0  0.20928  0.32734  0.66636  1.0000
  C   C494      1.0  0.34220  0.58391  0.00058  1.0000
  C   C495      1.0  0.36910  0.54242  0.00400  1.0000
  C   C496      1.0  0.33903  0.64792  0.00730  1.0000
  H   H386      1.0  0.37041  0.33639  0.51972  1.0000
  H   H387      1.0  0.12867  0.64257  0.52012  1.0000
  C   C497      1.0  0.45992  0.91246  0.21304  1.0000
  S   S63       1.0  0.32457  0.65841  0.23801  1.0000
  H   H388      1.0  0.04499  0.66228  0.09231  1.0000
  S   S64       1.0  0.37750  0.69095  0.19488  1.0000
  H   H389      1.0  0.45430  0.71090  0.19805  1.0000
  S   S65       1.0  0.35146  0.71194  0.27772  1.0000
  C   C498      1.0  0.04317  0.68209  0.21359  1.0000
  Fe  Fe32      1.0  0.33307  0.70034  0.22057  1.0000
  S   S66       1.0  0.30188  0.73105  0.19575  1.0000
  Fe  Fe33      1.0  0.39523  0.69990  0.25387  1.0000
  S   S67       1.0  0.43126  0.72830  0.27250  1.0000
  Fe  Fe34      1.0  0.11949  0.80813  0.27976  1.0000
  S   S68       1.0  0.11102  0.76486  0.27342  1.0000
  S   S69       1.0  0.13643  0.82457  0.33662  1.0000
  Fe  Fe35      1.0  0.09864  0.81871  0.19787  1.0000
  S   S70       1.0  0.08935  0.77534  0.18610  1.0000
  S   S71       1.0  0.09572  0.84910  0.14994  1.0000
  Fe  Fe36      1.0  0.06898  0.77623  0.24460  1.0000
  S   S72       1.0  0.03066  0.75220  0.26647  1.0000
  Fe  Fe37      1.0  0.13246  0.76760  0.21616  1.0000
  S   S73       1.0  0.16223  0.73237  0.20269  1.0000
  S   S74       1.0  0.07558  0.81988  0.25492  1.0000
  S   S75       1.0  0.14342  0.81070  0.22360  1.0000
  H   H390      1.0  0.36908  0.83236  0.23559  1.0000
  C   C499      1.0  0.07933  0.67206  0.34710  1.0000
  S   S76       1.0  0.17663  0.74227  0.46264  1.0000
  C   C500      1.0  0.16046  0.66595  0.34912  1.0000
  S   S77       1.0  0.31745  0.73903  0.48685  1.0000
  H   H391      1.0  0.99224  0.78491  0.11772  1.0000
  C   C501      1.0  0.15091  0.80228  0.37082  1.0000
  C   C502      1.0  0.15827  0.77622  0.36081  1.0000
  C   C503      1.0  0.16803  0.75846  0.38895  1.0000
  C   C504      1.0  0.17084  0.76658  0.42726  1.0000
  C   C505      1.0  0.16483  0.79298  0.43711  1.0000
  C   C506      1.0  0.15473  0.81071  0.40897  1.0000
  H   H392      1.0  0.15611  0.76964  0.33148  1.0000
  H   H393      1.0  0.17276  0.73812  0.38126  1.0000
  H   H394      1.0  0.16638  0.79934  0.46670  1.0000
  H   H395      1.0  0.14884  0.83076  0.41702  1.0000
  C   C507      1.0  0.46372  0.73553  0.24717  1.0000
  H   H396      1.0  0.41439  0.84648  0.20358  1.0000
  C   C508      1.0  0.21141  0.84782  0.46541  1.0000
  H   H397      1.0  0.00205  0.84885  0.31682  1.0000
  H   H398      1.0  0.04562  0.77728  0.11137  1.0000
  H   H399      1.0  0.02148  0.68660  0.22460  1.0000
  C   C509      1.0  0.18970  0.89943  0.47437  1.0000
  H   H400      1.0  0.46654  0.67307  0.08659  1.0000
  H   H401      1.0  0.00477  0.78397  0.20568  1.0000
  S   S78       1.0  0.99404  0.93366  0.11840  1.0000
  C   C510      1.0  0.26335  0.73134  0.20324  1.0000
  C   C511      1.0  0.24812  0.75561  0.20224  1.0000
  C   C512      1.0  0.21720  0.75638  0.20391  1.0000
  C   C513      1.0  0.20117  0.73278  0.20539  1.0000
  C   C514      1.0  0.21643  0.70855  0.20722  1.0000
  C   C515      1.0  0.24738  0.70783  0.20674  1.0000
  H   H402      1.0  0.26026  0.77390  0.19938  1.0000
  H   H403      1.0  0.20575  0.77515  0.20247  1.0000
  H   H404      1.0  0.20421  0.69021  0.20834  1.0000
  H   H405      1.0  0.25880  0.68903  0.20730  1.0000
  C   C516      1.0  0.32015  0.68120  0.38522  1.0000
  C   C517      1.0  0.30163  0.67622  0.41635  1.0000
  C   C518      1.0  0.29932  0.69467  0.44664  1.0000
  C   C519      1.0  0.31633  0.71769  0.44660  1.0000
  C   C520      1.0  0.33440  0.72287  0.41516  1.0000
  C   C521      1.0  0.33594  0.70490  0.38426  1.0000
  H   H406      1.0  0.28520  0.69065  0.47063  1.0000
  H   H407      1.0  0.34734  0.74073  0.41487  1.0000
  H   H408      1.0  0.35017  0.70884  0.36040  1.0000
  C   C522      1.0  0.06721  0.87254  0.14203  1.0000
  C   C523      1.0  0.06979  0.89031  0.11138  1.0000
  C   C524      1.0  0.04744  0.90886  0.10338  1.0000
  C   C525      1.0  0.02239  0.91009  0.12638  1.0000
  C   C526      1.0  0.01981  0.89237  0.15710  1.0000
  C   C527      1.0  0.04204  0.87362  0.16486  1.0000
  H   H409      1.0  0.08917  0.88965  0.09359  1.0000
  H   H410      1.0  0.04974  0.92240  0.07973  1.0000
  S   S79       1.0  0.24628  0.77774  0.50616  1.0000
  H   H411      1.0  0.03979  0.86013  0.18854  1.0000
  H   H412      1.0  0.27119  0.86608  0.42299  1.0000
  H   H413      1.0  0.42224  0.68472  0.12425  1.0000
  C   C528      1.0  0.98931  0.76878  0.21386  1.0000
  C   C529      1.0  0.42855  0.75456  0.43275  1.0000
  H   H414      1.0  0.07697  0.81085  0.08014  1.0000
  C   C530      1.0  0.09624  0.72275  0.38207  1.0000
  C   C531      1.0  0.11451  0.67327  0.41979  1.0000
  C   C532      1.0  0.36664  0.66784  0.48052  1.0000
  H   H415      1.0  0.44133  0.88769  0.30677  1.0000
  C   C533      1.0  0.43050  0.71889  0.37104  1.0000
  C   C534      1.0  0.21074  0.85967  0.50175  1.0000
  C   C535      1.0  0.14062  0.67877  0.43988  1.0000
  H   H416      1.0  0.29260  0.84463  0.48047  1.0000
  H   H417      1.0  0.00055  0.89326  0.17510  1.0000
  C   C536      1.0  0.40668  0.75515  0.40465  1.0000
  C   C537      1.0  0.40763  0.73726  0.37389  1.0000
  C   C538      1.0  0.99703  0.75031  0.24179  1.0000
  C   C539      1.0  0.99295  0.82294  0.08940  1.0000
  H   H418      1.0  0.99837  0.80672  0.27995  1.0000
  Fe  Fe38      1.0  0.99011  0.96173  0.06762  1.0000
  H   H419      1.0  0.44197  0.68499  0.45701  1.0000
  C   C540      1.0  0.46988  0.72433  0.21127  1.0000
  C   C541      1.0  0.00558  0.79942  0.10314  1.0000
  H   H420      1.0  0.04387  0.68969  0.37973  1.0000
  H   H421      1.0  0.39085  0.73767  0.35182  1.0000
  C   C542      1.0  0.47189  0.85684  0.18956  1.0000
  C   C543      1.0  0.47708  0.66729  0.42350  1.0000
  C   C544      1.0  0.40002  0.86725  0.30909  1.0000
  H   H422      1.0  0.46863  0.73636  0.45156  1.0000
  H   H423      1.0  0.99369  0.83181  0.16476  1.0000
  C   C545      1.0  0.20134  0.86173  0.43355  1.0000
  C   C546      1.0  0.44538  0.66492  0.07850  1.0000
  C   C547      1.0  0.17450  0.70802  0.30099  1.0000
  C   C548      1.0  0.42042  0.67150  0.09972  1.0000
  H   H424      1.0  0.20145  0.85234  0.40546  1.0000
  C   C549      1.0  0.19321  0.68615  0.30325  1.0000
  H   H425      1.0  0.07477  0.72637  0.32675  1.0000
  H   H426      1.0  0.38895  0.76941  0.40678  1.0000
  H   H427      1.0  0.16549  0.67284  0.49164  1.0000
  C   C550      1.0  0.07219  0.76264  0.35884  1.0000
  H   H428      1.0  0.12158  0.66705  0.17598  1.0000
  H   H429      1.0  0.17998  0.72446  0.28257  1.0000
  C   C551      1.0  0.09514  0.76281  0.42131  1.0000
  H   H430      1.0  0.27146  0.68970  0.31694  1.0000
  C   C552      1.0  0.09375  0.65619  0.43602  1.0000
  H   H431      1.0  0.06059  0.77300  0.33629  1.0000
  H   H432      1.0  0.07468  0.79693  0.39579  1.0000
  H   H433      1.0  0.18212  0.89798  0.41330  1.0000
  H   H434      1.0  0.30485  0.77263  0.41644  1.0000
  C   C553      1.0  0.37959  0.85173  0.28912  1.0000
  C   C554      1.0  0.10321  0.73626  0.41625  1.0000
  H   H435      1.0  0.42766  0.76830  0.45674  1.0000
  H   H436      1.0  0.10174  0.77335  0.44709  1.0000
  H   H437      1.0  0.26658  0.84112  0.36231  1.0000
  H   H438      1.0  0.28985  0.73409  0.30221  1.0000
  C   C555      1.0  0.06764  0.69421  0.23055  1.0000
  H   H439      1.0  0.06486  0.70778  0.25441  1.0000
  C   C556      1.0  0.04971  0.67673  0.35603  1.0000
  H   H440      1.0  0.21318  0.68568  0.28643  1.0000
  C   C557      1.0  0.19043  0.88747  0.43803  1.0000
  C   C558      1.0  0.19996  0.88565  0.50655  1.0000
  P   P19       1.0  0.10785  0.68877  0.37409  1.0000
  H   H441      1.0  0.18075  0.91919  0.47715  1.0000
  H   H442      1.0  0.11568  0.72685  0.43870  1.0000
  H   H443      1.0  0.21938  0.82766  0.46199  1.0000
  H   H444      1.0  0.30960  0.79793  0.47671  1.0000
  C   C559      1.0  0.43150  0.86793  0.25294  1.0000
  C   C560      1.0  0.43796  0.92898  0.22843  1.0000
  H   H445      1.0  0.43065  0.70530  0.34692  1.0000
  C   C561      1.0  0.01083  0.84174  0.07147  1.0000
  C   C562      1.0  0.02742  0.66526  0.33381  1.0000
  H   H446      1.0  0.15681  0.69214  0.42809  1.0000
  H   H447      1.0  0.00194  0.86037  0.06150  1.0000
  H   H448      1.0  0.45709  0.84978  0.09418  1.0000
  C   C563      1.0  0.45168  0.73641  0.42971  1.0000
  C   C564      1.0  0.20612  0.80810  0.28725  1.0000
  C   C565      1.0  0.21529  0.82826  0.26290  1.0000
  C   C566      1.0  0.24486  0.83548  0.26182  1.0000
  C   C567      1.0  0.26526  0.82255  0.28516  1.0000
  C   C568      1.0  0.25622  0.80199  0.30930  1.0000
  C   C569      1.0  0.22641  0.79506  0.31049  1.0000
  P   P20       1.0  0.28232  0.78611  0.34058  1.0000
  C   C570      1.0  0.26898  0.75322  0.35100  1.0000
  C   C571      1.0  0.31729  0.78377  0.31622  1.0000
  C   C572      1.0  0.34382  0.78757  0.33619  1.0000
  C   C573      1.0  0.37067  0.78576  0.31690  1.0000
  C   C574      1.0  0.37127  0.77997  0.27773  1.0000
  C   C575      1.0  0.34499  0.77645  0.25760  1.0000
  C   C576      1.0  0.31814  0.77821  0.27672  1.0000
  C   C577      1.0  0.25034  0.74916  0.38245  1.0000
  C   C578      1.0  0.23967  0.72384  0.39034  1.0000
  C   C579      1.0  0.24724  0.70244  0.36674  1.0000
  C   C580      1.0  0.26525  0.70637  0.33500  1.0000
  C   C581      1.0  0.27603  0.73165  0.32703  1.0000
  C   C582      1.0  0.28577  0.80501  0.38463  1.0000
  C   C583      1.0  0.27626  0.83149  0.38687  1.0000
  C   C584      1.0  0.27885  0.84576  0.42128  1.0000
  C   C585      1.0  0.29092  0.83373  0.45365  1.0000
  C   C586      1.0  0.30053  0.80746  0.45156  1.0000
  C   C587      1.0  0.29783  0.79312  0.41730  1.0000
  H   H449      1.0  0.18318  0.80261  0.28836  1.0000
  H   H450      1.0  0.19940  0.83836  0.24500  1.0000
  H   H451      1.0  0.25190  0.85113  0.24291  1.0000
  H   H452      1.0  0.28804  0.82861  0.28435  1.0000
  H   H453      1.0  0.21863  0.77967  0.32929  1.0000
  H   H454      1.0  0.34392  0.79166  0.36661  1.0000
  H   H455      1.0  0.39116  0.78839  0.33230  1.0000
  H   H456      1.0  0.39212  0.77769  0.26309  1.0000
  H   H457      1.0  0.34539  0.77130  0.22736  1.0000
  H   H458      1.0  0.29806  0.77460  0.26071  1.0000
  H   H459      1.0  0.24379  0.76551  0.40084  1.0000
  H   H460      1.0  0.22559  0.72084  0.41489  1.0000
  H   H461      1.0  0.23944  0.68275  0.37329  1.0000
  C   C588      1.0  0.07991  0.77608  0.39248  1.0000
  C   C589      1.0  0.14167  0.68803  0.34716  1.0000
  H   H462      1.0  0.01240  0.70605  0.15385  1.0000
  C   C590      1.0  0.08033  0.73612  0.35356  1.0000
  C   C591      1.0  0.14866  0.70875  0.32241  1.0000
  C   C592      1.0  0.41077  0.85241  0.23305  1.0000
  C   C593      1.0  0.04090  0.83697  0.06728  1.0000
  H   H463      1.0  0.13449  0.72576  0.32017  1.0000
  C   C594      1.0  0.38494  0.84437  0.25111  1.0000
  H   H464      1.0  0.35960  0.84536  0.30305  1.0000
  C   C595      1.0  0.43432  0.95484  0.21493  1.0000
  Fe  Fe39      1.0  0.34589  0.66964  0.29380  1.0000
  C   C596      1.0  0.09579  0.68891  0.21683  1.0000
  H   H465      1.0  0.11464  0.69873  0.22966  1.0000
  S   S80       1.0  0.39129  0.65800  0.27516  1.0000
  C   C597      1.0  0.48178  0.82187  0.12790  1.0000
  P   P21       1.0  0.46476  0.87879  0.22966  1.0000
  H   H466      1.0  0.44798  0.88038  0.14809  1.0000
  Fe  Fe40      1.0  0.20989  0.74816  0.51004  1.0000
  H   H467      1.0  0.39584  0.87303  0.33854  1.0000
  C   C598      1.0  0.29831  0.65508  0.12796  1.0000
  C   C599      1.0  0.45535  0.66759  0.45199  1.0000
  C   C600      1.0  0.14564  0.66781  0.47594  1.0000
  C   C601      1.0  0.46557  0.84508  0.12236  1.0000
  H   H468      1.0  0.00462  0.66936  0.34034  1.0000
  C   C602      1.0  0.03575  0.79498  0.09954  1.0000
  C   C603      1.0  0.47122  0.65588  0.29281  1.0000
  C   C604      1.0  0.04678  0.66432  0.18277  1.0000
  C   C605      1.0  0.48415  0.75285  0.26416  1.0000
  H   H469      1.0  0.38193  0.68599  0.42868  1.0000
  C   C606      1.0  0.45299  0.71864  0.39854  1.0000
  H   H470      1.0  0.45332  0.65474  0.34948  1.0000
  H   H471      1.0  0.05476  0.85178  0.05424  1.0000
  C   C607      1.0  0.46061  0.86252  0.15303  1.0000
  C   C608      1.0  0.42582  0.87543  0.29106  1.0000
  C   C609      1.0  0.05341  0.81379  0.08171  1.0000
  C   C610      1.0  0.09964  0.67103  0.18652  1.0000
  H   H472      1.0  0.36168  0.68683  0.49375  1.0000
  C   C611      1.0  0.46918  0.66418  0.33104  1.0000
  C   C612      1.0  0.99140  0.69751  0.14615  1.0000
  H   H473      1.0  0.47961  0.76143  0.29203  1.0000
  C   C613      1.0  0.37780  0.66752  0.44328  1.0000
  C   C614      1.0  0.18617  0.66507  0.32726  1.0000
  H   H474      1.0  0.42344  0.92203  0.25056  1.0000
  H   H475      1.0  0.28911  0.65804  0.41701  1.0000
  S   S81       1.0  0.32425  0.65697  0.34894  1.0000
  P   P22       1.0  0.48358  0.69601  0.39414  1.0000
  C   C615      1.0  0.08629  0.65551  0.31583  1.0000
  C   C616      1.0  0.45257  0.96444  0.18611  1.0000
  H   H476      1.0  0.37439  0.66545  0.10754  1.0000
  C   C617      1.0  0.39319  0.66047  0.09004  1.0000
  H   H477      1.0  0.31882  0.67122  0.07822  1.0000
  C   C618      1.0  0.47845  0.92250  0.18462  1.0000
  C   C619      1.0  0.47464  0.94826  0.17101  1.0000
  H   H478      1.0  0.41724  0.96746  0.22663  1.0000
  H   H479      1.0  0.28735  0.67351  0.13553  1.0000
  C   C620      1.0  0.48682  0.68504  0.34487  1.0000
  H   H480      1.0  0.47753  0.84466  0.29564  1.0000
  H   H481      1.0  0.44966  0.98439  0.17534  1.0000
  H   H482      1.0  0.48572  0.80842  0.10413  1.0000
  C   C621      1.0  0.07530  0.65847  0.16985  1.0000
  C   C622      1.0  0.48771  0.83325  0.19499  1.0000
  Fe  Fe41      1.0  0.35642  0.92570  0.68040  1.0000
  S   S82       1.0  0.35034  0.96792  0.66126  1.0000
  S   S83       1.0  0.35345  0.89108  0.63843  1.0000
  Fe  Fe42      1.0  0.37750  0.94240  0.75993  1.0000
  C   C623      1.0  0.28511  0.66880  0.69855  1.0000
  S   S84       1.0  0.39576  0.92761  0.81636  1.0000
  Fe  Fe43      1.0  0.33019  0.97453  0.71919  1.0000
  H   H483      1.0  0.22985  0.84922  0.83079  1.0000
  Fe  Fe44      1.0  0.39373  0.97559  0.69028  1.0000
  C   C624      1.0  0.17513  0.92932  0.55635  1.0000
  S   S85       1.0  0.33281  0.93160  0.73650  1.0000
  S   S86       1.0  0.40149  0.93309  0.70527  1.0000
  C   C625      1.0  0.25776  0.80209  0.74449  1.0000
  C   C626      1.0  0.24951  0.97441  0.70125  1.0000
  C   C627      1.0  0.19431  0.87458  0.74868  1.0000
  Fe  Fe45      1.0  0.24133  0.78227  0.56991  1.0000
  S   S87       1.0  0.27320  0.74992  0.58364  1.0000
  S   S88       1.0  0.24030  0.82128  0.60296  1.0000
  Fe  Fe46      1.0  0.23412  0.72248  0.58275  1.0000
  S   S89       1.0  0.23187  0.69365  0.63274  1.0000
  C   C628      1.0  0.22949  0.92041  0.85038  1.0000
  H   H484      1.0  0.41693  0.71528  0.58313  1.0000
  H   H485      1.0  0.15724  0.96559  0.76390  1.0000
  H   H486      1.0  0.15781  0.81944  0.65326  1.0000
  H   H487      1.0  0.21840  0.84842  0.52621  1.0000
  H   H488      1.0  0.26903  0.95697  0.62548  1.0000
  C   C629      1.0  0.36254  0.85651  0.72825  1.0000
  H   H489      1.0  0.35307  0.66927  0.65862  1.0000
  H   H490      1.0  0.26625  0.95992  0.69446  1.0000
  H   H491      1.0  0.26679  0.68198  0.70440  1.0000
  C   C630      1.0  0.15273  0.94549  0.96570  1.0000
  H   H492      1.0  0.17090  0.87137  0.75121  1.0000
  S   S90       1.0  0.20175  0.75547  0.57289  1.0000
  H   H493      1.0  0.30515  0.81831  0.69942  1.0000
  C   C631      1.0  0.40389  0.95120  0.85276  1.0000
  C   C632      1.0  0.42055  0.94358  0.88477  1.0000
  C   C633      1.0  0.42780  0.96212  0.91370  1.0000
  C   C634      1.0  0.33552  0.69267  0.58613  1.0000
  H   H494      1.0  0.30285  0.68964  0.92657  1.0000
  H   H495      1.0  0.13960  0.82147  0.58636  1.0000
  H   H496      1.0  0.42797  0.92330  0.88718  1.0000
  H   H497      1.0  0.44064  0.95607  0.93825  1.0000
  H   H498      1.0  0.22953  0.78021  0.65917  1.0000
  H   H499      1.0  0.47448  0.93410  0.84952  1.0000
  C   C635      1.0  0.32209  0.87114  0.63058  1.0000
  C   C636      1.0  0.29558  0.87611  0.64937  1.0000
  C   C637      1.0  0.27085  0.86035  0.64117  1.0000
  C   C638      1.0  0.27239  0.83949  0.61424  1.0000
  C   C639      1.0  0.29908  0.83415  0.59613  1.0000
  C   C640      1.0  0.32381  0.84997  0.60423  1.0000
  H   H500      1.0  0.29407  0.89239  0.66959  1.0000
  H   H501      1.0  0.25046  0.86443  0.65569  1.0000
  H   H502      1.0  0.30055  0.81815  0.57539  1.0000
  H   H503      1.0  0.34430  0.84600  0.58966  1.0000
  C   C641      1.0  0.20562  0.66781  0.63674  1.0000
  C   C642      1.0  0.11736  0.90878  0.76084  1.0000
  C   C643      1.0  0.12607  0.89779  0.79571  1.0000
  C   C644      1.0  0.14602  0.91130  0.81937  1.0000
  C   C645      1.0  0.24444  0.85842  0.75486  1.0000
  H   H504      1.0  0.20899  0.88957  0.63557  1.0000
  H   H505      1.0  0.12399  0.94773  0.87602  1.0000
  C   C646      1.0  0.24662  0.80284  0.70693  1.0000
  H   H506      1.0  0.15257  0.90254  0.84629  1.0000
  H   H507      1.0  0.35439  0.83197  0.67870  1.0000
  P   P23       1.0  0.18149  0.95426  0.83987  1.0000
  C   C647      1.0  0.27570  0.92446  0.81672  1.0000
  C   C648      1.0  0.26393  0.94506  0.79501  1.0000
  C   C649      1.0  0.23497  0.95334  0.80088  1.0000
  H   H508      1.0  0.25839  0.88118  0.53521  1.0000
  C   C650      1.0  0.12882  0.93314  0.74947  1.0000
  H   H509      1.0  0.24484  0.82142  0.69179  1.0000
  H   H510      1.0  0.46555  0.96160  0.67477  1.0000
  H   H511      1.0  0.23370  0.73710  0.69201  1.0000
  H   H512      1.0  0.31489  0.86685  0.80135  1.0000
  C   C651      1.0  0.27074  0.82846  0.81923  1.0000
  C   C652      1.0  0.27389  0.82308  0.89921  1.0000
  C   C653      1.0  0.26034  0.77751  0.76284  1.0000
  C   C654      1.0  0.29127  0.92823  0.59026  1.0000
  H   H513      1.0  0.36420  0.88017  0.77982  1.0000
  H   H514      1.0  0.10167  0.89852  0.74262  1.0000
  H   H515      1.0  0.11715  0.87891  0.80454  1.0000
  H   H516      1.0  0.31307  0.93464  0.59888  1.0000
  H   H517      1.0  0.21385  0.95119  0.67786  1.0000
  C   C655      1.0  0.17055  0.94968  0.88904  1.0000
  C   C656      1.0  0.21800  0.94194  0.82990  1.0000
  C   C657      1.0  0.18251  0.94827  0.95692  1.0000
  C   C658      1.0  0.24840  0.83879  0.84274  1.0000
  C   C659      1.0  0.13181  0.94516  0.93636  1.0000
  H   H518      1.0  0.21940  0.94132  0.60782  1.0000
  H   H519      1.0  0.31181  0.69961  0.67473  1.0000
  C   C660      1.0  0.24999  0.83602  0.88253  1.0000
  C   C661      1.0  0.20476  0.89873  0.73502  1.0000
  C   C662      1.0  0.31792  0.83123  0.71790  1.0000
  C   C663      1.0  0.25472  0.88274  0.74114  1.0000
  C   C664      1.0  0.21403  0.85430  0.75794  1.0000
  H   H520      1.0  0.30745  0.89697  0.55382  1.0000
  C   C665      1.0  0.14064  0.94740  0.89822  1.0000
  C   C666      1.0  0.26643  0.94057  0.60557  1.0000
  H   H521      1.0  0.37925  0.74437  0.61284  1.0000
  C   C667      1.0  0.25157  0.75417  0.74403  1.0000
  H   H522      1.0  0.32738  0.73009  0.61439  1.0000
  H   H523      1.0  0.31233  0.80755  0.81883  1.0000
  C   C668      1.0  0.47808  0.97976  0.67356  1.0000
  H   H524      1.0  0.26745  0.89573  0.86052  1.0000
  H   H525      1.0  0.12222  0.94170  0.72235  1.0000
  C   C669      1.0  0.23491  0.90264  0.73099  1.0000
  H   H526      1.0  0.14576  0.94394  0.99528  1.0000
  C   C670      1.0  0.35138  0.86623  0.76282  1.0000
  H   H527      1.0  0.31492  0.80299  0.88908  1.0000
  H   H528      1.0  0.38377  0.86317  0.71816  1.0000
  C   C671      1.0  0.18401  0.85479  0.64861  1.0000
  C   C672      1.0  0.15445  0.83656  0.59715  1.0000
  H   H529      1.0  0.20562  0.83545  0.76768  1.0000
  C   C673      1.0  0.29470  0.81548  0.83631  1.0000
  H   H530      1.0  0.19257  0.85342  0.67734  1.0000
  P   P24       1.0  0.26982  0.83240  0.76773  1.0000
  H   H531      1.0  0.15637  0.85689  0.54363  1.0000
  H   H532      1.0  0.25341  0.73526  0.75829  1.0000
  H   H533      1.0  0.29829  0.91833  0.81235  1.0000
  H   H534      1.0  0.23270  0.84401  0.90053  1.0000
  H   H535      1.0  0.07749  0.97101  0.87708  1.0000
  C   C674      1.0  0.32342  0.85860  0.77490  1.0000
  Fe  Fe47      1.0  0.01330  0.98454  0.99338  1.0000
  C   C675      1.0  0.23837  0.93166  0.59533  1.0000
  H   H536      1.0  0.18956  0.91437  0.72721  1.0000
  H   H537      1.0  0.24313  0.92118  0.72025  1.0000
  C   C676      1.0  0.14860  0.94674  0.77318  1.0000
  C   C677      1.0  0.14874  0.92903  0.57713  1.0000
  P   P25       1.0  0.19853  0.90033  0.55405  1.0000
  C   C678      1.0  0.26009  0.89801  0.55437  1.0000
  H   H538      1.0  0.27515  0.82107  0.93007  1.0000
  H   H539      1.0  0.26900  0.77620  0.79161  1.0000
  C   C679      1.0  0.15672  0.93626  0.80874  1.0000
  H   H540      1.0  0.27795  0.88651  0.73789  1.0000
  C   C680      1.0  0.14158  0.97580  0.56475  1.0000
  C   C681      1.0  0.34381  0.71711  0.60204  1.0000
  H   H541      1.0  0.21636  0.91045  0.87165  1.0000
  C   C682      1.0  0.24041  0.75516  0.70674  1.0000
  H   H542      1.0  0.10860  0.94370  0.94325  1.0000
  C   C683      1.0  0.30646  0.84103  0.75252  1.0000
  C   C684      1.0  0.29625  0.81284  0.87610  1.0000
  C   C685      1.0  0.13214  0.95223  0.58137  1.0000
  C   C686      1.0  0.19370  0.87498  0.62454  1.0000
  C   C687      1.0  0.23796  0.77949  0.68824  1.0000
  C   C688      1.0  0.35679  0.67578  0.56997  1.0000
  C   C689      1.0  0.28808  0.90698  0.56471  1.0000
  H   H543      1.0  0.27731  0.95476  0.77370  1.0000
  C   C690      1.0  0.16458  0.83550  0.63490  1.0000
  H   H544      1.0  0.14114  0.91117  0.59083  1.0000
  C   C691      1.0  0.19141  0.95061  0.91876  1.0000
  H   H545      1.0  0.40276  0.67210  0.55501  1.0000
  C   C692      1.0  0.25833  0.91184  0.84395  1.0000
  C   C693      1.0  0.34594  0.83886  0.70602  1.0000
  H   H546      1.0  0.20488  0.95385  0.52394  1.0000
  C   C694      1.0  0.39395  0.97738  0.85039  1.0000
  C   C695      1.0  0.33360  0.66160  0.67239  1.0000
  H   H547      1.0  0.18734  0.67229  0.58028  1.0000
  H   H548      1.0  0.19864  0.94896  0.97982  1.0000
  C   C696      1.0  0.18456  0.87554  0.58619  1.0000
  H   H549      1.0  0.31248  0.68743  0.58613  1.0000
  C   C697      1.0  0.16425  0.85658  0.57291  1.0000
  C   C698      1.0  0.31047  0.67873  0.68155  1.0000
  C   C699      1.0  0.23494  0.91050  0.56919  1.0000
  C   C700      1.0  0.37311  0.72517  0.60120  1.0000
  C   C701      1.0  0.16765  0.97622  0.54375  1.0000
  C   C702      1.0  0.21993  0.96950  0.69208  1.0000
  H   H550      1.0  0.37995  0.66465  0.98718  1.0000
  H   H551      1.0  0.44246  0.96539  0.78184  1.0000
  H   H552      1.0  0.35688  0.69087  0.93614  1.0000
  C   C703      1.0  0.39429  0.70877  0.58448  1.0000
  H   H553      1.0  0.11214  0.95209  0.59818  1.0000
  H   H554      1.0  0.22608  0.96892  0.78309  1.0000
  H   H555      1.0  0.99350  0.96998  0.89010  1.0000
  S   S91       1.0  0.05003  0.97966  0.94990  1.0000
  C   C704      1.0  0.38618  0.68426  0.56876  1.0000
  H   H556      1.0  0.21445  0.95364  0.91261  1.0000
  C   C705      1.0  0.34337  0.67858  0.95428  1.0000
  S   S92       1.0  0.16171  0.98176  0.68687  1.0000
  C   C706      1.0  0.18438  0.95310  0.53956  1.0000
  C   C707      1.0  0.18666  0.66114  0.60659  1.0000
  H   H557      1.0  0.21862  0.65827  0.69440  1.0000
  H   H558      1.0  0.98865  0.73718  0.64072  1.0000
  C   C708      1.0  0.45694  0.98226  0.77853  1.0000
  S   S93       1.0  0.37311  0.98536  0.74670  1.0000
  H   H559      1.0  0.38045  0.98340  0.82661  1.0000
  H   H560      1.0  0.47403  0.98276  0.85910  1.0000
  H   H561      1.0  0.98983  0.87229  0.57156  1.0000
  C   C709      1.0  0.35640  0.66365  0.98335  1.0000
  C   C710      1.0  0.31295  0.67789  0.94888  1.0000
  C   C711      1.0  0.48635  0.97839  0.76868  1.0000
  C   C712      1.0  0.29552  0.66220  0.97247  1.0000
  H   H562      1.0  0.13020  0.98773  0.82824  1.0000
  H   H563      1.0  0.27191  0.66178  0.96848  1.0000
  Fe  Fe48      1.0  0.27514  0.74298  0.52001  1.0000
  S   S94       1.0  0.23912  0.71282  0.52014  1.0000
  S   S95       1.0  0.53028  0.00543  0.05671  1.0000
  C   C713      1.0  0.58659  0.23297  0.06081  1.0000
  C   C714      1.0  0.72696  0.31010  0.20182  1.0000
  Fe  Fe49      1.0  0.89429  0.14941  0.23358  1.0000
  S   S96       1.0  0.89772  0.18800  0.20240  1.0000
  S   S97       1.0  0.91936  0.11087  0.22179  1.0000
  Fe  Fe50      1.0  0.85120  0.17304  0.29268  1.0000
  S   S98       1.0  0.85140  0.21325  0.26571  1.0000
  S   S99       1.0  0.82224  0.16339  0.34342  1.0000
  Fe  Fe51      1.0  0.84859  0.19105  0.21009  1.0000
  S   S100      1.0  0.82191  0.20349  0.15845  1.0000
  Fe  Fe52      1.0  0.90015  0.20693  0.26063  1.0000
  S   S101      1.0  0.93038  0.24044  0.27816  1.0000
  S   S102      1.0  0.84488  0.15097  0.23697  1.0000
  S   S103      1.0  0.90021  0.16828  0.29197  1.0000
  Fe  Fe53      1.0  0.63109  0.30008  0.23982  1.0000
  S   S104      1.0  0.64496  0.25786  0.22952  1.0000
  C   C715      1.0  0.56969  0.15496  0.15485  1.0000
  S   S105      1.0  0.61460  0.26463  0.14518  1.0000
  Fe  Fe54      1.0  0.59975  0.25362  0.20388  1.0000
  S   S106      1.0  0.57257  0.21623  0.20607  1.0000
  Fe  Fe55      1.0  0.65863  0.27230  0.17181  1.0000
  S   S107      1.0  0.69805  0.26024  0.13607  1.0000
  S   S108      1.0  0.58444  0.29479  0.21901  1.0000
  H   H564      1.0  0.71899  0.31183  0.29846  1.0000
  Fe  Fe56      1.0  0.69459  0.26369  0.49027  1.0000
  H   H565      1.0  0.54303  0.24888  0.05425  1.0000
  S   S109      1.0  0.65682  0.25903  0.44855  1.0000
  C   C716      1.0  0.53474  0.11086  0.32363  1.0000
  S   S110      1.0  0.80355  0.25519  0.46691  1.0000
  H   H566      1.0  0.85373  0.26176  0.17330  1.0000
  H   H567      1.0  0.79552  0.10719  0.50811  1.0000
  C   C717      1.0  0.63334  0.28122  0.34164  1.0000
  C   C718      1.0  0.63553  0.26792  0.37672  1.0000
  C   C719      1.0  0.65619  0.27577  0.40440  1.0000
  C   C720      1.0  0.67479  0.29714  0.39686  1.0000
  H   H568      1.0  0.71480  0.31437  0.17584  1.0000
  H   H569      1.0  0.61721  0.27512  0.32055  1.0000
  H   H570      1.0  0.62083  0.25178  0.38289  1.0000
  H   H571      1.0  0.69070  0.30344  0.41812  1.0000
  H   H572      1.0  0.73475  0.26939  0.36834  1.0000
  C   C721      1.0  0.96404  0.24271  0.25381  1.0000
  C   C722      1.0  0.90571  0.14803  0.04669  1.0000
  C   C723      1.0  0.53096  0.23997  0.25166  1.0000
  C   C724      1.0  0.53736  0.21935  0.22609  1.0000
  H   H573      1.0  0.71344  0.07240  0.47235  1.0000
  H   H574      1.0  0.55178  0.26588  0.13812  1.0000
  H   H575      1.0  0.49907  0.15037  0.26020  1.0000
  H   H576      1.0  0.54779  0.25411  0.25947  1.0000
  H   H577      1.0  0.52053  0.18456  0.19727  1.0000
  H   H578      1.0  0.79065  0.28350  0.39278  1.0000
  C   C725      1.0  0.78690  0.21881  0.15590  1.0000
  C   C726      1.0  0.77741  0.22673  0.11966  1.0000
  C   C727      1.0  0.75016  0.23906  0.11477  1.0000
  C   C728      1.0  0.73158  0.24363  0.14594  1.0000
  C   C729      1.0  0.74065  0.23551  0.18260  1.0000
  C   C730      1.0  0.76846  0.22317  0.18761  1.0000
  H   H579      1.0  0.79136  0.22344  0.09503  1.0000
  H   H580      1.0  0.74347  0.24523  0.08644  1.0000
  H   H581      1.0  0.72653  0.23906  0.20696  1.0000
  H   H582      1.0  0.77551  0.21696  0.21572  1.0000
  C   C731      1.0  0.81771  0.18863  0.37826  1.0000
  C   C732      1.0  0.83689  0.21022  0.38031  1.0000
  C   C733      1.0  0.83257  0.23026  0.40803  1.0000
  C   C734      1.0  0.80876  0.22913  0.43338  1.0000
  C   C735      1.0  0.78984  0.20732  0.43162  1.0000
  C   C736      1.0  0.79446  0.18705  0.40441  1.0000
  H   H583      1.0  0.85505  0.21148  0.36051  1.0000
  H   H584      1.0  0.84747  0.24694  0.40942  1.0000
  H   H585      1.0  0.77172  0.20595  0.45123  1.0000
  H   H586      1.0  0.77955  0.17045  0.40296  1.0000
  C   C737      1.0  0.95278  0.07592  0.10726  1.0000
  C   C738      1.0  0.94941  0.05991  0.13944  1.0000
  C   C739      1.0  0.93928  0.07099  0.17422  1.0000
  C   C740      1.0  0.93191  0.09804  0.17713  1.0000
  C   C741      1.0  0.93494  0.11398  0.14480  1.0000
  C   C742      1.0  0.94559  0.10300  0.11022  1.0000
  H   H587      1.0  0.62712  0.21179  0.06924  1.0000
  H   H588      1.0  0.93700  0.05845  0.19901  1.0000
  H   H589      1.0  0.92947  0.13482  0.14661  1.0000
  C   C743      1.0  0.50197  0.15605  0.07851  1.0000
  C   C744      1.0  0.61660  0.14421  0.44096  1.0000
  H   H590      1.0  0.80203  0.06290  0.05335  1.0000
  C   C745      1.0  0.58146  0.17365  0.47105  1.0000
  C   C746      1.0  0.57169  0.18185  0.43499  1.0000
  C   C747      1.0  0.58438  0.17128  0.40154  1.0000
  C   C748      1.0  0.60703  0.15247  0.40486  1.0000
  P   P26       1.0  0.57251  0.18190  0.35453  1.0000
  C   C749      1.0  0.55067  0.15665  0.33085  1.0000
  C   C750      1.0  0.55018  0.21146  0.35841  1.0000
  C   C751      1.0  0.82492  0.05712  0.05384  1.0000
  C   C752      1.0  0.75806  0.29809  0.26895  1.0000
  C   C753      1.0  0.56167  0.23643  0.34934  1.0000
  C   C754      1.0  0.53140  0.16380  0.30119  1.0000
  H   H591      1.0  0.55358  0.27839  0.34655  1.0000
  C   C755      1.0  0.60495  0.18933  0.32702  1.0000
  C   C756      1.0  0.62962  0.20043  0.34529  1.0000
  C   C757      1.0  0.65450  0.20717  0.32418  1.0000
  C   C758      1.0  0.65505  0.20267  0.28468  1.0000
  C   C759      1.0  0.63046  0.19195  0.26619  1.0000
  C   C760      1.0  0.60542  0.18541  0.28722  1.0000
  C   C761      1.0  0.77000  0.29198  0.23285  1.0000
  C   C762      1.0  0.88472  0.31452  0.12827  1.0000
  H   H592      1.0  0.84548  0.29145  0.11809  1.0000
  H   H593      1.0  0.55455  0.19665  0.43354  1.0000
  H   H594      1.0  0.61741  0.14433  0.37947  1.0000
  C   C763      1.0  0.71452  0.31532  0.23763  1.0000
  C   C764      1.0  0.51554  0.20073  0.21673  1.0000
  H   H595      1.0  0.58378  0.23845  0.33871  1.0000
  H   H596      1.0  0.52979  0.18424  0.29217  1.0000
  H   H597      1.0  0.50191  0.10344  0.28014  1.0000
  H   H598      1.0  0.62927  0.20465  0.37569  1.0000
  H   H599      1.0  0.67302  0.21661  0.33824  1.0000
  H   H600      1.0  0.67416  0.20830  0.26818  1.0000
  H   H601      1.0  0.63042  0.18959  0.23530  1.0000
  H   H602      1.0  0.58629  0.17803  0.27215  1.0000
  C   C765      1.0  0.57519  0.14618  0.19205  1.0000
  C   C766      1.0  0.55948  0.12486  0.20681  1.0000
  H   H603      1.0  0.59148  0.15622  0.20947  1.0000
  H   H604      1.0  0.61146  0.14864  0.50210  1.0000
  C   C767      1.0  0.75463  0.29831  0.19945  1.0000
  P   P27       1.0  0.77749  0.28895  0.31188  1.0000
  C   C768      1.0  0.76467  0.25624  0.32371  1.0000
  C   C769      1.0  0.74369  0.25264  0.35263  1.0000
  C   C770      1.0  0.73407  0.22717  0.36175  1.0000
  C   C771      1.0  0.74471  0.20522  0.34135  1.0000
  C   C772      1.0  0.76493  0.20876  0.31181  1.0000
  C   C773      1.0  0.77479  0.23418  0.30289  1.0000
  C   C774      1.0  0.81652  0.28965  0.30340  1.0000
  H   H605      1.0  0.81638  0.01874  0.02826  1.0000
  H   H606      1.0  0.54325  0.09376  0.08272  1.0000
  C   C775      1.0  0.87746  0.29192  0.29237  1.0000
  C   C776      1.0  0.86538  0.27228  0.31543  1.0000
  C   C777      1.0  0.83503  0.27117  0.32097  1.0000
  C   C778      1.0  0.78145  0.30311  0.38852  1.0000
  H   H607      1.0  0.71864  0.22456  0.38499  1.0000
  H   H608      1.0  0.73781  0.18542  0.34879  1.0000
  H   H609      1.0  0.77357  0.19171  0.29640  1.0000
  H   H610      1.0  0.79050  0.23661  0.27999  1.0000
  C   C779      1.0  0.86210  0.02351  0.04230  1.0000
  H   H611      1.0  0.56665  0.12380  0.36480  1.0000
  H   H612      1.0  0.90099  0.29243  0.28775  1.0000
  H   H613      1.0  0.87957  0.25765  0.32860  1.0000
  H   H614      1.0  0.82599  0.25588  0.33886  1.0000
  C   C780      1.0  0.55879  0.18414  0.07348  1.0000
  H   H615      1.0  0.52557  0.09597  0.19572  1.0000
  C   C781      1.0  0.54211  0.20688  0.06536  1.0000
  H   H616      1.0  0.59728  0.25198  0.05709  1.0000
  H   H617      1.0  0.49813  0.25774  0.28800  1.0000
  C   C782      1.0  0.83289  0.03195  0.04009  1.0000
  P   P28       1.0  0.83631  0.10613  0.08910  1.0000
  C   C783      1.0  0.80579  0.12264  0.06635  1.0000
  C   C784      1.0  0.82857  0.09953  0.13868  1.0000
  C   C785      1.0  0.85177  0.09428  0.16395  1.0000
  C   C786      1.0  0.84608  0.08729  0.20185  1.0000
  C   C787      1.0  0.81719  0.08577  0.21490  1.0000
  C   C788      1.0  0.79390  0.09071  0.18979  1.0000
  C   C789      1.0  0.79952  0.09723  0.15165  1.0000
  H   H618      1.0  0.98021  0.16661  0.45704  1.0000
  H   H619      1.0  0.88289  0.11227  0.03180  1.0000
  S   S111      1.0  0.64743  0.31508  0.18313  1.0000
  C   C790      1.0  0.88328  0.04010  0.05878  1.0000
  C   C791      1.0  0.79169  0.14368  0.08558  1.0000
  C   C792      1.0  0.86575  0.12970  0.08412  1.0000
  C   C793      1.0  0.86768  0.15145  0.10930  1.0000
  C   C794      1.0  0.88822  0.17148  0.10285  1.0000
  C   C795      1.0  0.90751  0.16960  0.07193  1.0000
  H   H620      1.0  0.56069  0.06136  0.03526  1.0000
  H   H621      1.0  0.75823  0.17379  0.08301  1.0000
  H   H622      1.0  0.50187  0.27468  0.36853  1.0000
  S   S112      1.0  0.73099  0.29370  0.49236  1.0000
  H   H623      1.0  0.96696  0.20177  0.32583  1.0000
  H   H624      1.0  0.95479  0.03904  0.13763  1.0000
  C   C796      1.0  0.55460  0.12829  0.04896  1.0000
  C   C797      1.0  0.67185  0.31113  0.36231  1.0000
  H   H625      1.0  0.92057  0.14661  0.02263  1.0000
  C   C798      1.0  0.84638  0.07436  0.06872  1.0000
  H   H626      1.0  0.77148  0.08939  0.19985  1.0000
  H   H627      1.0  0.78118  0.10025  0.13242  1.0000
  Fe  Fe57      1.0  0.97656  0.01985  0.04787  1.0000
  P   P29       1.0  0.54127  0.15268  0.08313  1.0000
  C   C799      1.0  0.89369  0.28127  0.19101  1.0000
  C   C800      1.0  0.76029  0.15088  0.03058  1.0000
  C   C801      1.0  0.51187  0.31587  0.24635  1.0000
  H   H628      1.0  0.85284  0.15335  0.13337  1.0000
  H   H629      1.0  0.93272  0.30381  0.20188  1.0000
  H   H630      1.0  0.92364  0.18502  0.06743  1.0000
  C   C802      1.0  0.91376  0.30149  0.18329  1.0000
  H   H631      1.0  0.51145  0.29466  0.24159  1.0000
  C   C803      1.0  0.73893  0.06033  0.42360  1.0000
  C   C804      1.0  0.76126  0.06710  0.39809  1.0000
  C   C805      1.0  0.77581  0.09134  0.40219  1.0000
  C   C806      1.0  0.76816  0.10874  0.43189  1.0000
  C   C807      1.0  0.74592  0.10199  0.45786  1.0000
  C   C808      1.0  0.73112  0.07778  0.45327  1.0000
  H   H632      1.0  0.89202  0.07741  0.08600  1.0000
  C   C809      1.0  0.53789  0.11252  0.18448  1.0000
  C   C810      1.0  0.69166  0.16460  0.49810  1.0000
  C   C811      1.0  0.97021  0.19406  0.35448  1.0000
  H   H633      1.0  0.54557  0.31321  0.28959  1.0000
  C   C812      1.0  0.97123  0.22480  0.22461  1.0000
  C   C813      1.0  0.77256  0.31128  0.35195  1.0000
  C   C814      1.0  0.94577  0.19023  0.37785  1.0000
  C   C815      1.0  0.85921  0.31071  0.27522  1.0000
  C   C816      1.0  0.76891  0.15758  0.06785  1.0000
  C   C817      1.0  0.72966  0.30877  0.27108  1.0000
  C   C818      1.0  0.60384  0.15481  0.47406  1.0000
  C   C819      1.0  0.86455  0.29438  0.13631  1.0000
  C   C820      1.0  0.70993  0.14942  0.47413  1.0000
  C   C821      1.0  0.70901  0.15372  0.43439  1.0000
  C   C822      1.0  0.69001  0.17274  0.41908  1.0000
  H   H634      1.0  0.93031  0.17730  0.43271  1.0000
  Fe  Fe58      1.0  0.76057  0.25818  0.49899  1.0000
  C   C823      1.0  0.52880  0.26581  0.14578  1.0000
  H   H635      1.0  0.72746  0.04165  0.42011  1.0000
  H   H636      1.0  0.76714  0.05370  0.37491  1.0000
  H   H637      1.0  0.79285  0.09688  0.38209  1.0000
  H   H638      1.0  0.77940  0.12762  0.43419  1.0000
  C   C824      1.0  0.88460  0.12835  0.05237  1.0000
  H   H639      1.0  0.57180  0.18204  0.49678  1.0000
  H   H640      1.0  0.65770  0.20285  0.43176  1.0000
  C   C825      1.0  0.50290  0.24193  0.26790  1.0000
  C   C826      1.0  0.82885  0.30980  0.28109  1.0000
  P   P30       1.0  0.73493  0.12536  0.49457  1.0000
  H   H641      1.0  0.60290  0.16854  0.07908  1.0000
  C   C827      1.0  0.54846  0.14231  0.13183  1.0000
  C   C828      1.0  0.55223  0.12998  0.34194  1.0000
  H   H642      1.0  0.95584  0.20960  0.21605  1.0000
  H   H643      1.0  0.51133  0.19043  0.37684  1.0000
  H   H644      1.0  0.72312  0.14278  0.41508  1.0000
  H   H645      1.0  0.68957  0.17620  0.38853  1.0000
  H   H646      1.0  0.92400  0.19499  0.36718  1.0000
  C   C829      1.0  0.94938  0.18031  0.41477  1.0000
  S   S113      1.0  0.72459  0.22853  0.49242  1.0000
  H   H647      1.0  0.56387  0.11807  0.23559  1.0000
  H   H648      1.0  0.58171  0.17198  0.14495  1.0000
  C   C830      1.0  0.51540  0.25716  0.36594  1.0000
  H   H649      1.0  0.86419  0.08338  0.22124  1.0000
  H   H650      1.0  0.89738  0.26813  0.21502  1.0000
  C   C831      1.0  0.55261  0.10100  0.05644  1.0000
  H   H651      1.0  0.79089  0.28183  0.23033  1.0000
  C   C832      1.0  0.58959  0.18592  0.07353  1.0000
  S   S114      1.0  0.96542  0.06309  0.06264  1.0000
  C   C833      1.0  0.52086  0.20955  0.37045  1.0000
  C   C834      1.0  0.54442  0.25921  0.35346  1.0000
  C   C835      1.0  0.51544  0.28911  0.15880  1.0000
  H   H652      1.0  0.63424  0.12988  0.44333  1.0000
  C   C836      1.0  0.87541  0.06525  0.07229  1.0000
  C   C837      1.0  0.67192  0.18765  0.44327  1.0000
  H   H653      1.0  0.52834  0.30713  0.16075  1.0000
  H   H654      1.0  0.94829  0.11557  0.08559  1.0000
  H   H655      1.0  0.79853  0.14966  0.11418  1.0000
  H   H656      1.0  0.87426  0.09536  0.15427  1.0000
  Fe  Fe59      1.0  0.60201  0.30628  0.16137  1.0000
  H   H657      1.0  0.88888  0.18866  0.12160  1.0000
  C   C838      1.0  0.60339  0.21031  0.06769  1.0000
  C   C839      1.0  0.86911  0.27767  0.16751  1.0000
  C   C840      1.0  0.53220  0.12140  0.14737  1.0000
  H   H658      1.0  0.51506  0.11188  0.13071  1.0000
  C   C841      1.0  0.67255  0.18342  0.48268  1.0000
  H   H659      1.0  0.96398  0.29230  0.12615  1.0000
  H   H660      1.0  0.97851  0.27668  0.28649  1.0000
  H   H661      1.0  0.81293  0.08084  0.24450  1.0000
  H   H662      1.0  0.52370  0.22397  0.13591  1.0000
  C   C842      1.0  0.90970  0.31806  0.15146  1.0000
  C   C843      1.0  0.98421  0.26246  0.26438  1.0000
  H   H663      1.0  0.76366  0.29319  0.17166  1.0000
  H   H664      1.0  0.65890  0.19545  0.50134  1.0000
  H   H665      1.0  0.90584  0.03340  0.06151  1.0000
  C   C844      1.0  0.51278  0.24228  0.14373  1.0000
  C   C845      1.0  0.50356  0.23233  0.37412  1.0000
  C   C846      1.0  0.65105  0.30324  0.33468  1.0000
  C   C847      1.0  0.55599  0.23121  0.05933  1.0000
  H   H666      1.0  0.97950  0.12963  0.24991  1.0000
  C   C848      1.0  0.79432  0.12808  0.51531  1.0000
  H   H667      1.0  0.86833  0.00396  0.03182  1.0000
  C   C849      1.0  0.76758  0.14190  0.51233  1.0000
  Fe  Fe60      1.0  0.49002  0.03161  0.06139  1.0000
  C   C850      1.0  0.51556  0.11821  0.29425  1.0000
  H   H668      1.0  0.49689  0.17621  0.13312  1.0000
  H   H669      1.0  0.51839  0.20613  0.06434  1.0000
  C   C851      1.0  0.51392  0.14467  0.28302  1.0000
  C   C852      1.0  0.56237  0.08239  0.02941  1.0000
  H   H670      1.0  0.53593  0.09032  0.33236  1.0000
  H   H671      1.0  0.78527  0.31331  0.44808  1.0000
  C   C853      1.0  0.97934  0.30429  0.14249  1.0000
  C   C854      1.0  0.97751  0.17432  0.42843  1.0000
  H   H672      1.0  0.49882  0.13555  0.02377  1.0000
  C   C855      1.0  0.79772  0.11664  0.02842  1.0000
  H   H673      1.0  0.67298  0.11551  0.51589  1.0000
  C   C856      1.0  0.77849  0.32009  0.42005  1.0000
  Fe  Fe61      1.0  0.58821  0.03952  0.68986  1.0000
  S   S115      1.0  0.56714  0.07863  0.70320  1.0000
  H   H674      1.0  0.86445  0.01896  0.88378  1.0000
  Fe  Fe62      1.0  0.64977  0.06078  0.70718  1.0000
  S   S116      1.0  0.63286  0.10101  0.72439  1.0000
  C   C857      1.0  0.67425  0.09358  0.56795  1.0000
  Fe  Fe63      1.0  0.59685  0.07895  0.75467  1.0000
  S   S117      1.0  0.57421  0.09232  0.80942  1.0000
  Fe  Fe64      1.0  0.60487  0.09725  0.67183  1.0000
  S   S118      1.0  0.60116  0.13074  0.62918  1.0000
  S   S119      1.0  0.61663  0.03895  0.74263  1.0000
  S   S120      1.0  0.62298  0.05802  0.65323  1.0000
  C   C858      1.0  0.72233  0.08137  0.59152  1.0000
  C   C859      1.0  0.50051  0.11972  0.70753  1.0000
  S   S121      1.0  0.56988  0.01983  0.95762  1.0000
  Fe  Fe65      1.0  0.72634  0.29171  0.55660  1.0000
  S   S122      1.0  0.75871  0.25848  0.56334  1.0000
  H   H675      1.0  0.52306  0.04498  0.66837  1.0000
  Fe  Fe66      1.0  0.71979  0.23139  0.55619  1.0000
  S   S123      1.0  0.71799  0.19509  0.59416  1.0000
  S   S124      1.0  0.68702  0.26450  0.55400  1.0000
  C   C860      1.0  0.56952  0.03882  0.91516  1.0000
  C   C861      1.0  0.59316  0.03669  0.88957  1.0000
  C   C862      1.0  0.59422  0.05231  0.85638  1.0000
  C   C863      1.0  0.57190  0.07058  0.84883  1.0000
  C   C864      1.0  0.54827  0.07279  0.87444  1.0000
  C   C865      1.0  0.54694  0.05680  0.90729  1.0000
  H   H676      1.0  0.93012  0.10598  0.94076  1.0000
  H   H677      1.0  0.61281  0.05096  0.83731  1.0000
  H   H678      1.0  0.53103  0.08705  0.86903  1.0000
  H   H679      1.0  0.52895  0.05893  0.92715  1.0000
  C   C866      1.0  0.68497  0.17822  0.60457  1.0000
  C   C867      1.0  0.65801  0.18610  0.58907  1.0000
  C   C868      1.0  0.63244  0.17136  0.59662  1.0000
  C   C869      1.0  0.63357  0.14895  0.62022  1.0000
  C   C870      1.0  0.66045  0.14147  0.63635  1.0000
  C   C871      1.0  0.68602  0.15599  0.62844  1.0000
  H   H680      1.0  0.65689  0.20343  0.57112  1.0000
  H   H681      1.0  0.61169  0.17739  0.58427  1.0000
  H   H682      1.0  0.66165  0.12427  0.65452  1.0000
  H   H683      1.0  0.70667  0.14986  0.64088  1.0000
  C   C872      1.0  0.71792  0.10774  0.53371  1.0000
  C   C873      1.0  0.70441  0.01420  0.74873  1.0000
  C   C874      1.0  0.50496  0.00020  0.76473  1.0000
  H   H684      1.0  0.83898  0.17903  0.54259  1.0000
  H   H685      1.0  0.68388  0.02086  0.76100  1.0000
  C   C875      1.0  0.93930  0.09413  0.77034  1.0000
  C   C876      1.0  0.68716  0.10643  0.53694  1.0000
  C   C877      1.0  0.49690  0.09643  0.76765  1.0000
  C   C878      1.0  0.96792  0.05010  0.80131  1.0000
  C   C879      1.0  0.93865  0.05546  0.81147  1.0000
  H   H686      1.0  0.68182  0.07145  0.61952  1.0000
  H   H687      1.0  0.75176  0.02869  0.67697  1.0000
  H   H688      1.0  0.57521  0.99911  0.83081  1.0000
  H   H689      1.0  0.74663  0.17999  0.52044  1.0000
  H   H690      1.0  0.80939  0.10164  0.01219  1.0000
  C   C880      1.0  0.57403  0.09079  0.99466  1.0000
  H   H691      1.0  0.68041  0.23063  0.90571  1.0000
  C   C881      1.0  0.96080  0.99765  0.87039  1.0000
  C   C882      1.0  0.91384  0.06863  0.68425  1.0000
  C   C883      1.0  0.92919  0.08439  0.65849  1.0000
  C   C884      1.0  0.91389  0.10195  0.63494  1.0000
  C   C885      1.0  0.88328  0.10390  0.63744  1.0000
  C   C886      1.0  0.86785  0.08871  0.66425  1.0000
  C   C887      1.0  0.88331  0.07044  0.68673  1.0000
  P   P31       1.0  0.82826  0.08962  0.66592  1.0000
  C   C888      1.0  0.81622  0.06308  0.63468  1.0000
  C   C889      1.0  0.81460  0.08507  0.71388  1.0000
  C   C890      1.0  0.78599  0.07556  0.71939  1.0000
  C   C891      1.0  0.77491  0.07247  0.75636  1.0000
  C   C892      1.0  0.79219  0.07916  0.78812  1.0000
  C   C893      1.0  0.82048  0.08921  0.78289  1.0000
  C   C894      1.0  0.83160  0.09239  0.74590  1.0000
  C   C895      1.0  0.81251  0.03739  0.64904  1.0000
  C   C896      1.0  0.80368  0.01672  0.62470  1.0000
  C   C897      1.0  0.79894  0.02144  0.58579  1.0000
  C   C898      1.0  0.80336  0.04680  0.57107  1.0000
  C   C899      1.0  0.81229  0.06751  0.59534  1.0000
  C   C900      1.0  0.81364  0.12123  0.65112  1.0000
  C   C901      1.0  0.78603  0.12254  0.63327  1.0000
  C   C902      1.0  0.77451  0.14689  0.62181  1.0000
  C   C903      1.0  0.79001  0.17025  0.62913  1.0000
  C   C904      1.0  0.81708  0.16927  0.64805  1.0000
  C   C905      1.0  0.82877  0.14486  0.65937  1.0000
  H   H692      1.0  0.62849  0.00641  0.82149  1.0000
  H   H693      1.0  0.95284  0.08243  0.65622  1.0000
  H   H694      1.0  0.92576  0.11368  0.61428  1.0000
  H   H695      1.0  0.87174  0.11693  0.61804  1.0000
  H   H696      1.0  0.87183  0.05712  0.70564  1.0000
  H   H697      1.0  0.77199  0.07084  0.69515  1.0000
  H   H698      1.0  0.75284  0.06490  0.76034  1.0000
  H   H699      1.0  0.78365  0.07648  0.81676  1.0000
  H   H700      1.0  0.83385  0.09434  0.80758  1.0000
  H   H701      1.0  0.85340  0.10053  0.74243  1.0000
  H   H702      1.0  0.81668  0.03315  0.67894  1.0000
  H   H703      1.0  0.92553  0.05446  0.70171  1.0000
  C   C906      1.0  0.85964  0.02164  0.85377  1.0000
  H   H704      1.0  0.51272  0.13236  0.68836  1.0000
  H   H705      1.0  0.81635  0.08688  0.58334  1.0000
  H   H706      1.0  0.77319  0.10481  0.62872  1.0000
  H   H707      1.0  0.75338  0.14778  0.60746  1.0000
  H   H708      1.0  0.78081  0.18913  0.62038  1.0000
  H   H709      1.0  0.82888  0.18749  0.65407  1.0000
  H   H710      1.0  0.84951  0.14448  0.67462  1.0000
  H   H711      1.0  0.89152  0.03487  0.76795  1.0000
  H   H712      1.0  0.63735  0.20651  0.67959  1.0000
  C   C907      1.0  0.81909  0.16851  0.53476  1.0000
  C   C908      1.0  0.93757  0.00218  0.84463  1.0000
  C   C909      1.0  0.70020  0.25175  0.66014  1.0000
  C   C910      1.0  0.69453  0.27703  0.67493  1.0000
  C   C911      1.0  0.68275  0.27989  0.71167  1.0000
  C   C912      1.0  0.67693  0.25745  0.73375  1.0000
  C   C913      1.0  0.68302  0.23198  0.71918  1.0000
  C   C914      1.0  0.69420  0.22934  0.68196  1.0000
  P   P32       1.0  0.67613  0.20266  0.74720  1.0000
  C   C915      1.0  0.70415  0.17833  0.73615  1.0000
  C   C916      1.0  0.67767  0.21123  0.79757  1.0000
  C   C917      1.0  0.70366  0.20790  0.81880  1.0000
  C   C918      1.0  0.70458  0.21488  0.85766  1.0000
  C   C919      1.0  0.67964  0.22523  0.87560  1.0000
  C   C920      1.0  0.65373  0.22866  0.85467  1.0000
  C   C921      1.0  0.65273  0.22176  0.81581  1.0000
  C   C922      1.0  0.69705  0.15135  0.73232  1.0000
  C   C923      1.0  0.71880  0.13273  0.72346  1.0000
  C   C924      1.0  0.74780  0.14091  0.71842  1.0000
  C   C925      1.0  0.75508  0.16770  0.72202  1.0000
  C   C926      1.0  0.73337  0.18637  0.73080  1.0000
  C   C927      1.0  0.64037  0.18914  0.73610  1.0000
  C   C928      1.0  0.62645  0.17224  0.76222  1.0000
  C   C929      1.0  0.59935  0.16075  0.75315  1.0000
  C   C930      1.0  0.58598  0.16602  0.71797  1.0000
  C   C931      1.0  0.59956  0.18297  0.69203  1.0000
  C   C932      1.0  0.62677  0.19433  0.70083  1.0000
  H   H713      1.0  0.70939  0.24947  0.63172  1.0000
  C   C933      1.0  0.98443  0.00725  0.69407  1.0000
  H   H714      1.0  0.67833  0.29953  0.72306  1.0000
  H   H715      1.0  0.66795  0.26013  0.76213  1.0000
  H   H716      1.0  0.69855  0.20993  0.66986  1.0000
  H   H717      1.0  0.72326  0.19997  0.80562  1.0000
  H   H718      1.0  0.72470  0.21230  0.87390  1.0000
  H   H719      1.0  0.63440  0.23671  0.86859  1.0000
  H   H720      1.0  0.63252  0.22472  0.79994  1.0000
  H   H721      1.0  0.67474  0.14458  0.73569  1.0000
  H   H722      1.0  0.71304  0.11196  0.72015  1.0000
  H   H723      1.0  0.76458  0.12654  0.71145  1.0000
  H   H724      1.0  0.77752  0.17404  0.71767  1.0000
  H   H725      1.0  0.73935  0.20710  0.73322  1.0000
  H   H726      1.0  0.63688  0.16731  0.78916  1.0000
  H   H727      1.0  0.58913  0.14709  0.77291  1.0000
  H   H728      1.0  0.56554  0.15638  0.71025  1.0000
  H   H729      1.0  0.58956  0.18634  0.66427  1.0000
  C   C934      1.0  0.52547  0.00254  0.67314  1.0000
  C   C935      1.0  0.69183  0.08116  0.59528  1.0000
  C   C936      1.0  0.77478  0.13051  0.01080  1.0000
  H   H730      1.0  0.58170  0.07630  0.97393  1.0000
  C   C937      1.0  0.82416  0.01889  0.80199  1.0000
  H   H731      1.0  0.64567  0.99225  0.94031  1.0000
  S   S125      1.0  0.69862  0.05522  0.69767  1.0000
  C   C938      1.0  0.71609  0.02731  0.71719  1.0000
  C   C939      1.0  0.91264  0.04208  0.96023  1.0000
  C   C940      1.0  0.91884  0.06883  0.96667  1.0000
  H   H732      1.0  0.90890  0.01066  0.91884  1.0000
  H   H733      1.0  0.65055  0.09357  0.57123  1.0000
  H   H734      1.0  0.90209  0.08235  0.80381  1.0000
  H   H735      1.0  0.84105  0.02631  0.74566  1.0000
  C   C941      1.0  0.83101  0.01673  0.84086  1.0000
  H   H736      1.0  0.79234  0.00530  0.56698  1.0000
  H   H737      1.0  0.73569  0.07137  0.61271  1.0000
  H   H738      1.0  0.80222  0.01414  0.79183  1.0000
  C   C942      1.0  0.57553  0.11779  0.98654  1.0000
  C   C943      1.0  0.66731  0.99447  0.65854  1.0000
  C   C944      1.0  0.91298  0.03164  0.92308  1.0000
  C   C945      1.0  0.74293  0.01884  0.70173  1.0000
  P   P33       1.0  0.91924  0.03393  0.84386  1.0000
  C   C946      1.0  0.98252  0.06644  0.77548  1.0000
  C   C947      1.0  0.84600  0.02587  0.77599  1.0000
  H   H739      1.0  0.51857  0.00575  0.88323  1.0000
  C   C948      1.0  0.91898  0.04795  0.89175  1.0000
  H   H740      1.0  0.80027  0.05028  0.54075  1.0000
  H   H741      1.0  0.50689  0.09115  0.79476  1.0000
  C   C949      1.0  0.92454  0.07776  0.79606  1.0000
  C   C950      1.0  0.87465  0.03073  0.78880  1.0000
  C   C951      1.0  0.88172  0.02890  0.82786  1.0000
  H   H742      1.0  0.93013  0.08794  0.87484  1.0000
  H   H743      1.0  0.92827  0.11115  0.75823  1.0000
  H   H744      1.0  0.78622  0.31317  0.58905  1.0000
  C   C952      1.0  0.81994  0.14135  0.52656  1.0000
  C   C953      1.0  0.92501  0.08528  0.93569  1.0000
  C   C954      1.0  0.92504  0.07493  0.89832  1.0000
  H   H745      1.0  0.95088  0.01886  0.73436  1.0000
  C   C955      1.0  0.73536  0.09468  0.56094  1.0000
  H   H746      1.0  0.69934  0.29433  0.65782  1.0000
  C   C956      1.0  0.49413  0.02588  0.76992  1.0000
  Fe  Fe67      1.0  0.52866  0.01404  0.99340  1.0000
  C   C957      1.0  0.93301  0.99391  0.68971  1.0000
  H   H747      1.0  0.96743  0.01271  0.89092  1.0000
  H   H748      1.0  0.90847  0.02906  0.98412  1.0000
  H   H749      1.0  0.50896  0.04241  0.76638  1.0000
  H   H750      1.0  0.74267  0.16175  0.01691  1.0000
  H   H751      1.0  0.65956  0.01382  0.65028  1.0000
  C   C958      1.0  0.51075  0.02677  0.67003  1.0000
  H   H752      1.0  0.61090  0.02313  0.89564  1.0000
  C   C959      1.0  0.51200  0.11361  0.74353  1.0000
  H   H753      1.0  0.91948  0.07656  0.99577  1.0000
  H   H754      1.0  0.77896  0.99120  0.70600  1.0000
  H   H755      1.0  0.53314  0.12142  0.75242  1.0000
  S   S126      1.0  0.97394  0.01035  0.98471  1.0000
  H   H756      1.0  0.52764  0.99740  0.75633  1.0000
  H   H757      1.0  0.69261  0.16224  0.52882  1.0000
  H   H758      1.0  0.75899  0.09483  0.55872  1.0000
  S   S127      1.0  0.89627  0.99877  0.70419  1.0000
  C   C960      1.0  0.96825  0.08839  0.75995  1.0000
  H   H759      1.0  0.58411  0.12413  0.95921  1.0000
  C   C961      1.0  0.95566  0.00764  0.70863  1.0000
  C   C962      1.0  0.71977  0.99289  0.76502  1.0000
  C   C963      1.0  0.75825  0.99752  0.71794  1.0000
  H   H760      1.0  0.80087  0.99693  0.63599  1.0000
  H   H761      1.0  0.49061  0.29028  0.92071  1.0000
  S   S128      1.0  0.56428  0.00118  0.67571  1.0000
  H   H762      1.0  0.70689  0.99746  0.62549  1.0000
  H   H763      1.0  0.81433  0.01038  0.86083  1.0000
  S   S129      1.0  0.49144  0.04293  0.99936  1.0000
  H   H764      1.0  0.97960  0.03323  0.81285  1.0000
  H   H765      1.0  0.56671  0.15728  0.00627  1.0000
  C   C964      1.0  0.61740  0.99071  0.80586  1.0000
  H   H766      1.0  0.84060  0.13075  0.52803  1.0000
  H   H767      1.0  0.76845  0.12568  0.98164  1.0000
  H   H768      1.0  0.79183  0.20341  0.53845  1.0000
  C   C965      1.0  0.56576  0.13649  0.01346  1.0000
  H   H769      1.0  0.98190  0.07404  0.98160  1.0000
  C   C966      1.0  0.79255  0.18228  0.53242  1.0000
  H   H770      1.0  0.97975  0.10091  0.73989  1.0000
  C   C967      1.0  0.76688  0.16897  0.52170  1.0000
  H   H771      1.0  0.89655  0.39229  0.03040  1.0000
  C   C968      1.0  0.76674  0.34545  0.41537  1.0000
  S   S130      1.0  0.95015  0.47605  0.07320  1.0000
  H   H772      1.0  0.74963  0.37375  0.37517  1.0000
  C   C969      1.0  0.50931  0.49162  0.16439  1.0000
  C   C970      1.0  0.55600  0.35704  0.11635  1.0000
  C   C971      1.0  0.54759  0.36975  0.08234  1.0000
  C   C972      1.0  0.52925  0.39225  0.08319  1.0000
  C   C973      1.0  0.51912  0.40227  0.11819  1.0000
  C   C974      1.0  0.52769  0.38970  0.15221  1.0000
  C   C975      1.0  0.54581  0.36703  0.15137  1.0000
  H   H773      1.0  0.55535  0.36215  0.05513  1.0000
  H   H774      1.0  0.52275  0.40170  0.05679  1.0000
  H   H775      1.0  0.97246  0.58163  0.28187  1.0000
  H   H776      1.0  0.55213  0.35747  0.17775  1.0000
  S   S131      1.0  0.50975  0.48994  0.05113  1.0000
  C   C976      1.0  0.76176  0.33713  0.34713  1.0000
  C   C977      1.0  0.53120  0.32633  0.27374  1.0000
  C   C978      1.0  0.84750  0.46550  0.48729  1.0000
  C   C979      1.0  0.61097  0.48665  0.05630  1.0000
  H   H777      1.0  0.54840  0.36179  0.30014  1.0000
  H   H778      1.0  0.95574  0.57685  0.18764  1.0000
  C   C980      1.0  0.51473  0.37059  0.25853  1.0000
  C   C981      1.0  0.94556  0.56345  0.13049  1.0000
  C   C982      1.0  0.92685  0.56674  0.09906  1.0000
  C   C983      1.0  0.90429  0.58583  0.10043  1.0000
  C   C984      1.0  0.90015  0.60181  0.13317  1.0000
  C   C985      1.0  0.91886  0.59856  0.16464  1.0000
  C   C986      1.0  0.94147  0.57945  0.16322  1.0000
  H   H779      1.0  0.92975  0.55458  0.07369  1.0000
  H   H780      1.0  0.88997  0.58826  0.07595  1.0000
  H   H781      1.0  0.91577  0.61064  0.19004  1.0000
  H   H782      1.0  0.96413  0.65193  0.21469  1.0000
  C   C987      1.0  0.90665  0.39601  0.22264  1.0000
  C   C988      1.0  0.55538  0.51720  0.12725  1.0000
  C   C989      1.0  0.95890  0.34621  0.06652  1.0000
  C   C990      1.0  0.52848  0.53017  0.13232  1.0000
  C   C991      1.0  0.59209  0.44055  0.19363  1.0000
  C   C992      1.0  0.79492  0.46016  0.47967  1.0000
  H   H783      1.0  0.60085  0.52165  0.18023  1.0000
  H   H784      1.0  0.62549  0.50128  0.06887  1.0000
  C   C993      1.0  0.64718  0.52878  0.18319  1.0000
  C   C994      1.0  0.60581  0.39412  0.19188  1.0000
  H   H785      1.0  0.59294  0.41511  0.24300  1.0000
  H   H786      1.0  0.48893  0.32213  0.10815  1.0000
  C   C995      1.0  0.53625  0.47865  0.15955  1.0000
  C   C996      1.0  0.93648  0.42070  0.17814  1.0000
  C   C997      1.0  0.84885  0.47765  0.45148  1.0000
  C   C998      1.0  0.82328  0.48118  0.42986  1.0000
  C   C999      1.0  0.79635  0.47231  0.44387  1.0000
  C   C1000     1.0  0.49519  0.36014  0.23131  1.0000
  H   H787      1.0  0.84109  0.56472  0.05852  1.0000
  C   C1001     1.0  0.53281  0.35370  0.27964  1.0000
  H   H788      1.0  0.75599  0.34438  0.31905  1.0000
  H   H789      1.0  0.78879  0.33354  0.51230  1.0000
  H   H790      1.0  0.86769  0.46239  0.50307  1.0000
  H   H791      1.0  0.51069  0.64358  0.39592  1.0000
  H   H792      1.0  0.89312  0.39549  0.24807  1.0000
  C   C1002     1.0  0.62514  0.49266  0.14672  1.0000
  C   C1003     1.0  0.67820  0.49772  0.14887  1.0000
  C   C1004     1.0  0.62224  0.51497  0.17074  1.0000
  C   C1005     1.0  0.55956  0.49140  0.14114  1.0000
  H   H793      1.0  0.49107  0.48123  0.17722  1.0000
  P   P34       1.0  0.93649  0.34357  0.14119  1.0000
  C   C1006     1.0  0.50541  0.51735  0.15078  1.0000
  C   C1007     1.0  0.98080  0.59445  0.25968  1.0000
  H   H794      1.0  0.61765  0.37839  0.13655  1.0000
  C   C1008     1.0  0.59651  0.41647  0.21244  1.0000
  H   H795      1.0  0.86981  0.48419  0.44037  1.0000
  H   H796      1.0  0.82440  0.49057  0.40209  1.0000
  H   H797      1.0  0.77658  0.47473  0.42688  1.0000
  S   S132      1.0  0.87105  0.62517  0.13322  1.0000
  C   C1009     1.0  0.82261  0.36341  0.51169  1.0000
  C   C1010     1.0  0.61071  0.39584  0.15252  1.0000
  H   H798      1.0  0.68553  0.32824  0.35716  1.0000
  C   C1011     1.0  0.92943  0.37331  0.16875  1.0000
  C   C1012     1.0  0.80388  0.56527  0.02010  1.0000
  H   H799      1.0  0.61047  0.42061  0.10319  1.0000
  C   C1013     1.0  0.97211  0.33035  0.15344  1.0000
  S   S133      1.0  0.49517  0.42995  0.12080  1.0000
  H   H800      1.0  0.50179  0.60399  0.43535  1.0000
  H   H801      1.0  0.69988  0.49091  0.14064  1.0000
  H   H802      1.0  0.81501  0.32475  0.26816  1.0000
  H   H803      1.0  0.53817  0.45826  0.16858  1.0000
  C   C1014     1.0  0.59633  0.44231  0.15391  1.0000
  C   C1015     1.0  0.57346  0.45290  0.06195  1.0000
  H   H804      1.0  0.60912  0.37539  0.20631  1.0000
  C   C1016     1.0  0.49381  0.33269  0.22467  1.0000
  H   H805      1.0  0.86860  0.32593  0.25739  1.0000
  C   C1017     1.0  0.91191  0.37270  0.20171  1.0000
  H   H806      1.0  0.57263  0.52702  0.11151  1.0000
  H   H807      1.0  0.64484  0.54606  0.20159  1.0000
  H   H808      1.0  0.52035  0.39767  0.17932  1.0000
  C   C1018     1.0  0.82040  0.45715  0.50197  1.0000
  C   C1019     1.0  0.91317  0.36954  0.07786  1.0000
  H   H809      1.0  0.91480  0.43807  0.22696  1.0000
  H   H810      1.0  0.95580  0.39837  0.13212  1.0000
  H   H811      1.0  0.52499  0.54977  0.12063  1.0000
  H   H812      1.0  0.94609  0.43925  0.16891  1.0000
  H   H813      1.0  0.76414  0.35846  0.43998  1.0000
  H   H814      1.0  0.70616  0.64925  0.47246  1.0000
  H   H815      1.0  0.79094  0.57803  0.03865  1.0000
  C   C1020     1.0  0.60614  0.41982  0.13358  1.0000
  H   H816      1.0  0.89558  0.37572  0.09674  1.0000
  H   H817      1.0  0.51618  0.39185  0.26270  1.0000
  H   H818      1.0  0.55865  0.44128  0.07925  1.0000
  C   C1021     1.0  0.83219  0.55785  0.03131  1.0000
  C   C1022     1.0  0.91366  0.37904  0.04034  1.0000
  C   C1023     1.0  0.94183  0.39746  0.15722  1.0000
  H   H819      1.0  0.98771  0.36559  0.18338  1.0000
  H   H820      1.0  0.71762  0.63633  0.26253  1.0000
  C   C1024     1.0  0.75851  0.35401  0.37888  1.0000
  P   P35       1.0  0.59344  0.47416  0.13081  1.0000
  C   C1025     1.0  0.91888  0.42000  0.21081  1.0000
  C   C1026     1.0  0.65331  0.48388  0.13636  1.0000
  Fe  Fe68      1.0  0.97914  0.51199  0.07856  1.0000
  H   H821      1.0  0.95551  0.63849  0.13647  1.0000
  H   H822      1.0  0.58549  0.45785  0.21006  1.0000
  S   S134      1.0  0.64586  0.32228  0.29305  1.0000
  H   H823      1.0  0.65597  0.46631  0.11860  1.0000
  S   S135      1.0  0.97455  0.53994  0.12963  1.0000
  C   C1027     1.0  0.93578  0.35301  0.09129  1.0000
  S   S136      1.0  0.57930  0.32890  0.11331  1.0000
  H   H824      1.0  0.83923  0.35004  0.50058  1.0000
  C   C1028     1.0  0.67514  0.52022  0.17215  1.0000
  H   H825      1.0  0.77396  0.45306  0.49001  1.0000
  H   H826      1.0  0.90236  0.35432  0.21133  1.0000
  C   C1029     1.0  0.59328  0.47055  0.07938  1.0000
  H   H827      1.0  0.69445  0.53091  0.18187  1.0000
  C   C1030     1.0  0.95930  0.35575  0.02901  1.0000
  C   C1031     1.0  0.79415  0.35414  0.51790  1.0000
  C   C1032     1.0  0.97607  0.63391  0.22108  1.0000
  H   H828      1.0  0.94573  0.62296  0.26539  1.0000
  H   H829      1.0  0.88089  0.32695  0.10369  1.0000
  H   H830      1.0  0.97720  0.33436  0.07624  1.0000
  H   H831      1.0  0.85190  0.39667  0.51543  1.0000
  C   C1033     1.0  0.48882  0.62175  0.43999  1.0000
  C   C1034     1.0  0.49383  0.64421  0.41775  1.0000
  C   C1035     1.0  0.96572  0.61768  0.25035  1.0000
  H   H832      1.0  0.50350  0.33812  0.38797  1.0000
  H   H833      1.0  0.69286  0.32401  0.23958  1.0000
  H   H834      1.0  0.49082  0.32220  0.45289  1.0000
  C   C1036     1.0  0.57203  0.45070  0.02206  1.0000
  Fe  Fe69      1.0  0.84963  0.41418  0.70278  1.0000
  S   S137      1.0  0.84613  0.45718  0.68629  1.0000
  S   S138      1.0  0.84241  0.37902  0.66243  1.0000
  Fe  Fe70      1.0  0.87468  0.42706  0.78131  1.0000
  S   S139      1.0  0.87304  0.47045  0.77111  1.0000
  S   S140      1.0  0.89343  0.41059  0.83630  1.0000
  Fe  Fe71      1.0  0.82852  0.46329  0.74573  1.0000
  S   S141      1.0  0.79691  0.49623  0.76234  1.0000
  Fe  Fe72      1.0  0.89098  0.46210  0.71298  1.0000
  S   S142      1.0  0.92210  0.49402  0.69149  1.0000
  S   S143      1.0  0.82850  0.41987  0.76058  1.0000
  S   S144      1.0  0.89621  0.41864  0.72464  1.0000
  C   C1037     1.0  0.48959  0.45223  0.85449  1.0000
  S   S145      1.0  0.90493  0.48900  0.97838  1.0000
  H   H835      1.0  0.75247  0.44221  0.65924  1.0000
  C   C1038     1.0  0.75972  0.49512  0.74852  1.0000
  C   C1039     1.0  0.71796  0.47243  0.71999  1.0000
  C   C1040     1.0  0.74764  0.47253  0.73130  1.0000
  H   H836      1.0  0.70872  0.45495  0.70647  1.0000
  H   H837      1.0  0.76118  0.45514  0.72687  1.0000
  C   C1041     1.0  0.96063  0.49295  0.69886  1.0000
  C   C1042     1.0  0.51512  0.49277  0.71144  1.0000
  H   H838      1.0  0.79269  0.42435  0.61950  1.0000
  H   H839      1.0  0.53706  0.49432  0.72275  1.0000
  C   C1043     1.0  0.76375  0.61343  0.62843  1.0000
  C   C1044     1.0  0.89708  0.43274  0.87542  1.0000
  C   C1045     1.0  0.91332  0.42509  0.90773  1.0000
  C   C1046     1.0  0.91665  0.44254  0.93908  1.0000
  C   C1047     1.0  0.90308  0.46743  0.93859  1.0000
  C   C1048     1.0  0.88675  0.47497  0.90647  1.0000
  C   C1049     1.0  0.88420  0.45789  0.87474  1.0000
  H   H840      1.0  0.92347  0.40571  0.90838  1.0000
  H   H841      1.0  0.92906  0.43648  0.96396  1.0000
  H   H842      1.0  0.87592  0.49400  0.90616  1.0000
  H   H843      1.0  0.87153  0.46396  0.85026  1.0000
  C   C1050     1.0  0.80910  0.36496  0.64558  1.0000
  C   C1051     1.0  0.78163  0.37582  0.65443  1.0000
  C   C1052     1.0  0.75588  0.36439  0.63902  1.0000
  H   H844      1.0  0.78030  0.39314  0.67282  1.0000
  H   H845      1.0  0.73484  0.37336  0.64516  1.0000
  Fe  Fe73      1.0  0.56990  0.54667  0.70658  1.0000
  S   S146      1.0  0.57599  0.58343  0.74229  1.0000
  S   S147      1.0  0.52537  0.54109  0.67775  1.0000
  Fe  Fe74      1.0  0.63260  0.52843  0.72237  1.0000
  S   S148      1.0  0.64279  0.56346  0.76014  1.0000
  S   S149      1.0  0.66376  0.49456  0.70886  1.0000
  Fe  Fe75      1.0  0.59779  0.55668  0.78474  1.0000
  S   S150      1.0  0.58690  0.56262  0.84768  1.0000
  Fe  Fe76      1.0  0.62013  0.58717  0.71423  1.0000
  S   S151      1.0  0.63596  0.62865  0.69920  1.0000
  S   S152      1.0  0.58933  0.51959  0.75062  1.0000
  S   S153      1.0  0.61248  0.55245  0.67478  1.0000
  H   H846      1.0  0.58838  0.46511  0.96834  1.0000
  C   C1053     1.0  0.59004  0.46643  0.99929  1.0000
  S   S154      1.0  0.52745  0.47001  0.94182  1.0000
  C   C1054     1.0  0.54249  0.49649  0.91579  1.0000
  C   C1055     1.0  0.55201  0.49176  0.87823  1.0000
  C   C1056     1.0  0.56509  0.51199  0.85687  1.0000
  C   C1057     1.0  0.56922  0.53711  0.87316  1.0000
  C   C1058     1.0  0.55975  0.54188  0.91089  1.0000
  C   C1059     1.0  0.54636  0.52163  0.93217  1.0000
  H   H847      1.0  0.54919  0.47233  0.86557  1.0000
  H   H848      1.0  0.57236  0.50799  0.82802  1.0000
  H   H849      1.0  0.56299  0.56124  0.92375  1.0000
  H   H850      1.0  0.53949  0.52531  0.96136  1.0000
  H   H851      1.0  0.92353  0.45001  0.63523  1.0000
  C   C1060     1.0  0.62191  0.44584  0.76465  1.0000
  C   C1061     1.0  0.65467  0.63876  0.65729  1.0000
  C   C1062     1.0  0.66066  0.62128  0.62694  1.0000
  H   H852      1.0  0.67950  0.61699  0.57052  1.0000
  C   C1063     1.0  0.81284  0.57229  0.66040  1.0000
  H   H853      1.0  0.65382  0.60080  0.62866  1.0000
  C   C1064     1.0  0.74192  0.51746  0.75485  1.0000
  C   C1065     1.0  0.71226  0.51733  0.74368  1.0000
  C   C1066     1.0  0.70027  0.49491  0.72580  1.0000
  H   H854      1.0  0.75111  0.53502  0.76811  1.0000
  H   H855      1.0  0.69887  0.53475  0.74832  1.0000
  C   C1067     1.0  0.58661  0.46275  0.68217  1.0000
  H   H856      1.0  0.57275  0.46411  0.70716  1.0000
  C   C1068     1.0  0.51402  0.39493  0.68449  1.0000
  H   H857      1.0  0.85903  0.56295  0.66419  1.0000
  H   H858      1.0  0.81680  0.59339  0.65860  1.0000
  C   C1069     1.0  0.72409  0.61261  0.77437  1.0000
  C   C1070     1.0  0.95859  0.45860  0.84674  1.0000
  C   C1071     1.0  0.60940  0.48447  0.01637  1.0000
  H   H859      1.0  0.69243  0.56479  0.53916  1.0000
  H   H860      1.0  0.82386  0.41985  0.88664  1.0000
  C   C1072     1.0  0.95968  0.50599  0.85937  1.0000
  C   C1073     1.0  0.94851  0.48416  0.83883  1.0000
  P   P36       1.0  0.94796  0.53927  0.84875  1.0000
  C   C1074     1.0  0.91776  0.53860  0.81520  1.0000
  C   C1075     1.0  0.93379  0.55650  0.89039  1.0000
  C   C1076     1.0  0.93140  0.54381  0.92583  1.0000
  C   C1077     1.0  0.91921  0.55716  0.95725  1.0000
  C   C1078     1.0  0.90907  0.58314  0.95355  1.0000
  Fe  Fe77      1.0  0.94749  0.48752  0.01135  1.0000
  C   C1079     1.0  0.92302  0.58246  0.88665  1.0000
  C   C1080     1.0  0.92120  0.54603  0.77679  1.0000
  C   C1081     1.0  0.89722  0.54509  0.75165  1.0000
  C   C1082     1.0  0.86976  0.53683  0.76467  1.0000
  C   C1083     1.0  0.86630  0.52941  0.80280  1.0000
  C   C1084     1.0  0.89012  0.53035  0.82798  1.0000
  H   H861      1.0  0.98065  0.58819  0.86934  1.0000
  H   H862      1.0  0.68022  0.61258  0.75146  1.0000
  C   C1085     1.0  0.91093  0.59580  0.91820  1.0000
  H   H863      1.0  0.94949  0.44177  0.83128  1.0000
  H   H864      1.0  0.76999  0.61177  0.78876  1.0000
  H   H865      1.0  0.92407  0.59235  0.85927  1.0000
  H   H866      1.0  0.85442  0.48616  0.57005  1.0000
  H   H867      1.0  0.93195  0.48661  0.81683  1.0000
  H   H868      1.0  0.93851  0.52352  0.92940  1.0000
  H   H869      1.0  0.91758  0.54719  0.98453  1.0000
  H   H870      1.0  0.89976  0.59336  0.97811  1.0000
  H   H871      1.0  0.98678  0.43477  0.88217  1.0000
  H   H872      1.0  0.66977  0.53547  0.90631  1.0000
  H   H873      1.0  0.94227  0.55209  0.76579  1.0000
  H   H874      1.0  0.85136  0.53514  0.74508  1.0000
  H   H875      1.0  0.84535  0.52185  0.81241  1.0000
  H   H876      1.0  0.88711  0.52415  0.85727  1.0000
  S   S155      1.0  0.98576  0.46258  0.99425  1.0000
  H   H877      1.0  0.71729  0.61979  0.80230  1.0000
  C   C1086     1.0  0.75486  0.49045  0.59181  1.0000
  C   C1087     1.0  0.79091  0.63370  0.57651  1.0000
  Fe  Fe78      1.0  0.49681  0.47753  0.99157  1.0000
  C   C1088     1.0  0.68296  0.53653  0.62622  1.0000
  C   C1089     1.0  0.58166  0.41774  0.78406  1.0000
  C   C1090     1.0  0.58225  0.42956  0.82051  1.0000
  C   C1091     1.0  0.60263  0.44950  0.82893  1.0000
  H   H878      1.0  0.56546  0.40261  0.77812  1.0000
  H   H879      1.0  0.56675  0.42351  0.84222  1.0000
  H   H880      1.0  0.60295  0.45883  0.85702  1.0000
  C   C1092     1.0  0.86465  0.46843  0.58120  1.0000
  C   C1093     1.0  0.80429  0.56534  0.81241  1.0000
  C   C1094     1.0  0.82831  0.58202  0.81868  1.0000
  C   C1095     1.0  0.84252  0.58215  0.85422  1.0000
  C   C1096     1.0  0.83275  0.56561  0.88351  1.0000
  C   C1097     1.0  0.80816  0.54922  0.87768  1.0000
  C   C1098     1.0  0.79398  0.54932  0.84187  1.0000
  P   P37       1.0  0.79457  0.52821  0.91545  1.0000
  C   C1099     1.0  0.80904  0.53972  0.96106  1.0000
  H   H881      1.0  0.52440  0.59458  0.80200  1.0000
  C   C1100     1.0  0.97523  0.46920  0.70668  1.0000
  C   C1101     1.0  0.79227  0.55620  0.98519  1.0000
  C   C1102     1.0  0.56587  0.39490  0.70141  1.0000
  H   H882      1.0  0.65894  0.40587  0.74385  1.0000
  H   H883      1.0  0.62273  0.49713  0.99856  1.0000
  H   H884      1.0  0.49660  0.57123  0.85113  1.0000
  H   H885      1.0  0.83161  0.33382  0.61487  1.0000
  H   H886      1.0  0.50830  0.36590  0.78593  1.0000
  H   H887      1.0  0.65226  0.34111  0.63637  1.0000
  C   C1103     1.0  0.83767  0.53273  0.97233  1.0000
  C   C1104     1.0  0.80472  0.49399  0.90642  1.0000
  C   C1105     1.0  0.81137  0.47693  0.93691  1.0000
  C   C1106     1.0  0.81826  0.45030  0.92977  1.0000
  C   C1107     1.0  0.50359  0.51338  0.68963  1.0000
  H   H888      1.0  0.79407  0.56414  0.78440  1.0000
  H   H889      1.0  0.83648  0.59420  0.79566  1.0000
  H   H890      1.0  0.86152  0.59466  0.85881  1.0000
  H   H891      1.0  0.84450  0.56575  0.91048  1.0000
  H   H892      1.0  0.77518  0.53667  0.83635  1.0000
  C   C1108     1.0  0.98199  0.50198  0.88655  1.0000
  S   S156      1.0  0.97404  0.52493  0.01741  1.0000
  H   H893      1.0  0.54182  0.42864  0.67890  1.0000
  H   H894      1.0  0.90303  0.61594  0.91531  1.0000
  C   C1109     1.0  0.69633  0.56014  0.56898  1.0000
  H   H895      1.0  0.69503  0.59690  0.68751  1.0000
  H   H896      1.0  0.74729  0.48915  0.92661  1.0000
  C   C1110     1.0  0.75373  0.60798  0.76672  1.0000
  C   C1111     1.0  0.70314  0.60841  0.74573  1.0000
  H   H897      1.0  0.85128  0.52033  0.95415  1.0000
  H   H898      1.0  0.81143  0.48403  0.96622  1.0000
  H   H899      1.0  0.82450  0.43751  0.95320  1.0000
  H   H900      1.0  0.74460  0.50918  0.58471  1.0000
  H   H901      1.0  0.63791  0.47347  0.80709  1.0000
  H   H902      1.0  0.81028  0.44929  0.83293  1.0000
  H   H903      1.0  0.60798  0.49997  0.60657  1.0000
  C   C1112     1.0  0.81777  0.44029  0.89234  1.0000
  H   H904      1.0  0.66878  0.52264  0.64068  1.0000
  C   C1113     1.0  0.62918  0.37122  0.66888  1.0000
  H   H905      1.0  0.76269  0.41035  0.55245  1.0000
  H   H906      1.0  0.70835  0.54516  0.67657  1.0000
  H   H907      1.0  0.90003  0.40600  0.62626  1.0000
  C   C1114     1.0  0.83238  0.52789  0.66706  1.0000
  H   H908      1.0  0.72800  0.48451  0.64175  1.0000
  C   C1115     1.0  0.77977  0.53486  0.66405  1.0000
  H   H909      1.0  0.98759  0.52400  0.78709  1.0000
  C   C1116     1.0  0.49851  0.46983  0.71777  1.0000
  C   C1117     1.0  0.65321  0.35490  0.66037  1.0000
  H   H910      1.0  0.78436  0.49124  0.54414  1.0000
  C   C1118     1.0  0.86479  0.42100  0.59134  1.0000
  C   C1119     1.0  0.72367  0.56766  0.62810  1.0000
  H   H911      1.0  0.73483  0.64022  0.65950  1.0000
  H   H912      1.0  0.90026  0.54973  0.72169  1.0000
  H   H913      1.0  0.80578  0.63198  0.55247  1.0000
  C   C1120     1.0  0.62239  0.45769  0.80094  1.0000
  H   H914      1.0  0.58216  0.35779  0.72398  1.0000
  H   H915      1.0  0.70031  0.57548  0.89713  1.0000
  C   C1121     1.0  0.60160  0.42582  0.75580  1.0000
  C   C1122     1.0  0.51173  0.36847  0.69543  1.0000
  C   C1123     1.0  0.75731  0.34163  0.61550  1.0000
  C   C1124     1.0  0.80406  0.48363  0.86897  1.0000
  H   H916      1.0  0.77027  0.56214  0.97727  1.0000
  C   C1125     1.0  0.75934  0.45286  0.63402  1.0000
  C   C1126     1.0  0.90372  0.44815  0.61807  1.0000
  C   C1127     1.0  0.89063  0.47071  0.60250  1.0000
  C   C1128     1.0  0.97717  0.51625  0.69451  1.0000
  H   H917      1.0  0.85104  0.51468  0.67018  1.0000
  C   C1129     1.0  0.74559  0.47663  0.62412  1.0000
  C   C1130     1.0  0.70682  0.50997  0.91761  1.0000
  H   H918      1.0  0.49073  0.35844  0.69324  1.0000
  C   C1131     1.0  0.78474  0.33057  0.60723  1.0000
  H   H919      1.0  0.60968  0.36995  0.65109  1.0000
  C   C1132     1.0  0.97972  0.45465  0.87522  1.0000
  C   C1133     1.0  0.89065  0.42337  0.61277  1.0000
  P   P38       1.0  0.81813  0.44084  0.54764  1.0000
  C   C1134     1.0  0.77733  0.48012  0.56879  1.0000
  H   H920      1.0  0.69344  0.49245  0.92144  1.0000
  C   C1135     1.0  0.78405  0.56219  0.65961  1.0000
  C   C1136     1.0  0.70544  0.54935  0.64648  1.0000
  C   C1137     1.0  0.78323  0.61127  0.59741  1.0000
  C   C1138     1.0  0.69348  0.53419  0.90913  1.0000
  H   H921      1.0  0.49480  0.40536  0.67394  1.0000
  H   H922      1.0  0.63731  0.45241  0.74327  1.0000
  P   P39       1.0  0.60039  0.41217  0.70772  1.0000
  H   H923      1.0  0.49706  0.55992  0.96606  1.0000
  H   H924      1.0  0.50823  0.45345  0.73299  1.0000
  C   C1139     1.0  0.79044  0.45571  0.57787  1.0000
  C   C1140     1.0  0.85190  0.44344  0.57472  1.0000
  C   C1141     1.0  0.49433  0.46781  0.82224  1.0000
  H   H925      1.0  0.63820  0.45975  0.59422  1.0000
  C   C1142     1.0  0.63065  0.38954  0.69941  1.0000
  H   H926      1.0  0.96279  0.45109  0.70971  1.0000
  H   H927      1.0  0.85462  0.40170  0.58891  1.0000
  C   C1143     1.0  0.74132  0.55508  0.90679  1.0000
  C   C1144     1.0  0.83687  0.55515  0.66379  1.0000
  C   C1145     1.0  0.67529  0.63046  0.59407  1.0000
  H   H928      1.0  0.63514  0.42153  0.63722  1.0000
  H   H929      1.0  0.93751  0.38017  0.98723  1.0000
  C   C1146     1.0  0.65674  0.39152  0.72086  1.0000
  C   C1147     1.0  0.60303  0.43970  0.67508  1.0000
  H   H930      1.0  0.57483  0.50172  0.66258  1.0000
  C   C1148     1.0  0.73742  0.50819  0.92049  1.0000
  C   C1149     1.0  0.67893  0.35684  0.68209  1.0000
  C   C1150     1.0  0.58799  0.48417  0.65714  1.0000
  C   C1151     1.0  0.54091  0.40812  0.68740  1.0000
  C   C1152     1.0  0.53642  0.35510  0.70931  1.0000
  C   C1153     1.0  0.62349  0.46044  0.61851  1.0000
  H   H931      1.0  0.66053  0.53237  0.57219  1.0000
  C   C1154     1.0  0.77265  0.37133  0.53205  1.0000
  C   C1155     1.0  0.68071  0.37514  0.71227  1.0000
  C   C1156     1.0  0.60656  0.48311  0.62545  1.0000
  H   H932      1.0  0.70093  0.37698  0.72856  1.0000
  C   C1157     1.0  0.62168  0.43874  0.64310  1.0000
  H   H933      1.0  0.80019  0.49679  0.67136  1.0000
  C   C1158     1.0  0.71892  0.57292  0.58909  1.0000
  H   H934      1.0  0.79215  0.59219  0.58901  1.0000
  C   C1159     1.0  0.67833  0.54197  0.58756  1.0000
  H   H935      1.0  0.75794  0.52660  0.66557  1.0000
  H   H936      1.0  0.75058  0.36405  0.53691  1.0000
  C   C1160     1.0  0.56336  0.36829  0.71252  1.0000
  C   C1161     1.0  0.75494  0.53071  0.91477  1.0000
  H   H937      1.0  0.73207  0.58732  0.57413  1.0000
  C   C1162     1.0  0.78198  0.44266  0.61134  1.0000
  H   H938      1.0  0.79854  0.49590  0.84489  1.0000
  P   P40       1.0  0.75289  0.58419  0.65424  1.0000
  C   C1163     1.0  0.71166  0.59936  0.70947  1.0000
  C   C1164     1.0  0.80382  0.51781  0.66745  1.0000
  H   H939      1.0  0.96610  0.53467  0.68812  1.0000
  H   H940      1.0  0.75436  0.57271  0.90231  1.0000
  C   C1165     1.0  0.81042  0.45692  0.86203  1.0000
  H   H941      1.0  0.90038  0.48998  0.60787  1.0000
  C   C1166     1.0  0.81047  0.34233  0.62191  1.0000
  C   C1167     1.0  0.71072  0.55676  0.90390  1.0000
  H   H942      1.0  0.78547  0.59569  0.72499  1.0000
  C   C1168     1.0  0.50516  0.58314  0.79385  1.0000
  C   C1169     1.0  0.97979  0.55523  0.82896  1.0000
  C   C1170     1.0  0.80865  0.40680  0.53661  1.0000
  C   C1171     1.0  0.74136  0.59425  0.70166  1.0000
  C   C1172     1.0  0.76238  0.59883  0.73051  1.0000
  C   C1173     1.0  0.75116  0.63817  0.63717  1.0000
  H   H943      1.0  0.50876  0.46082  0.79981  1.0000
  H   H944      1.0  0.50993  0.59076  0.73353  1.0000
  H   H945      1.0  0.50037  0.43320  0.85716  1.0000
  H   H946      1.0  0.49352  0.53927  0.90184  1.0000
  H   H947      1.0  0.97766  0.35116  0.01047  1.0000
  C   C1174     1.0  0.84901  0.54150  0.00748  1.0000
  C   C1175     1.0  0.77977  0.39757  0.54130  1.0000
  H   H948      1.0  0.69770  0.34449  0.67497  1.0000
  H   H949      1.0  0.49289  0.41170  0.76977  1.0000
  S   S157      1.0  0.72456  0.32788  0.59616  1.0000
  C   C1176     1.0  0.49707  0.58098  0.75534  1.0000
  C   C1177     1.0  0.93676  0.37221  0.01596  1.0000
  H   H950      1.0  0.55631  0.43737  0.00869  1.0000
  H   H951      1.0  0.53463  0.33455  0.71773  1.0000
  C   C1178     1.0  0.82975  0.38975  0.52047  1.0000
  C   C1179     1.0  0.48925  0.56969  0.82178  1.0000
  H   H952      1.0  0.87084  0.53540  0.01634  1.0000
  H   H953      1.0  0.82799  0.83843  0.40020  1.0000
  C   C1180     1.0  0.51056  0.75896  0.24559  1.0000
  C   C1181     1.0  0.49553  0.87695  0.26247  1.0000
  S   S158      1.0  0.85162  0.69711  0.14862  1.0000
  Fe  Fe79      1.0  0.84197  0.68039  0.25560  1.0000
  S   S159      1.0  0.83264  0.72089  0.23263  1.0000
  C   C1182     1.0  0.62956  0.73167  0.34957  1.0000
  Fe  Fe80      1.0  0.81073  0.69931  0.18405  1.0000
  S   S160      1.0  0.76541  0.70807  0.16016  1.0000
  Fe  Fe81      1.0  0.87454  0.71486  0.19966  1.0000
  S   S161      1.0  0.90555  0.74869  0.18757  1.0000
  Fe  Fe82      1.0  0.59277  0.81254  0.29017  1.0000
  S   S162      1.0  0.61086  0.77661  0.26035  1.0000
  S   S163      1.0  0.57810  0.81342  0.35192  1.0000
  Fe  Fe83      1.0  0.59218  0.84607  0.21665  1.0000
  S   S164      1.0  0.61045  0.81256  0.18134  1.0000
  S   S165      1.0  0.58640  0.88834  0.19568  1.0000
  Fe  Fe84      1.0  0.57855  0.78692  0.21389  1.0000
  S   S166      1.0  0.54970  0.75570  0.18559  1.0000
  Fe  Fe85      1.0  0.64092  0.80525  0.23104  1.0000
  S   S167      1.0  0.69056  0.80282  0.22948  1.0000
  S   S168      1.0  0.55829  0.82106  0.24555  1.0000
  S   S169      1.0  0.62484  0.84064  0.26443  1.0000
  C   C1183     1.0  0.73515  0.79056  0.11880  1.0000
  S   S170      1.0  0.70733  0.72867  0.48068  1.0000
  S   S171      1.0  0.65044  0.78892  0.50301  1.0000
  Fe  Fe86      1.0  0.75228  0.74629  0.48852  1.0000
  S   S172      1.0  0.78475  0.75355  0.44059  1.0000
  C   C1184     1.0  0.64893  0.68805  0.14571  1.0000
  C   C1185     1.0  0.60097  0.80788  0.39199  1.0000
  C   C1186     1.0  0.58952  0.81409  0.42805  1.0000
  C   C1187     1.0  0.60540  0.80846  0.46131  1.0000
  C   C1188     1.0  0.63285  0.79612  0.45922  1.0000
  C   C1189     1.0  0.64482  0.79009  0.42315  1.0000
  C   C1190     1.0  0.62894  0.79629  0.38941  1.0000
  H   H954      1.0  0.56801  0.82311  0.43033  1.0000
  H   H955      1.0  0.59607  0.81330  0.48897  1.0000
  H   H956      1.0  0.66609  0.78065  0.42131  1.0000
  H   H957      1.0  0.63795  0.79162  0.36155  1.0000
  C   C1191     1.0  0.94075  0.74870  0.20838  1.0000
  C   C1192     1.0  0.94879  0.72985  0.23554  1.0000
  C   C1193     1.0  0.91180  0.78929  0.10518  1.0000
  C   C1194     1.0  0.51673  0.74797  0.20961  1.0000
  H   H958      1.0  0.66521  0.70308  0.09257  1.0000
  C   C1195     1.0  0.96104  0.76814  0.19757  1.0000
  H   H959      1.0  0.93327  0.71487  0.24405  1.0000
  H   H960      1.0  0.52620  0.77207  0.25930  1.0000
  H   H961      1.0  0.50102  0.72193  0.16477  1.0000
  H   H962      1.0  0.95484  0.78267  0.17647  1.0000
  C   C1196     1.0  0.74461  0.73337  0.18240  1.0000
  C   C1197     1.0  0.75834  0.75471  0.20090  1.0000
  C   C1198     1.0  0.74137  0.77548  0.21630  1.0000
  C   C1199     1.0  0.71062  0.77491  0.21368  1.0000
  C   C1200     1.0  0.69684  0.75308  0.19659  1.0000
  C   C1201     1.0  0.71383  0.73248  0.18065  1.0000
  H   H963      1.0  0.78202  0.75558  0.20224  1.0000
  H   H964      1.0  0.75209  0.79238  0.22948  1.0000
  H   H965      1.0  0.67321  0.75254  0.19468  1.0000
  H   H966      1.0  0.70318  0.71591  0.16664  1.0000
  C   C1202     1.0  0.81573  0.69303  0.35003  1.0000
  C   C1203     1.0  0.80617  0.68435  0.38609  1.0000
  C   C1204     1.0  0.79538  0.70251  0.41360  1.0000
  C   C1205     1.0  0.79450  0.72959  0.40547  1.0000
  C   C1206     1.0  0.80360  0.73822  0.36930  1.0000
  C   C1207     1.0  0.81384  0.72004  0.34155  1.0000
  H   H967      1.0  0.78868  0.69568  0.44151  1.0000
  H   H968      1.0  0.80282  0.75913  0.36286  1.0000
  H   H969      1.0  0.82073  0.72699  0.31391  1.0000
  C   C1208     1.0  0.56304  0.89907  0.15828  1.0000
  C   C1209     1.0  0.56336  0.92597  0.14813  1.0000
  C   C1210     1.0  0.54464  0.93564  0.11928  1.0000
  C   C1211     1.0  0.52526  0.91848  0.10039  1.0000
  C   C1212     1.0  0.52530  0.89145  0.11002  1.0000
  C   C1213     1.0  0.54399  0.88177  0.13900  1.0000
  H   H970      1.0  0.57803  0.93948  0.16293  1.0000
  H   H971      1.0  0.54486  0.95646  0.11214  1.0000
  C   C1214     1.0  0.60676  0.70341  0.28715  1.0000
  H   H972      1.0  0.54332  0.86110  0.14695  1.0000
  C   C1215     1.0  0.93652  0.67660  0.12577  1.0000
  H   H973      1.0  0.66299  0.80454  0.13141  1.0000
  H   H974      1.0  0.57928  0.70618  0.46145  1.0000
  C   C1216     1.0  0.50858  0.68894  0.28169  1.0000
  C   C1217     1.0  0.93324  0.82999  0.34346  1.0000
  C   C1218     1.0  0.93107  0.80610  0.32266  1.0000
  S   S173      1.0  0.73568  0.78374  0.51673  1.0000
  P   P41       1.0  0.89920  0.78488  0.32644  1.0000
  C   C1219     1.0  0.87770  0.79257  0.36858  1.0000
  C   C1220     1.0  0.87506  0.78908  0.28571  1.0000
  C   C1221     1.0  0.88586  0.79773  0.25038  1.0000
  C   C1222     1.0  0.86672  0.80117  0.21936  1.0000
  C   C1223     1.0  0.83675  0.79599  0.22333  1.0000
  C   C1224     1.0  0.82584  0.78737  0.25839  1.0000
  C   C1225     1.0  0.84490  0.78376  0.28935  1.0000
  C   C1226     1.0  0.86081  0.81591  0.36970  1.0000
  C   C1227     1.0  0.74927  0.69720  0.26026  1.0000
  C   C1228     1.0  0.91177  0.75095  0.32925  1.0000
  C   C1229     1.0  0.89422  0.73011  0.31545  1.0000
  C   C1230     1.0  0.90351  0.70385  0.31936  1.0000
  C   C1231     1.0  0.93051  0.69817  0.33648  1.0000
  C   C1232     1.0  0.94814  0.71878  0.35033  1.0000
  C   C1233     1.0  0.93868  0.74505  0.34716  1.0000
  H   H975      1.0  0.68690  0.65915  0.31091  1.0000
  H   H976      1.0  0.92516  0.83272  0.02103  1.0000
  H   H977      1.0  0.58057  0.75488  0.10371  1.0000
  H   H978      1.0  0.91567  0.83659  0.36192  1.0000
  C   C1234     1.0  0.94352  0.78529  0.04991  1.0000
  H   H979      1.0  0.67624  0.76191  0.29865  1.0000
  H   H980      1.0  0.67288  0.84736  0.50475  1.0000
  H   H981      1.0  0.82208  0.79807  0.19903  1.0000
  H   H982      1.0  0.80269  0.78287  0.26138  1.0000
  H   H983      1.0  0.83608  0.77652  0.31598  1.0000
  H   H984      1.0  0.86184  0.82991  0.34638  1.0000
  H   H985      1.0  0.88692  0.75566  0.39793  1.0000
  H   H986      1.0  0.87327  0.73400  0.30196  1.0000
  H   H987      1.0  0.49574  0.91033  0.17275  1.0000
  C   C1235     1.0  0.67435  0.67182  0.44058  1.0000
  C   C1236     1.0  0.93936  0.85376  0.22305  1.0000
  H   H988      1.0  0.60266  0.84755  0.06723  1.0000
  H   H989      1.0  0.82282  0.80534  0.45191  1.0000
  C   C1237     1.0  0.72064  0.68336  0.39113  1.0000
  C   C1238     1.0  0.65191  0.70739  0.11750  1.0000
  H   H990      1.0  0.93758  0.67776  0.33916  1.0000
  C   C1239     1.0  0.92077  0.84698  0.15861  1.0000
  H   H991      1.0  0.64761  0.69571  0.40392  1.0000
  C   C1240     1.0  0.56956  0.82018  0.08587  1.0000
  C   C1241     1.0  0.73268  0.76710  0.09753  1.0000
  C   C1242     1.0  0.66938  0.68784  0.40866  1.0000
  H   H992      1.0  0.95718  0.88642  0.10870  1.0000
  C   C1243     1.0  0.89666  0.76653  0.09332  1.0000
  C   C1244     1.0  0.70990  0.80425  0.13010  1.0000
  H   H993      1.0  0.55231  0.83498  0.08666  1.0000
  C   C1245     1.0  0.94112  0.70393  0.12514  1.0000
  H   H994      1.0  0.70350  0.73880  0.07179  1.0000
  C   C1246     1.0  0.56806  0.89438  0.02027  1.0000
  H   H995      1.0  0.59784  0.69260  0.26286  1.0000
  H   H996      1.0  0.95317  0.78006  0.28259  1.0000
  C   C1247     1.0  0.63847  0.73229  0.12208  1.0000
  C   C1248     1.0  0.93690  0.90416  0.05973  1.0000
  C   C1249     1.0  0.69792  0.79301  0.32991  1.0000
  C   C1250     1.0  0.96865  0.71434  0.13461  1.0000
  H   H997      1.0  0.85260  0.76437  0.45068  1.0000
  C   C1251     1.0  0.70819  0.69716  0.30426  1.0000
  C   C1252     1.0  0.50645  0.69743  0.31982  1.0000
  H   H998      1.0  0.51048  0.87808  0.09534  1.0000
  C   C1253     1.0  0.70496  0.75748  0.08714  1.0000
  H   H999      1.0  0.72495  0.73857  0.39934  1.0000
  H   H1000     1.0  0.73876  0.78498  0.41059  1.0000
  H   H1001     1.0  0.73594  0.73120  0.29281  1.0000
  C   C1254     1.0  0.71700  0.75349  0.37983  1.0000
  C   C1255     1.0  0.87503  0.77423  0.39844  1.0000
  P   P42       1.0  0.95435  0.82907  0.09694  1.0000
  H   H1002     1.0  0.64585  0.93808  0.49374  1.0000
  H   H1003     1.0  0.52166  0.90677  0.23380  1.0000
  S   S174      1.0  0.83107  0.66974  0.31725  1.0000
  C   C1256     1.0  0.75735  0.85038  0.49228  1.0000
  H   H1004     1.0  0.88966  0.68783  0.30922  1.0000
  H   H1005     1.0  0.74725  0.65967  0.42874  1.0000
  H   H1006     1.0  0.84851  0.83259  0.51399  1.0000
  H   H1007     1.0  0.80751  0.66351  0.39293  1.0000
  C   C1257     1.0  0.64379  0.74291  0.03949  1.0000
  H   H1008     1.0  0.92321  0.71707  0.11786  1.0000
  C   C1258     1.0  0.96718  0.84552  0.21111  1.0000
  H   H1009     1.0  0.90278  0.84826  0.13832  1.0000
  H   H1010     1.0  0.54746  0.77486  0.40245  1.0000
  C   C1259     1.0  0.52036  0.89301  0.25729  1.0000
  C   C1260     1.0  0.54457  0.89078  0.28178  1.0000
  C   C1261     1.0  0.54428  0.87251  0.31158  1.0000
  C   C1262     1.0  0.51984  0.85624  0.31673  1.0000
  C   C1263     1.0  0.92344  0.89993  0.02423  1.0000
  H   H1011     1.0  0.65973  0.66904  0.14227  1.0000
  C   C1264     1.0  0.90492  0.75314  0.05988  1.0000
  C   C1265     1.0  0.94851  0.83807  0.14661  1.0000
  C   C1266     1.0  0.70231  0.66144  0.44755  1.0000
  C   C1267     1.0  0.69646  0.84894  0.50133  1.0000
  H   H1012     1.0  0.50524  0.79790  0.16870  1.0000
  H   H1013     1.0  0.78101  0.85018  0.48929  1.0000
  H   H1014     1.0  0.56595  0.88822  0.04977  1.0000
  C   C1268     1.0  0.95449  0.79827  0.29909  1.0000
  C   C1269     1.0  0.73962  0.84024  0.46289  1.0000
  C   C1270     1.0  0.92864  0.85248  0.03228  1.0000
  H   H1015     1.0  0.94033  0.92417  0.07033  1.0000
  C   C1271     1.0  0.95868  0.84546  0.34109  1.0000
  C   C1272     1.0  0.67946  0.77135  0.09788  1.0000
  C   C1273     1.0  0.62040  0.80825  0.07463  1.0000
  H   H1016     1.0  0.75656  0.79750  0.12803  1.0000
  H   H1017     1.0  0.49603  0.82803  0.22297  1.0000
  H   H1018     1.0  0.61014  0.71411  0.05256  1.0000
  H   H1019     1.0  0.56340  0.87027  0.32988  1.0000
  H   H1020     1.0  0.52020  0.84144  0.33904  1.0000
  H   H1021     1.0  0.52315  0.69905  0.26217  1.0000
  H   H1022     1.0  0.93591  0.85983  0.25252  1.0000
  C   C1274     1.0  0.62461  0.72192  0.03082  1.0000
  H   H1023     1.0  0.56400  0.90264  0.27675  1.0000
  H   H1024     1.0  0.97209  0.73555  0.13382  1.0000
  H   H1025     1.0  0.96911  0.71446  0.36360  1.0000
  C   C1275     1.0  0.49567  0.85824  0.29210  1.0000
  S   S175      1.0  0.81774  0.65887  0.20856  1.0000
  C   C1276     1.0  0.60023  0.73505  0.33880  1.0000
  H   H1026     1.0  0.63055  0.67862  0.20070  1.0000
  C   C1277     1.0  0.56267  0.71560  0.44387  1.0000
  H   H1027     1.0  0.58670  0.74941  0.35378  1.0000
  C   C1278     1.0  0.62271  0.73772  0.15566  1.0000
  C   C1279     1.0  0.61952  0.71833  0.18361  1.0000
  C   C1280     1.0  0.61473  0.78216  0.08627  1.0000
  H   H1028     1.0  0.89472  0.86141  0.20583  1.0000
  Fe  Fe87      1.0  0.86049  0.65791  0.17657  1.0000
  S   S176      1.0  0.88602  0.67559  0.22593  1.0000
  C   C1281     1.0  0.59796  0.82724  0.07489  1.0000
  C   C1282     1.0  0.72546  0.66731  0.42294  1.0000
  H   H1029     1.0  0.61320  0.75703  0.16077  1.0000
  H   H1030     1.0  0.60700  0.72291  0.20914  1.0000
  H   H1031     1.0  0.76745  0.70740  0.24706  1.0000
  H   H1032     1.0  0.50396  0.75001  0.38065  1.0000
  C   C1283     1.0  0.70918  0.83935  0.46754  1.0000
  C   C1284     1.0  0.58586  0.77502  0.09576  1.0000
  H   H1033     1.0  0.96035  0.86380  0.35731  1.0000
  C   C1285     1.0  0.74385  0.67069  0.25096  1.0000
  C   C1286     1.0  0.92847  0.76243  0.03829  1.0000
  C   C1287     1.0  0.93511  0.79908  0.08327  1.0000
  C   C1288     1.0  0.94636  0.88264  0.08151  1.0000
  S   S177      1.0  0.94815  0.98564  0.06430  1.0000
  H   H1034     1.0  0.87888  0.75894  0.11066  1.0000
  H   H1035     1.0  0.56631  0.72415  0.29867  1.0000
  H   H1036     1.0  0.75221  0.75575  0.09055  1.0000
  C   C1289     1.0  0.98009  0.81344  0.29741  1.0000
  S   S178      1.0  0.49981  0.93006  0.06591  1.0000
  H   H1037     1.0  0.58532  0.75314  0.44270  1.0000
  C   C1290     1.0  0.85563  0.77913  0.42865  1.0000
  H   H1038     1.0  0.95242  0.76070  0.35872  1.0000
  Fe  Fe88      1.0  0.69145  0.76455  0.51273  1.0000
  C   C1291     1.0  0.83877  0.80227  0.42934  1.0000
  C   C1292     1.0  0.51630  0.71360  0.40917  1.0000
  H   H1039     1.0  0.63810  0.74276  0.37382  1.0000
  C   C1293     1.0  0.68215  0.79448  0.12026  1.0000
  H   H1040     1.0  0.69538  0.83048  0.44552  1.0000
  C   C1294     1.0  0.91618  0.85459  0.19676  1.0000
  C   C1295     1.0  0.49635  0.73056  0.19255  1.0000
  H   H1041     1.0  0.51965  0.71402  0.32925  1.0000
  H   H1042     1.0  0.89331  0.73534  0.05110  1.0000
  H   H1043     1.0  0.71174  0.82166  0.14841  1.0000
  C   C1296     1.0  0.63643  0.70070  0.29701  1.0000
  C   C1297     1.0  0.84152  0.82076  0.40003  1.0000
  C   C1298     1.0  0.63266  0.69350  0.17873  1.0000
  C   C1299     1.0  0.69887  0.74672  0.34867  1.0000
  C   C1300     1.0  0.70373  0.67014  0.29608  1.0000
  H   H1044     1.0  0.64222  0.81406  0.06584  1.0000
  H   H1045     1.0  0.73896  0.68786  0.37251  1.0000
  C   C1301     1.0  0.72510  0.77990  0.38621  1.0000
  P   P43       1.0  0.64378  0.75769  0.08667  1.0000
  C   C1302     1.0  0.64804  0.71475  0.32851  1.0000
  C   C1303     1.0  0.94221  0.85660  0.06807  1.0000
  H   H1046     1.0  0.90906  0.80109  0.24617  1.0000
  H   H1047     1.0  0.65673  0.66780  0.46048  1.0000
  H   H1048     1.0  0.53559  0.68098  0.44065  1.0000
  H   H1049     1.0  0.69050  0.80833  0.31057  1.0000
  C   C1304     1.0  0.56608  0.74210  0.43343  1.0000
  C   C1305     1.0  0.68976  0.76664  0.32338  1.0000
  C   C1306     1.0  0.71549  0.79966  0.36136  1.0000
  H   H1050     1.0  0.72169  0.82011  0.36633  1.0000
  H   H1051     1.0  0.74951  0.83225  0.43707  1.0000
  C   C1307     1.0  0.58879  0.72088  0.30767  1.0000
  H   H1052     1.0  0.87536  0.80687  0.19182  1.0000
  C   C1308     1.0  0.54473  0.75437  0.41084  1.0000
  P   P44       1.0  0.68659  0.71304  0.34106  1.0000
  H   H1053     1.0  0.90538  0.79874  0.13170  1.0000
  C   C1309     1.0  0.56351  0.79405  0.09611  1.0000
  C   C1310     1.0  0.52008  0.74018  0.39853  1.0000
  C   C1311     1.0  0.73131  0.71060  0.28638  1.0000
  C   C1312     1.0  0.69252  0.69361  0.38358  1.0000
  H   H1054     1.0  0.65016  0.68812  0.27945  1.0000
  C   C1313     1.0  0.53784  0.70137  0.43191  1.0000
  H   H1055     1.0  0.54163  0.78854  0.10514  1.0000
  C   C1314     1.0  0.97177  0.83767  0.17315  1.0000
  H   H1056     1.0  0.67894  0.90023  0.50381  1.0000
  C   C1315     1.0  0.97679  0.73079  0.25240  1.0000
  C   C1316     1.0  0.98217  0.83709  0.31829  1.0000
  C   C1317     1.0  0.95934  0.65968  0.13645  1.0000
  H   H1057     1.0  0.61517  0.89683  0.02268  1.0000
  H   H1058     1.0  0.98545  0.84560  0.23102  1.0000
  H   H1059     1.0  0.96162  0.79236  0.03272  1.0000
  H   H1060     1.0  0.75735  0.66068  0.22990  1.0000
  H   H1061     1.0  0.98264  0.71656  0.27413  1.0000
  Fe  Fe89      1.0  0.49859  0.97248  0.04364  1.0000
  H   H1062     1.0  0.91517  0.66847  0.11835  1.0000
  C   C1318     1.0  0.49280  0.81595  0.16422  1.0000
  C   C1319     1.0  0.72122  0.65708  0.26906  1.0000
  C   C1320     1.0  0.49085  0.66830  0.26813  1.0000
  H   H1063     1.0  0.49183  0.66237  0.23825  1.0000
  C   C1321     1.0  0.98666  0.67005  0.14775  1.0000
  H   H1064     1.0  0.48870  0.95565  0.14848  1.0000
  Fe  Fe90      1.0  0.84081  0.91007  0.69033  1.0000
  S   S179      1.0  0.82579  0.95259  0.68807  1.0000
  S   S180      1.0  0.83298  0.88623  0.63571  1.0000
  Fe  Fe91      1.0  0.86569  0.91681  0.77143  1.0000
  S   S181      1.0  0.85168  0.95911  0.77514  1.0000
  S   S182      1.0  0.89221  0.89944  0.82013  1.0000
  Fe  Fe92      1.0  0.80973  0.94556  0.74770  1.0000
  H   H1065     1.0  0.93180  0.85317  0.69756  1.0000
  Fe  Fe93      1.0  0.86925  0.96218  0.71551  1.0000
  C   C1322     1.0  0.57277  0.87264  0.80288  1.0000
  S   S183      1.0  0.82212  0.90236  0.74867  1.0000
  S   S184      1.0  0.88591  0.92045  0.71290  1.0000
  C   C1323     1.0  0.97336  0.75363  0.63921  1.0000
  C   C1324     1.0  0.54451  0.94221  0.88296  1.0000
  C   C1325     1.0  0.70429  0.96024  0.65505  1.0000
  Fe  Fe94      1.0  0.74102  0.76218  0.57194  1.0000
  S   S185      1.0  0.76138  0.72605  0.54446  1.0000
  S   S186      1.0  0.75678  0.78077  0.62790  1.0000
  Fe  Fe95      1.0  0.71492  0.71082  0.53905  1.0000
  S   S187      1.0  0.50003  0.97896  0.97985  1.0000
  S   S188      1.0  0.69534  0.74532  0.57041  1.0000
  H   H1066     1.0  0.73721  0.87964  0.70618  1.0000
  H   H1067     1.0  0.58683  0.83191  0.79859  1.0000
  H   H1068     1.0  0.78439  0.67560  0.56939  1.0000
  C   C1326     1.0  0.87344  0.82936  0.56631  1.0000
  H   H1069     1.0  0.62702  0.92244  0.84231  1.0000
  C   C1327     1.0  0.64013  0.93347  0.59053  1.0000
  C   C1328     1.0  0.61555  0.96243  0.92009  1.0000
  C   C1329     1.0  0.54548  0.90692  0.96015  1.0000
  H   H1070     1.0  0.73041  0.91248  0.79987  1.0000
  C   C1330     1.0  0.68791  0.94466  0.68005  1.0000
  H   H1071     1.0  0.70305  0.86202  0.65767  1.0000
  H   H1072     1.0  0.88382  0.84844  0.56260  1.0000
  C   C1331     1.0  0.58353  0.88496  0.64307  1.0000
  C   C1332     1.0  0.89589  0.91930  0.86193  1.0000
  C   C1333     1.0  0.87497  0.93860  0.87126  1.0000
  C   C1334     1.0  0.87788  0.95370  0.90508  1.0000
  C   C1335     1.0  0.90202  0.95001  0.92952  1.0000
  C   C1336     1.0  0.92322  0.93097  0.92005  1.0000
  C   C1337     1.0  0.91987  0.91536  0.88666  1.0000
  H   H1073     1.0  0.85602  0.94136  0.85307  1.0000
  C   C1338     1.0  0.59578  0.89934  0.00499  1.0000
  H   H1074     1.0  0.52147  0.89426  0.00974  1.0000
  H   H1075     1.0  0.93610  0.90042  0.87974  1.0000
  C   C1339     1.0  0.80992  0.85804  0.63414  1.0000
  C   C1340     1.0  0.80278  0.84669  0.59850  1.0000
  C   C1341     1.0  0.78575  0.82346  0.59609  1.0000
  C   C1342     1.0  0.77619  0.81112  0.62947  1.0000
  C   C1343     1.0  0.78260  0.82290  0.66513  1.0000
  C   C1344     1.0  0.79913  0.84644  0.66745  1.0000
  H   H1076     1.0  0.81072  0.85580  0.57263  1.0000
  H   H1077     1.0  0.78063  0.81474  0.56849  1.0000
  H   H1078     1.0  0.77499  0.81363  0.69108  1.0000
  H   H1079     1.0  0.80403  0.85531  0.69500  1.0000
  H   H1080     1.0  0.67446  0.75043  0.95127  1.0000
  H   H1081     1.0  0.60771  0.81617  0.58474  1.0000
  H   H1082     1.0  0.69597  0.92523  0.68751  1.0000
  C   C1345     1.0  0.59512  0.84830  0.85481  1.0000
  C   C1346     1.0  0.66126  0.75353  0.01036  1.0000
  H   H1083     1.0  0.87009  0.77683  0.62696  1.0000
  H   H1084     1.0  0.57053  0.87364  0.62265  1.0000
  C   C1347     1.0  0.75896  0.66057  0.61624  1.0000
  C   C1348     1.0  0.76030  0.90440  0.66664  1.0000
  C   C1349     1.0  0.58745  0.98642  0.81139  1.0000
  C   C1350     1.0  0.95394  0.85083  0.59686  1.0000
  C   C1351     1.0  0.57645  0.91142  0.65085  1.0000
  H   H1085     1.0  0.64384  0.87878  0.69972  1.0000
  C   C1352     1.0  0.67487  0.80031  0.62066  1.0000
  C   C1353     1.0  0.59330  0.92611  0.67694  1.0000
  C   C1354     1.0  0.67841  0.67444  0.62172  1.0000
  H   H1086     1.0  0.61337  0.85284  0.65480  1.0000
  C   C1355     1.0  0.66155  0.95433  0.69552  1.0000
  C   C1356     1.0  0.93007  0.90081  0.61305  1.0000
  H   H1087     1.0  0.65613  0.97883  0.77542  1.0000
  H   H1088     1.0  0.49458  0.95854  0.76366  1.0000
  H   H1089     1.0  0.70882  0.87284  0.83045  1.0000
  C   C1357     1.0  0.91028  0.84596  0.70544  1.0000
  H   H1090     1.0  0.68522  0.69491  0.62005  1.0000
  H   H1091     1.0  0.62014  0.91152  0.95587  1.0000
  H   H1092     1.0  0.92086  0.92013  0.61972  1.0000
  H   H1093     1.0  0.85143  0.81131  0.67100  1.0000
  C   C1358     1.0  0.85342  0.82041  0.53856  1.0000
  H   H1094     1.0  0.56079  0.91288  0.81531  1.0000
  H   H1095     1.0  0.51830  0.90802  0.86667  1.0000
  H   H1096     1.0  0.90905  0.87098  0.98276  1.0000
  H   H1097     1.0  0.59987  0.96664  0.94271  1.0000
  S   S189      1.0  0.90393  0.96848  0.97268  1.0000
  C   C1359     1.0  0.94009  0.78107  0.60248  1.0000
  H   H1098     1.0  0.93951  0.94320  0.79625  1.0000
  C   C1360     1.0  0.63550  0.94294  0.55354  1.0000
  C   C1361     1.0  0.91505  0.87792  0.62374  1.0000
  H   H1099     1.0  0.89431  0.87990  0.63855  1.0000
  H   H1100     1.0  0.55806  0.92075  0.63638  1.0000
  H   H1101     1.0  0.64162  0.71237  0.93682  1.0000
  H   H1102     1.0  0.91629  0.91670  0.00733  1.0000
  C   C1362     1.0  0.87980  0.81373  0.59840  1.0000
  C   C1363     1.0  0.85484  0.82814  0.72726  1.0000
  H   H1103     1.0  0.66186  0.90449  0.62524  1.0000
  H   H1104     1.0  0.63460  0.85647  0.56636  1.0000
  C   C1364     1.0  0.64593  0.84126  0.58234  1.0000
  C   C1365     1.0  0.96889  0.87381  0.58605  1.0000
  P   P45       1.0  0.64003  0.93413  0.72716  1.0000
  C   C1366     1.0  0.61883  0.95476  0.75922  1.0000
  C   C1367     1.0  0.66241  0.91417  0.75857  1.0000
  C   C1368     1.0  0.69130  0.92166  0.76772  1.0000
  C   C1369     1.0  0.70799  0.90664  0.79327  1.0000
  C   C1370     1.0  0.58892  0.94993  0.76588  1.0000
  C   C1371     1.0  0.57329  0.96586  0.79175  1.0000
  C   C1372     1.0  0.97592  0.97352  0.86973  1.0000
  H   H1105     1.0  0.94278  0.80097  0.69609  1.0000
  C   C1373     1.0  0.93043  0.98259  0.81736  1.0000
  H   H1106     1.0  0.67333  0.94758  0.84141  1.0000
  H   H1107     1.0  0.70106  0.93921  0.75559  1.0000
  C   C1374     1.0  0.94565  0.95851  0.81674  1.0000
  H   H1108     1.0  0.57752  0.93400  0.75128  1.0000
  H   H1109     1.0  0.74870  0.67953  0.62250  1.0000
  C   C1375     1.0  0.57323  0.91230  0.94468  1.0000
  H   H1110     1.0  0.96367  0.83175  0.59051  1.0000
  C   C1376     1.0  0.63299  0.97508  0.77968  1.0000
  C   C1377     1.0  0.66679  0.87718  0.80245  1.0000
  H   H1111     1.0  0.86350  0.84814  0.78108  1.0000
  C   C1378     1.0  0.93362  0.79619  0.63539  1.0000
  C   C1379     1.0  0.76272  0.91258  0.62867  1.0000
  H   H1112     1.0  0.65722  0.86010  0.81623  1.0000
  C   C1380     1.0  0.62461  0.88794  0.68719  1.0000
  C   C1381     1.0  0.95987  0.75988  0.60443  1.0000
  H   H1113     1.0  0.55014  0.96239  0.79657  1.0000
  C   C1382     1.0  0.84500  0.78067  0.57519  1.0000
  P   P46       1.0  0.90794  0.82348  0.63241  1.0000
  H   H1114     1.0  0.60462  0.83017  0.86579  1.0000
  H   H1115     1.0  0.93508  0.75191  0.01254  1.0000
  H   H1116     1.0  0.62960  0.94320  0.61463  1.0000
  H   H1117     1.0  0.60936  0.69446  0.98752  1.0000
  H   H1118     1.0  0.83317  0.82153  0.73557  1.0000
  C   C1383     1.0  0.67600  0.84356  0.59075  1.0000
  H   H1119     1.0  0.72512  0.95319  0.64432  1.0000
  C   C1384     1.0  0.89959  0.85189  0.74196  1.0000
  H   H1120     1.0  0.97751  0.76370  0.69905  1.0000
  C   C1385     1.0  0.95705  0.89879  0.59433  1.0000
  C   C1386     1.0  0.86546  0.78928  0.60254  1.0000
  H   H1121     1.0  0.77533  0.91201  0.68815  1.0000
  H   H1122     1.0  0.94186  0.92791  0.93876  1.0000
  C   C1387     1.0  0.77887  0.65834  0.58604  1.0000
  C   C1388     1.0  0.66808  0.90903  0.52829  1.0000
  C   C1389     1.0  0.65010  0.89211  0.77671  1.0000
  C   C1390     1.0  0.69580  0.88437  0.81056  1.0000
  C   C1391     1.0  0.89331  0.83105  0.67938  1.0000
  H   H1123     1.0  0.52023  0.96017  0.67690  1.0000
  C   C1392     1.0  0.64496  0.79808  0.61223  1.0000
  H   H1124     1.0  0.82311  0.78939  0.52208  1.0000
  C   C1393     1.0  0.91937  0.87411  0.01046  1.0000
  C   C1394     1.0  0.72242  0.88350  0.61036  1.0000
  C   C1395     1.0  0.92696  0.85274  0.61611  1.0000
  C   C1396     1.0  0.87185  0.84307  0.75288  1.0000
  H   H1125     1.0  0.91267  0.86366  0.76174  1.0000
  H   H1126     1.0  0.75895  0.86669  0.54887  1.0000
  C   C1397     1.0  0.96831  0.95395  0.84296  1.0000
  C   C1398     1.0  0.66375  0.66530  0.65452  1.0000
  H   H1127     1.0  0.65930  0.67894  0.67787  1.0000
  H   H1128     1.0  0.74521  0.90969  0.57170  1.0000
  C   C1399     1.0  0.86541  0.82225  0.69054  1.0000
  C   C1400     1.0  0.73884  0.88606  0.67673  1.0000
  C   C1401     1.0  0.69048  0.82262  0.60906  1.0000
  C   C1402     1.0  0.71980  0.87579  0.64884  1.0000
  H   H1129     1.0  0.52564  0.91002  0.94367  1.0000
  H   H1130     1.0  0.68638  0.78425  0.63476  1.0000
  C   C1403     1.0  0.60763  0.87324  0.66121  1.0000
  H   H1131     1.0  0.62756  0.88657  0.77111  1.0000
  C   C1404     1.0  0.83917  0.79610  0.54303  1.0000
  C   C1405     1.0  0.59843  0.90798  0.96722  1.0000
  C   C1406     1.0  0.50904  0.97900  0.67455  1.0000
  C   C1407     1.0  0.61708  0.91430  0.69602  1.0000
  Fe  Fe96      1.0  0.94784  0.97483  0.00182  1.0000
  C   C1408     1.0  0.54299  0.89789  0.99773  1.0000
  H   H1132     1.0  0.58794  0.94683  0.68184  1.0000
  C   C1409     1.0  0.74347  0.90262  0.60079  1.0000
  H   H1133     1.0  0.71397  0.82333  0.61390  1.0000
  S   S190      1.0  0.76516  0.95756  0.77055  1.0000
  C   C1410     1.0  0.60975  0.94273  0.89242  1.0000
  C   C1411     1.0  0.63079  0.93747  0.86398  1.0000
  C   C1412     1.0  0.65714  0.95172  0.86333  1.0000
  C   C1413     1.0  0.68416  0.65707  0.59124  1.0000
  H   H1134     1.0  0.60037  0.86938  0.90797  1.0000
  C   C1414     1.0  0.62398  0.71086  0.99395  1.0000
  P   P47       1.0  0.57673  0.92297  0.89563  1.0000
  C   C1415     1.0  0.59258  0.87059  0.87872  1.0000
  H   H1135     1.0  0.63328  0.78011  0.61945  1.0000
  P   P48       1.0  0.69683  0.87157  0.57434  1.0000
  H   H1136     1.0  0.91318  0.98575  0.79648  1.0000
  H   H1137     1.0  0.92205  0.96875  0.64176  1.0000
  C   C1416     1.0  0.66250  0.97152  0.89068  1.0000
  C   C1417     1.0  0.64209  0.72100  0.96536  1.0000
  H   H1138     1.0  0.77987  0.92638  0.62089  1.0000
  C   C1418     1.0  0.65844  0.91159  0.59642  1.0000
  C   C1419     1.0  0.63054  0.81848  0.59288  1.0000
  H   H1139     1.0  0.96881  0.91660  0.58649  1.0000
  C   C1420     1.0  0.67257  0.89921  0.56539  1.0000
  C   C1421     1.0  0.58513  0.84929  0.81695  1.0000
  H   H1140     1.0  0.56491  0.87342  0.77356  1.0000
  C   C1422     1.0  0.57040  0.89499  0.82665  1.0000
  C   C1423     1.0  0.66062  0.74241  0.97352  1.0000
  H   H1141     1.0  0.96471  0.74827  0.57896  1.0000
  S   S191      1.0  0.70270  0.66765  0.54946  1.0000
  C   C1424     1.0  0.57992  0.89405  0.86491  1.0000
  H   H1142     1.0  0.67541  0.77036  0.01609  1.0000
  C   C1425     1.0  0.94731  0.78979  0.67023  1.0000
  H   H1143     1.0  0.83339  0.76214  0.57909  1.0000
  C   C1426     1.0  0.54409  0.96988  0.88763  1.0000
  C   C1427     1.0  0.51906  0.92939  0.86943  1.0000
  H   H1144     1.0  0.92989  0.78567  0.57525  1.0000
  C   C1428     1.0  0.49402  0.94406  0.86005  1.0000
  C   C1429     1.0  0.96708  0.76858  0.67206  1.0000
  C   C1430     1.0  0.65104  0.97919  0.68403  1.0000
  H   H1145     1.0  0.86124  0.96814  0.91246  1.0000
  C   C1431     1.0  0.49380  0.97154  0.86515  1.0000
  C   C1432     1.0  0.64170  0.97686  0.91904  1.0000
  H   H1146     1.0  0.56297  0.98042  0.89846  1.0000
  H   H1147     1.0  0.97286  0.96793  0.61596  1.0000
  H   H1148     1.0  0.62115  0.95981  0.54903  1.0000
  H   H1149     1.0  0.97974  0.93511  0.84279  1.0000
  C   C1433     1.0  0.93946  0.97907  0.65678  1.0000
  H   H1150     1.0  0.68278  0.98273  0.88992  1.0000
  C   C1434     1.0  0.74466  0.85996  0.52613  1.0000
  C   C1435     1.0  0.71403  0.85986  0.53065  1.0000
  C   C1436     1.0  0.64943  0.93071  0.52244  1.0000
  C   C1437     1.0  0.69402  0.98515  0.64434  1.0000
  C   C1438     1.0  0.74667  0.98447  0.74962  1.0000
  C   C1439     1.0  0.96818  0.97881  0.64205  1.0000
  H   H1151     1.0  0.71096  0.98306  0.78986  1.0000
  H   H1152     1.0  0.63027  0.98681  0.69455  1.0000
  C   C1440     1.0  0.51886  0.98445  0.87876  1.0000
  S   S192      1.0  0.98692  0.94791  0.00629  1.0000
