data_image0
_chemical_formula_structural       FeS2FeS2FeSFeS3FeSH2SCFeSFeSH2S2HC2HC2H4CPCHC3SCHCHC6H4C3HC7H4C2HC3PC9H2CH7CH4CH2CH5CH3C4HC4H2C12H5CH4CH2C3H4C2H4CHCH3CH2CHFeCSC9H2SHCH2C6PC12HC3HCPC3H3CHC2FeHC4H3CH2CH3CH7CHPC2HCHCSFeS2FeS2FeSFeS3FeSHPSCFeSFeSHCS2HPH2C9HC5H3C6H4C2H2C7H4CH3C6HCHC2H2CH2CHCH2CHCHCHC8PC18H23C2HC2HCHC5HC2H2CH2CHCH2CHCHCH3C3HCHC4HCH2C2HC3HC2HC2H2C2PH2C2H2C2H2C2H2C4HCH3CHCH2C2HC4HC3HCH2CHC4H2CHPHC2H3CHS2FeSFeSHCHSCHC6H4CHSH2SCFeSFeS3HC2PCH2C2H2FeC6H4C2SCH2C3H2CHC4H2SCH3C5HC2HC2HC5H5CH2SHCPHCHCH2CHC3H3C6PC18H17CH2C2FeCH2C2HCHCHC3HCHC2H2C2FeHCHC2HCHS2FeSFeSH3SH2C6H4CPSC2SCFeSFeS4H6C2HCHC6H5C2H2CFeC2H2PH2C8H2CH2S2C2H2CH4C4HCH3FeH2C9PC15HC2H17CH2C2HCHCFeSC2H3C4HPHC6HCHCHC7HC2HC3H2C2FeHCSCSFeSFeSCSC2FeSFeS2FeS2FeSFeS3C2H3C6H4C2H2C3H3C7H4C2HCHC6H3CH3CH4CHCSCHC6PC2H2C3HFeHC3H6CSC4H5C6PC18H17CH3CHC2H2CHC3H5CH4CH5C2PC4HC3HCHCHC3HC3HC4HC4H2SCHCHCHCH4CH2C2SHSFeSCSHCFeSFeS2FeS2FeSFeS3C2SHC7H4C7H3C7H4C8PC18H22C3HPCHCHCHC8HC4FeC2PH2C3H6PCHC2HC2H2C2H2C2H2C2FeSCHC2HCHCHCH3CHCH2SHCSHCHC3H2C2H2C2H2C2H4CFeSCHCHCHCHC2H2C2HCH2FeS2FeS2FeSFeS3CHC4FeSFeSHCS2HC2HCH2C5H2C6H4C6H3C4H2C7PCSCHC2H3C4H5C2H6CPC2H3FeHCH2CH2C3HPC7HCHC4H3CHCH2CH3CH2CH4CH5CSCH2CH3CH2CPHSC2SCHC3HCHCHCHC5HCHC6HCH3C2H2C2HFeC3FeS2FeS2FeSFeS4HCH2CFeSFeSCHS2C3HC5HCH3C6H4C6H3CHCHCH2PC2HCHC2H5C3HC3H4C4H4CH3CHC2HCSH3SH4CHCHFeC6HCHCH2C3HC3FeC2HC3PHPHSCFeC2H2CHPHC7SHC3HC7HC2HC4HCH5CH2CHSC4H3C2SHCH3C3HSCH3C2H3CHSHFeSH2C2HSC9H3SHC3PC2HCSC2S3CFeSHSC7H3CHC7HCH3C3H3C2H3C4HCHC3HCHC3H4C6PC6FeHCHC8HPCSH4CHFeC3H6C3HCH2C2HCH3CH5C5H5C2HCH3CH3CHPCH4PC7HC2HC2H2C3H3CH5CHC2H3CHC2HC2H2SHC4HCH2C2H5CPC4HC2HS2CFe2H3CFeCH2CHCH2C6H2FeC3SCFeSCH2C2SCHC6H4CH3CSC2HCH3CSH2FeSCSC7H3CH5CHCHSC2HC5SHCH2C2HC3HC2H2C2H2C2H2CFeHC3HC4FeH7C2HCH2C2H3SC5HPCFeH2C3HCHCHC3H2C2HPC9H2C8HPH7CH2CSCH2CHCHCHCFeH4SCH2C3HCHCH3FeSFeS3C4HCFeS2FeS2FeSFeS3HC3HC7H11C5H4C8H4CHCHC3HPHC14H5CH7SC4PC2HC2H2CHC2SCHC5H10C7HC5HC2HCH2CPHC2HCHCHC2SH3C3HC4HCHFeHCSHC2HCH3C3PH2CH3CHCHCH3CHC2HCHC3HCHCH2C4H3C3H2C2HC2FeSFeS3C4HCFeS2FeS2FeSFeS3HC3HC6H7FeSH4C2SCHCHCHC7H5CHC2H2CHC2H6C3FeCSHC2H3CH2CH2CHCH2C2HCH2C9PC13H13C3H2CHC3PC2H3C4H2CH3CHCHCHCHC2H3CHC2HFeH2C2HCHCHC2H2CHCPH2C3HC2HC3SC4HC2H3CHC2H3C3HFeSHC2HC5HCHC3H2CSCH2
_chemical_formula_sum              "Fe96 S192 H1152 C1440 P48"
_cell_length_a       38.8311
_cell_length_b       51.6394
_cell_length_c       44.9383
_cell_angle_alpha    89.9674
_cell_angle_beta     89.9534
_cell_angle_gamma    90.0831

_space_group_name_H-M_alt    "P 1"
_space_group_IT_number       1

loop_
  _space_group_symop_operation_xyz
  'x, y, z'

loop_
  _atom_site_type_symbol
  _atom_site_label
  _atom_site_symmetry_multiplicity
  _atom_site_fract_x
  _atom_site_fract_y
  _atom_site_fract_z
  _atom_site_occupancy
  Fe  Fe1       1.0  0.21897  0.13706  0.12311  1.0000
  S   S1        1.0  0.22940  0.17771  0.10615  1.0000
  S   S2        1.0  0.26753  0.11183  0.13068  1.0000
  Fe  Fe2       1.0  0.14032  0.14659  0.12179  1.0000
  S   S3        1.0  0.14549  0.18742  0.10528  1.0000
  S   S4        1.0  0.08866  0.12817  0.13381  1.0000
  Fe  Fe3       1.0  0.18563  0.17193  0.07385  1.0000
  S   S5        1.0  0.18637  0.17968  0.02334  1.0000
  Fe  Fe4       1.0  0.18860  0.19023  0.13870  1.0000
  S   S6        1.0  0.19196  0.22705  0.16614  1.0000
  S   S7        1.0  0.17785  0.13028  0.08835  1.0000
  S   S8        1.0  0.18081  0.15047  0.15767  1.0000
  Fe  Fe5       1.0  0.36191  0.99445  0.22991  1.0000
  S   S9        1.0  0.31414  0.01902  0.21769  1.0000
  H   H1        1.0  0.25178  0.15453  0.23022  1.0000
  H   H2        1.0  0.33807  0.12447  0.31358  1.0000
  S   S10       1.0  0.41733  0.00662  0.23530  1.0000
  C   C1        1.0  0.03993  0.19374  0.17740  1.0000
  Fe  Fe6       1.0  0.19426  0.26164  0.33353  1.0000
  S   S11       1.0  0.21154  0.22692  0.30649  1.0000
  Fe  Fe7       1.0  0.17794  0.27845  0.39730  1.0000
  S   S12       1.0  0.17194  0.27036  0.44735  1.0000
  H   H3        1.0  0.37037  0.09062  0.34053  1.0000
  H   H4        1.0  0.17356  0.09596  0.23173  1.0000
  S   S13       1.0  0.14714  0.25798  0.36219  1.0000
  S   S14       1.0  0.22683  0.27906  0.37017  1.0000
  H   H5        1.0  0.37809  0.01159  0.36558  1.0000
  C   C2        1.0  0.40778  0.97991  0.06031  1.0000
  C   C3        1.0  0.44176  0.02708  0.13938  1.0000
  H   H6        1.0  0.46672  0.02466  0.18205  1.0000
  C   C4        1.0  0.31231  0.22117  0.43135  1.0000
  C   C5        1.0  0.02620  0.21119  0.19823  1.0000
  H   H7        1.0  0.06406  0.23484  0.09497  1.0000
  H   H8        1.0  0.07561  0.21998  0.04388  1.0000
  H   H9        1.0  0.27657  0.07644  0.25708  1.0000
  H   H10       1.0  0.10620  0.13616  0.43087  1.0000
  C   C6        1.0  0.09404  0.17193  0.45363  1.0000
  P   P1        1.0  0.29036  0.28825  0.20558  1.0000
  C   C7        1.0  0.26978  0.25121  0.45018  1.0000
  H   H11       1.0  0.29142  0.13624  0.18884  1.0000
  C   C8        1.0  0.18889  0.21860  0.45824  1.0000
  C   C9        1.0  0.17708  0.24212  0.46980  1.0000
  C   C10       1.0  0.11265  0.21108  0.42823  1.0000
  S   S15       1.0  0.17963  0.29988  0.31353  1.0000
  C   C11       1.0  0.29766  0.28741  0.24531  1.0000
  H   H12       1.0  0.19506  0.21715  0.43483  1.0000
  C   C12       1.0  0.05035  0.22764  0.04927  1.0000
  H   H13       1.0  0.18748  0.23511  0.03908  1.0000
  C   C13       1.0  0.19387  0.22537  0.20540  1.0000
  C   C14       1.0  0.18341  0.24682  0.22224  1.0000
  C   C15       1.0  0.18716  0.24695  0.25335  1.0000
  C   C16       1.0  0.20249  0.22597  0.26786  1.0000
  C   C17       1.0  0.21211  0.20418  0.25111  1.0000
  C   C18       1.0  0.20733  0.20373  0.22002  1.0000
  H   H14       1.0  0.17239  0.26345  0.21122  1.0000
  H   H15       1.0  0.17902  0.26364  0.26591  1.0000
  H   H16       1.0  0.22357  0.18776  0.26221  1.0000
  H   H17       1.0  0.21520  0.18711  0.20713  1.0000
  C   C19       1.0  0.04892  0.14076  0.12081  1.0000
  C   C20       1.0  0.04792  0.16115  0.10038  1.0000
  C   C21       1.0  0.38607  0.98429  0.11066  1.0000
  H   H18       1.0  0.07164  0.16950  0.09217  1.0000
  C   C22       1.0  0.19269  0.19685  0.47701  1.0000
  C   C23       1.0  0.27976  0.08589  0.15507  1.0000
  C   C24       1.0  0.31457  0.07810  0.15604  1.0000
  C   C25       1.0  0.32555  0.05756  0.17464  1.0000
  C   C26       1.0  0.30184  0.04437  0.19257  1.0000
  C   C27       1.0  0.26703  0.05197  0.19134  1.0000
  C   C28       1.0  0.25606  0.07264  0.17296  1.0000
  H   H19       1.0  0.33320  0.08812  0.14235  1.0000
  H   H20       1.0  0.35233  0.05197  0.17526  1.0000
  H   H21       1.0  0.24832  0.04180  0.20483  1.0000
  H   H22       1.0  0.22921  0.07819  0.17250  1.0000
  C   C29       1.0  0.32750  0.17948  0.26383  1.0000
  C   C30       1.0  0.35372  0.29636  0.17749  1.0000
  H   H23       1.0  0.38011  0.99595  0.13003  1.0000
  C   C31       1.0  0.12488  0.16917  0.40664  1.0000
  C   C32       1.0  0.40153  0.99539  0.08542  1.0000
  C   C33       1.0  0.08455  0.27098  0.47549  1.0000
  P   P2        1.0  0.40979  0.02974  0.08411  1.0000
  C   C34       1.0  0.42011  0.04160  0.12080  1.0000
  C   C35       1.0  0.40816  0.06580  0.13056  1.0000
  C   C36       1.0  0.37085  0.04410  0.06969  1.0000
  C   C37       1.0  0.36768  0.05014  0.03934  1.0000
  C   C38       1.0  0.33743  0.06150  0.02857  1.0000
  C   C39       1.0  0.30998  0.06644  0.04792  1.0000
  C   C40       1.0  0.31246  0.05948  0.07788  1.0000
  C   C41       1.0  0.34256  0.04799  0.08864  1.0000
  C   C42       1.0  0.05841  0.14442  0.02340  1.0000
  H   H24       1.0  0.38644  0.04966  0.31503  1.0000
  H   H25       1.0  0.34587  0.17893  0.24577  1.0000
  C   C43       1.0  0.45152  0.06088  0.04808  1.0000
  H   H26       1.0  0.01097  0.29355  0.30727  1.0000
  H   H27       1.0  0.23357  0.27715  0.16321  1.0000
  H   H28       1.0  0.38840  0.04601  0.02394  1.0000
  H   H29       1.0  0.01577  0.18001  0.44921  1.0000
  H   H30       1.0  0.28671  0.07562  0.03979  1.0000
  H   H31       1.0  0.29107  0.06320  0.09287  1.0000
  H   H32       1.0  0.34379  0.04236  0.11185  1.0000
  C   C44       1.0  0.08102  0.23410  0.19892  1.0000
  H   H33       1.0  0.24688  0.27270  0.25521  1.0000
  H   H34       1.0  0.25946  0.18413  0.32687  1.0000
  H   H35       1.0  0.33583  0.22025  0.27161  1.0000
  H   H36       1.0  0.29219  0.22306  0.31184  1.0000
  C   C45       1.0  0.27904  0.18263  0.30973  1.0000
  H   H37       1.0  0.41905  0.98818  0.04040  1.0000
  H   H38       1.0  0.20193  0.17880  0.46779  1.0000
  C   C46       1.0  0.22647  0.29342  0.17701  1.0000
  H   H39       1.0  0.31000  0.28834  0.33126  1.0000
  H   H40       1.0  0.33525  0.06654  0.00525  1.0000
  H   H41       1.0  0.39244  0.07784  0.11630  1.0000
  H   H42       1.0  0.03617  0.24670  0.22260  1.0000
  H   H43       1.0  0.29519  0.26885  0.14454  1.0000
  C   C47       1.0  0.43709  0.05973  0.17781  1.0000
  H   H44       1.0  0.09707  0.24974  0.20712  1.0000
  H   H45       1.0  0.13608  0.15766  0.38896  1.0000
  H   H46       1.0  0.36124  0.22137  0.45387  1.0000
  C   C48       1.0  0.36655  0.99261  0.36295  1.0000
  C   C49       1.0  0.29749  0.20465  0.30119  1.0000
  C   C50       1.0  0.18742  0.25593  0.99712  1.0000
  C   C51       1.0  0.08848  0.18169  0.98632  1.0000
  H   H47       1.0  0.43158  0.07543  0.04972  1.0000
  C   C52       1.0  0.27123  0.27904  0.26428  1.0000
  C   C53       1.0  0.33343  0.29607  0.28861  1.0000
  C   C54       1.0  0.45017  0.03612  0.16777  1.0000
  C   C55       1.0  0.18667  0.23345  0.01509  1.0000
  H   H48       1.0  0.38825  0.15006  0.14599  1.0000
  H   H49       1.0  0.38598  0.13166  0.23914  1.0000
  C   C56       1.0  0.10673  0.15934  0.99401  1.0000
  C   C57       1.0  0.01053  0.30184  0.32937  1.0000
  C   C58       1.0  0.10815  0.15709  0.43047  1.0000
  C   C59       1.0  0.01606  0.25657  0.46445  1.0000
  C   C60       1.0  0.18566  0.20889  0.00197  1.0000
  C   C61       1.0  0.33817  0.99669  0.99829  1.0000
  C   C62       1.0  0.28745  0.20909  0.19636  1.0000
  C   C63       1.0  0.28906  0.20583  0.16556  1.0000
  C   C64       1.0  0.29222  0.22742  0.14702  1.0000
  C   C65       1.0  0.29355  0.25230  0.15928  1.0000
  C   C66       1.0  0.29134  0.25581  0.19025  1.0000
  C   C67       1.0  0.28814  0.23394  0.20870  1.0000
  H   H50       1.0  0.02643  0.21466  0.26266  1.0000
  H   H51       1.0  0.21645  0.06376  0.24919  1.0000
  H   H52       1.0  0.28421  0.19239  0.21064  1.0000
  H   H53       1.0  0.28691  0.18665  0.15598  1.0000
  H   H54       1.0  0.29259  0.22488  0.12308  1.0000
  C   C68       1.0  0.03583  0.26859  0.44210  1.0000
  H   H55       1.0  0.28526  0.23585  0.23250  1.0000
  H   H56       1.0  0.25523  0.27256  0.30942  1.0000
  H   H57       1.0  0.19133  0.14140  0.22286  1.0000
  H   H58       1.0  0.36952  0.04270  0.26251  1.0000
  C   C69       1.0  0.02709  0.11580  0.46350  1.0000
  H   H59       1.0  0.41884  0.14249  0.19375  1.0000
  H   H60       1.0  0.44318  0.06639  0.20006  1.0000
  C   C70       1.0  0.27934  0.23188  0.43007  1.0000
  C   C71       1.0  0.27593  0.27897  0.29507  1.0000
  C   C72       1.0  0.09187  0.14085  0.01277  1.0000
  H   H61       1.0  0.01552  0.18601  0.07410  1.0000
  H   H62       1.0  0.40605  0.09286  0.16692  1.0000
  H   H63       1.0  0.26098  0.22516  0.41361  1.0000
  H   H64       1.0  0.08512  0.28502  0.43036  1.0000
  C   C73       1.0  0.32188  0.20305  0.27841  1.0000
  C   C74       1.0  0.05480  0.18544  0.99696  1.0000
  H   H65       1.0  0.12143  0.21745  0.17224  1.0000
  H   H66       1.0  0.32359  0.00665  0.33734  1.0000
  H   H67       1.0  0.08497  0.18212  0.15277  1.0000
  H   H68       1.0  0.47368  0.00104  0.07372  1.0000
  C   C75       1.0  0.30689  0.28766  0.30730  1.0000
  H   H69       1.0  0.31960  0.20608  0.41583  1.0000
  C   C76       1.0  0.09618  0.19906  0.45225  1.0000
  H   H70       1.0  0.02426  0.17844  0.16799  1.0000
  H   H71       1.0  0.35617  0.27550  0.17655  1.0000
  H   H72       1.0  0.08231  0.25670  0.00802  1.0000
  C   C77       1.0  0.32899  0.29581  0.25770  1.0000
  H   H73       1.0  0.10666  0.12411  0.01971  1.0000
  H   H74       1.0  0.11482  0.23201  0.42742  1.0000
  C   C78       1.0  0.32625  0.24922  0.47290  1.0000
  H   H75       1.0  0.33860  0.07655  0.23486  1.0000
  Fe  Fe8       1.0  0.41754  0.98511  0.27918  1.0000
  C   C79       1.0  0.28455  0.15905  0.29525  1.0000
  S   S16       1.0  0.08088  0.30241  0.32443  1.0000
  C   C80       1.0  0.30866  0.15731  0.27203  1.0000
  C   C81       1.0  0.47512  0.01913  0.06161  1.0000
  C   C82       1.0  0.01123  0.24499  0.08613  1.0000
  C   C83       1.0  0.01610  0.17047  0.09006  1.0000
  C   C84       1.0  0.12717  0.19614  0.40555  1.0000
  C   C85       1.0  0.09483  0.21595  0.17924  1.0000
  C   C86       1.0  0.04666  0.23202  0.20800  1.0000
  C   C87       1.0  0.41627  0.07463  0.15913  1.0000
  C   C88       1.0  0.29319  0.26015  0.47167  1.0000
  H   H76       1.0  0.14039  0.20545  0.38718  1.0000
  H   H77       1.0  0.45216  0.00872  0.13202  1.0000
  S   S17       1.0  0.44129  0.00402  0.32106  1.0000
  H   H78       1.0  0.35719  0.30333  0.29809  1.0000
  C   C89       1.0  0.07423  0.19596  0.16830  1.0000
  H   H79       1.0  0.26927  0.14236  0.30158  1.0000
  H   H80       1.0  0.24403  0.25907  0.44899  1.0000
  C   C90       1.0  0.33798  0.14370  0.16483  1.0000
  C   C91       1.0  0.37383  0.14550  0.16598  1.0000
  C   C92       1.0  0.39100  0.14116  0.19283  1.0000
  C   C93       1.0  0.37230  0.13490  0.21847  1.0000
  C   C94       1.0  0.33620  0.13314  0.21749  1.0000
  C   C95       1.0  0.31915  0.13770  0.19048  1.0000
  P   P3        1.0  0.31254  0.12737  0.25149  1.0000
  C   C96       1.0  0.26899  0.11660  0.24406  1.0000
  C   C97       1.0  0.33571  0.10298  0.27218  1.0000
  C   C98       1.0  0.34536  0.07992  0.25793  1.0000
  C   C99       1.0  0.36311  0.06071  0.27350  1.0000
  C   C100      1.0  0.37225  0.06458  0.30321  1.0000
  C   C101      1.0  0.36317  0.08764  0.31750  1.0000
  C   C102      1.0  0.34485  0.10679  0.30211  1.0000
  C   C103      1.0  0.24442  0.13467  0.23441  1.0000
  C   C104      1.0  0.21013  0.12729  0.23023  1.0000
  C   C105      1.0  0.20004  0.10174  0.23547  1.0000
  C   C106      1.0  0.22419  0.08365  0.24533  1.0000
  C   C107      1.0  0.25854  0.09098  0.24964  1.0000
  H   H81       1.0  0.32463  0.14659  0.14389  1.0000
  C   C108      1.0  0.47190  0.99280  0.34802  1.0000
  C   C109      1.0  0.04393  0.23606  0.07831  1.0000
  C   C110      1.0  0.24890  0.30559  0.48020  1.0000
  H   H82       1.0  0.18876  0.27477  0.00757  1.0000
  C   C111      1.0  0.02414  0.22831  0.02768  1.0000
  P   P4        1.0  0.03250  0.21565  0.99088  1.0000
  C   C112      1.0  0.03308  0.14262  0.46469  1.0000
  C   C113      1.0  0.33575  0.22982  0.45277  1.0000
  C   C114      1.0  0.44773  0.03682  0.06232  1.0000
  H   H83       1.0  0.01818  0.11452  0.14715  1.0000
  H   H84       1.0  0.08520  0.21101  0.46953  1.0000
  H   H85       1.0  0.34087  0.99435  0.02217  1.0000
  C   C115      1.0  0.19395  0.30442  0.17287  1.0000
  H   H86       1.0  0.49947  0.29236  0.31542  1.0000
  C   C116      1.0  0.01767  0.13020  0.13119  1.0000
  C   C117      1.0  0.06996  0.27568  0.44763  1.0000
  Fe  Fe9       1.0  0.13408  0.29743  0.34470  1.0000
  H   H87       1.0  0.17687  0.29649  0.15609  1.0000
  C   C118      1.0  0.03992  0.16658  0.01550  1.0000
  C   C119      1.0  0.48154  0.06649  0.03202  1.0000
  C   C120      1.0  0.48451  0.01025  0.36957  1.0000
  C   C121      1.0  0.33599  0.98981  0.34691  1.0000
  H   H88       1.0  0.04432  0.10228  0.47420  1.0000
  H   H89       1.0  0.04717  0.13042  0.03862  1.0000
  H   H90       1.0  0.02464  0.27293  0.42054  1.0000
  C   C122      1.0  0.04173  0.30739  0.34388  1.0000
  H   H91       1.0  0.01927  0.22173  0.41784  1.0000
  H   H92       1.0  0.01071  0.19881  0.37050  1.0000
  C   C123      1.0  0.24855  0.30280  0.19931  1.0000
  H   H93       1.0  0.13309  0.15691  0.98657  1.0000
  H   H94       1.0  0.48439  0.08503  0.02098  1.0000
  H   H95       1.0  0.01426  0.15753  0.21829  1.0000
  C   C124      1.0  0.01103  0.15934  0.44911  1.0000
  H   H96       1.0  0.11081  0.27688  0.47984  1.0000
  H   H97       1.0  0.27775  0.30862  0.43898  1.0000
  H   H98       1.0  0.34980  0.30272  0.24377  1.0000
  H   H99       1.0  0.40415  0.30263  0.15866  1.0000
  H   H100      1.0  0.01634  0.23478  0.31167  1.0000
  H   H101      1.0  0.47598  0.03018  0.36906  1.0000
  H   H102      1.0  0.28720  0.01288  0.00138  1.0000
  C   C125      1.0  0.50827  0.04841  0.03073  1.0000
  H   H103      1.0  0.38808  0.98134  0.98897  1.0000
  P   P5        1.0  0.07058  0.15589  0.48301  1.0000
  C   C126      1.0  0.30791  0.00715  0.98659  1.0000
  C   C127      1.0  0.50512  0.02484  0.04573  1.0000
  H   H104      1.0  0.01433  0.16935  0.02462  1.0000
  C   C128      1.0  0.32391  0.30797  0.18919  1.0000
  H   H105      1.0  0.14472  0.14296  0.48150  1.0000
  C   C129      1.0  0.50814  0.00228  0.39175  1.0000
  S   S18       1.0  0.36075  0.97606  0.27569  1.0000
  Fe  Fe10      1.0  0.21170  0.12885  0.63232  1.0000
  S   S19       1.0  0.23095  0.16612  0.61165  1.0000
  S   S20       1.0  0.24331  0.09142  0.64156  1.0000
  Fe  Fe11      1.0  0.13573  0.14862  0.63093  1.0000
  S   S21       1.0  0.15003  0.18696  0.61058  1.0000
  S   S22       1.0  0.08215  0.14080  0.64991  1.0000
  Fe  Fe12      1.0  0.18526  0.16429  0.58069  1.0000
  S   S23       1.0  0.19105  0.17031  0.53025  1.0000
  Fe  Fe13      1.0  0.19413  0.18623  0.64289  1.0000
  S   S24       1.0  0.20796  0.22407  0.66549  1.0000
  S   S25       1.0  0.16803  0.12546  0.59898  1.0000
  S   S26       1.0  0.17772  0.14947  0.66547  1.0000
  Fe  Fe14      1.0  0.37830  0.99855  0.73727  1.0000
  S   S27       1.0  0.35745  0.03988  0.72817  1.0000
  H   H106      1.0  0.45727  0.01726  0.92810  1.0000
  P   P6        1.0  0.05522  0.20629  0.81636  1.0000
  S   S28       1.0  0.43611  0.99093  0.73787  1.0000
  C   C130      1.0  0.30500  0.04815  0.57375  1.0000
  Fe  Fe15      1.0  0.18891  0.27126  0.83003  1.0000
  S   S29       1.0  0.19094  0.23302  0.80536  1.0000
  Fe  Fe16      1.0  0.18511  0.29054  0.89393  1.0000
  S   S30       1.0  0.18901  0.28343  0.94436  1.0000
  H   H107      1.0  0.38949  0.01882  0.66526  1.0000
  C   C131      1.0  0.10155  0.27070  0.93629  1.0000
  S   S31       1.0  0.14600  0.27227  0.86364  1.0000
  S   S32       1.0  0.22920  0.28717  0.86141  1.0000
  H   H108      1.0  0.15925  0.27140  0.66644  1.0000
  P   P7        1.0  0.28014  0.28473  0.49800  1.0000
  H   H109      1.0  0.03747  0.21919  0.58240  1.0000
  H   H110      1.0  0.16053  0.26167  0.50972  1.0000
  C   C132      1.0  0.03109  0.25167  0.49230  1.0000
  C   C133      1.0  0.10058  0.09751  0.53871  1.0000
  C   C134      1.0  0.36157  0.99217  0.94830  1.0000
  C   C135      1.0  0.08074  0.11533  0.52280  1.0000
  C   C136      1.0  0.06716  0.23682  0.79924  1.0000
  C   C137      1.0  0.40933  0.01933  0.84279  1.0000
  C   C138      1.0  0.40607  0.00034  0.86479  1.0000
  C   C139      1.0  0.02481  0.18104  0.52161  1.0000
  C   C140      1.0  0.18488  0.19827  0.50757  1.0000
  H   H111      1.0  0.48664  0.00841  0.82947  1.0000
  C   C141      1.0  0.18514  0.22973  0.95270  1.0000
  C   C142      1.0  0.18693  0.25428  0.96582  1.0000
  C   C143      1.0  0.24326  0.23062  0.55701  1.0000
  C   C144      1.0  0.39967  0.05269  0.87961  1.0000
  C   C145      1.0  0.47692  0.04968  0.64273  1.0000
  H   H112      1.0  0.18494  0.22811  0.92874  1.0000
  H   H113      1.0  0.13692  0.26744  0.76920  1.0000
  H   H114      1.0  0.09822  0.21450  0.56584  1.0000
  C   C146      1.0  0.20085  0.22725  0.70410  1.0000
  C   C147      1.0  0.21275  0.24946  0.71894  1.0000
  C   C148      1.0  0.20853  0.25200  0.74991  1.0000
  C   C149      1.0  0.19302  0.23213  0.76621  1.0000
  C   C150      1.0  0.18004  0.21044  0.75125  1.0000
  C   C151      1.0  0.18379  0.20799  0.72030  1.0000
  H   H115      1.0  0.22605  0.26442  0.70656  1.0000
  H   H116      1.0  0.21824  0.26881  0.76142  1.0000
  H   H117      1.0  0.16733  0.19542  0.76377  1.0000
  H   H118      1.0  0.17415  0.19095  0.70914  1.0000
  C   C152      1.0  0.04374  0.14232  0.62865  1.0000
  C   C153      1.0  0.04422  0.14060  0.59762  1.0000
  H   H119      1.0  0.16668  0.22319  0.54251  1.0000
  H   H120      1.0  0.06853  0.13883  0.58601  1.0000
  C   C154      1.0  0.08076  0.25253  0.92192  1.0000
  C   C155      1.0  0.27564  0.07762  0.66558  1.0000
  C   C156      1.0  0.28061  0.05053  0.66568  1.0000
  C   C157      1.0  0.30534  0.03864  0.68446  1.0000
  C   C158      1.0  0.32591  0.05365  0.70342  1.0000
  C   C159      1.0  0.32131  0.08075  0.70296  1.0000
  C   C160      1.0  0.29654  0.09263  0.68428  1.0000
  H   H121      1.0  0.26498  0.03858  0.65125  1.0000
  H   H122      1.0  0.30830  0.01782  0.68445  1.0000
  H   H123      1.0  0.33712  0.09273  0.71722  1.0000
  H   H124      1.0  0.29408  0.11344  0.68407  1.0000
  C   C161      1.0  0.36164  0.03819  0.59383  1.0000
  H   H125      1.0  0.08868  0.08555  0.55569  1.0000
  H   H126      1.0  0.07075  0.16800  0.91675  1.0000
  H   H127      1.0  0.33125  0.01209  0.56676  1.0000
  C   C162      1.0  0.37534  0.98563  0.61431  1.0000
  C   C163      1.0  0.07760  0.20557  0.55325  1.0000
  C   C164      1.0  0.06526  0.25883  0.49773  1.0000
  C   C165      1.0  0.33270  0.03109  0.57690  1.0000
  C   C166      1.0  0.04343  0.20827  0.56249  1.0000
  C   C167      1.0  0.07715  0.16333  0.74165  1.0000
  H   H128      1.0  0.28082  0.01819  0.94675  1.0000
  C   C168      1.0  0.11593  0.18894  0.90286  1.0000
  H   H129      1.0  0.01684  0.25499  0.80400  1.0000
  C   C169      1.0  0.42662  0.01161  0.51277  1.0000
  C   C170      1.0  0.18064  0.30728  0.68255  1.0000
  H   H130      1.0  0.39745  0.07299  0.88534  1.0000
  H   H131      1.0  0.23743  0.21007  0.55697  1.0000
  C   C171      1.0  0.33105  0.00272  0.93674  1.0000
  H   H132      1.0  0.11217  0.18766  0.52215  1.0000
  H   H133      1.0  0.18019  0.30095  0.70556  1.0000
  C   C172      1.0  0.49601  0.97808  0.97843  1.0000
  H   H134      1.0  0.42642  0.03880  0.70328  1.0000
  C   C173      1.0  0.26234  0.26926  0.53076  1.0000
  H   H135      1.0  0.40876  0.06011  0.83299  1.0000
  H   H136      1.0  0.27729  0.28803  0.76628  1.0000
  C   C174      1.0  0.30585  0.07233  0.58762  1.0000
  H   H137      1.0  0.08713  0.19464  0.65695  1.0000
  C   C175      1.0  0.13595  0.09569  0.53341  1.0000
  H   H138      1.0  0.33449  0.09802  0.61599  1.0000
  C   C176      1.0  0.08686  0.28459  0.77454  1.0000
  H   H139      1.0  0.04392  0.22198  0.92704  1.0000
  C   C177      1.0  0.41934  0.00800  0.56646  1.0000
  C   C178      1.0  0.42425  0.02723  0.62865  1.0000
  C   C179      1.0  0.13445  0.09639  0.69963  1.0000
  C   C180      1.0  0.14820  0.07749  0.68091  1.0000
  C   C181      1.0  0.18096  0.06754  0.68653  1.0000
  C   C182      1.0  0.20014  0.07665  0.71067  1.0000
  C   C183      1.0  0.18638  0.09544  0.72990  1.0000
  C   C184      1.0  0.15345  0.10542  0.72398  1.0000
  P   P8        1.0  0.21257  0.10876  0.75950  1.0000
  C   C185      1.0  0.18584  0.11778  0.79085  1.0000
  C   C186      1.0  0.24401  0.08476  0.77033  1.0000
  C   C187      1.0  0.23373  0.05896  0.77499  1.0000
  C   C188      1.0  0.25819  0.03988  0.78130  1.0000
  C   C189      1.0  0.29304  0.04643  0.78309  1.0000
  C   C190      1.0  0.30341  0.07208  0.77888  1.0000
  C   C191      1.0  0.27906  0.09122  0.77248  1.0000
  C   C192      1.0  0.18556  0.10321  0.81727  1.0000
  C   C193      1.0  0.16655  0.11169  0.84190  1.0000
  C   C194      1.0  0.14803  0.13486  0.84046  1.0000
  C   C195      1.0  0.14815  0.14941  0.81426  1.0000
  C   C196      1.0  0.16662  0.14075  0.78952  1.0000
  C   C197      1.0  0.23394  0.13755  0.74589  1.0000
  C   C198      1.0  0.24285  0.15765  0.76553  1.0000
  C   C199      1.0  0.25781  0.18044  0.75471  1.0000
  C   C200      1.0  0.26450  0.18317  0.72431  1.0000
  C   C201      1.0  0.25659  0.16299  0.70478  1.0000
  C   C202      1.0  0.24147  0.14023  0.71552  1.0000
  H   H140      1.0  0.10950  0.10463  0.69454  1.0000
  H   H141      1.0  0.13387  0.07109  0.66158  1.0000
  H   H142      1.0  0.19225  0.05358  0.67139  1.0000
  H   H143      1.0  0.22614  0.06953  0.71359  1.0000
  H   H144      1.0  0.14274  0.12065  0.73747  1.0000
  H   H145      1.0  0.20689  0.05349  0.77299  1.0000
  H   H146      1.0  0.25033  0.01988  0.78407  1.0000
  H   H147      1.0  0.31220  0.03151  0.78687  1.0000
  H   H148      1.0  0.33060  0.07687  0.77933  1.0000
  H   H149      1.0  0.28790  0.11078  0.76840  1.0000
  H   H150      1.0  0.20040  0.08560  0.81923  1.0000
  H   H151      1.0  0.16673  0.10053  0.86233  1.0000
  H   H152      1.0  0.13398  0.14174  0.85975  1.0000
  H   H153      1.0  0.13453  0.16767  0.81322  1.0000
  H   H154      1.0  0.16672  0.15230  0.76945  1.0000
  H   H155      1.0  0.23776  0.15600  0.78915  1.0000
  H   H156      1.0  0.26339  0.19627  0.76981  1.0000
  H   H157      1.0  0.27519  0.20110  0.71579  1.0000
  H   H158      1.0  0.26157  0.16517  0.68117  1.0000
  H   H159      1.0  0.23533  0.12489  0.69997  1.0000
  H   H160      1.0  0.07608  0.12192  0.73654  1.0000
  H   H161      1.0  0.15699  0.21121  0.88312  1.0000
  H   H162      1.0  0.28248  0.04244  0.56113  1.0000
  C   C203      1.0  0.36232  0.06263  0.60759  1.0000
  C   C204      1.0  0.18463  0.20724  0.97066  1.0000
  H   H163      1.0  0.01343  0.13810  0.55778  1.0000
  C   C205      1.0  0.23914  0.24498  0.58310  1.0000
  C   C206      1.0  0.07917  0.19980  0.85030  1.0000
  H   H164      1.0  0.16183  0.28445  0.61344  1.0000
  C   C207      1.0  0.10061  0.24050  0.78810  1.0000
  H   H165      1.0  0.33041  0.00528  0.63220  1.0000
  C   C208      1.0  0.05911  0.17812  0.51232  1.0000
  C   C209      1.0  0.43493  0.03839  0.68033  1.0000
  C   C210      1.0  0.49752  0.99559  0.84600  1.0000
  C   C211      1.0  0.11285  0.20913  0.85428  1.0000
  C   C212      1.0  0.13107  0.20370  0.88036  1.0000
  H   H166      1.0  0.03471  0.29651  0.78281  1.0000
  C   C213      1.0  0.06347  0.17970  0.79108  1.0000
  C   C214      1.0  0.06423  0.18473  0.87305  1.0000
  H   H167      1.0  0.47346  0.99553  0.49475  1.0000
  H   H168      1.0  0.11918  0.22492  0.78857  1.0000
  C   C215      1.0  0.08254  0.17938  0.89918  1.0000
  H   H169      1.0  0.01118  0.14540  0.66741  1.0000
  H   H170      1.0  0.39195  0.03963  0.92451  1.0000
  C   C216      1.0  0.30654  0.29860  0.72738  1.0000
  H   H171      1.0  0.28398  0.08530  0.58589  1.0000
  C   C217      1.0  0.17276  0.22173  0.51908  1.0000
  H   H172      1.0  0.48254  0.05810  0.68948  1.0000
  H   H173      1.0  0.03568  0.25867  0.72590  1.0000
  C   C218      1.0  0.05975  0.23732  0.96981  1.0000
  H   H174      1.0  0.05306  0.15009  0.82405  1.0000
  C   C219      1.0  0.15148  0.11186  0.51237  1.0000
  H   H175      1.0  0.13009  0.18509  0.92318  1.0000
  C   C220      1.0  0.04016  0.20827  0.67712  1.0000
  H   H176      1.0  0.07686  0.25506  0.51921  1.0000
  H   H177      1.0  0.12550  0.22071  0.83763  1.0000
  H   H178      1.0  0.46384  0.04011  0.59783  1.0000
  C   C221      1.0  0.07568  0.20860  0.67195  1.0000
  C   C222      1.0  0.45570  0.03895  0.62082  1.0000
  C   C223      1.0  0.33867  0.29374  0.53246  1.0000
  H   H179      1.0  0.01653  0.24256  0.50993  1.0000
  C   C224      1.0  0.40732  0.01633  0.53854  1.0000
  H   H180      1.0  0.11886  0.28572  0.97826  1.0000
  C   C225      1.0  0.49041  0.99937  0.95994  1.0000
  C   C226      1.0  0.04313  0.25705  0.79642  1.0000
  C   C227      1.0  0.08171  0.24495  0.70526  1.0000
  C   C228      1.0  0.09649  0.22686  0.68606  1.0000
  H   H181      1.0  0.06178  0.11361  0.78949  1.0000
  C   C229      1.0  0.08544  0.19045  0.52836  1.0000
  H   H182      1.0  0.09797  0.25914  0.71606  1.0000
  H   H183      1.0  0.12408  0.22691  0.68212  1.0000
  C   C230      1.0  0.41399  0.02710  0.65862  1.0000
  C   C231      1.0  0.46648  0.04946  0.67248  1.0000
  H   H184      1.0  0.18407  0.18838  0.96023  1.0000
  C   C232      1.0  0.33444  0.07955  0.60453  1.0000
  C   C233      1.0  0.16920  0.24353  0.50037  1.0000
  C   C234      1.0  0.24652  0.27146  0.58315  1.0000
  H   H185      1.0  0.38378  0.06852  0.62135  1.0000
  C   C235      1.0  0.34331  0.98693  0.62892  1.0000
  C   C236      1.0  0.05299  0.28073  0.78399  1.0000
  H   H186      1.0  0.25693  0.23111  0.51087  1.0000
  C   C237      1.0  0.46066  0.00071  0.94252  1.0000
  C   C238      1.0  0.45108  0.99500  0.56799  1.0000
  H   H187      1.0  0.03838  0.17712  0.87076  1.0000
  H   H188      1.0  0.38341  0.02681  0.53645  1.0000
  C   C239      1.0  0.06471  0.13333  0.78160  1.0000
  C   C240      1.0  0.04614  0.24472  0.71052  1.0000
  P   P9        1.0  0.39557  0.01485  0.60038  1.0000
  H   H189      1.0  0.07453  0.20355  0.75232  1.0000
  H   H190      1.0  0.02456  0.19383  0.66599  1.0000
  C   C241      1.0  0.01186  0.14440  0.64338  1.0000
  C   C242      1.0  0.40607  0.04548  0.85014  1.0000
  H   H191      1.0  0.32785  0.00509  0.91293  1.0000
  H   H192      1.0  0.33356  0.27504  0.54253  1.0000
  C   C243      1.0  0.05991  0.23590  0.93858  1.0000
  C   C244      1.0  0.25449  0.24269  0.53085  1.0000
  H   H193      1.0  0.49518  0.98088  0.54378  1.0000
  H   H194      1.0  0.23033  0.23551  0.60329  1.0000
  C   C245      1.0  0.47041  0.99049  0.54224  1.0000
  C   C246      1.0  0.05991  0.15408  0.80116  1.0000
  H   H195      1.0  0.40893  0.98029  0.85836  1.0000
  H   H196      1.0  0.09486  0.30338  0.76641  1.0000
  C   C247      1.0  0.07304  0.13797  0.75183  1.0000
  C   C248      1.0  0.11060  0.26443  0.77644  1.0000
  C   C249      1.0  0.01015  0.20691  0.82648  1.0000
  C   C250      1.0  0.09603  0.13132  0.50121  1.0000
  H   H197      1.0  0.15152  0.08235  0.54625  1.0000
  C   C251      1.0  0.39646  0.03373  0.90172  1.0000
  H   H198      1.0  0.46133  0.98884  0.58923  1.0000
  H   H199      1.0  0.08081  0.25141  0.89785  1.0000
  H   H200      1.0  0.05354  0.11691  0.52767  1.0000
  C   C252      1.0  0.13170  0.12973  0.49645  1.0000
  H   H201      1.0  0.24356  0.28246  0.60353  1.0000
  C   C253      1.0  0.25819  0.28357  0.55713  1.0000
  H   H202      1.0  0.41476  0.01364  0.82003  1.0000
  H   H203      1.0  0.32795  0.28602  0.73278  1.0000
  C   C254      1.0  0.07224  0.18415  0.76111  1.0000
  C   C255      1.0  0.45821  0.99880  0.51463  1.0000
  H   H204      1.0  0.08357  0.16682  0.71845  1.0000
  C   C256      1.0  0.01707  0.19605  0.54664  1.0000
  C   C257      1.0  0.16877  0.29047  0.66044  1.0000
  C   C258      1.0  0.27799  0.29975  0.74625  1.0000
  C   C259      1.0  0.17049  0.29776  0.63054  1.0000
  H   H205      1.0  0.49287  0.98904  0.66504  1.0000
  C   C260      1.0  0.01367  0.29708  0.89170  1.0000
  C   C261      1.0  0.39943  0.00736  0.89444  1.0000
  C   C262      1.0  0.10188  0.27203  0.96730  1.0000
  H   H206      1.0  0.01451  0.28778  0.91327  1.0000
  C   C263      1.0  0.36702  0.30814  0.54223  1.0000
  H   H207      1.0  0.10139  0.19634  0.97317  1.0000
  H   H208      1.0  0.17916  0.11137  0.50926  1.0000
  C   C264      1.0  0.02490  0.22648  0.69623  1.0000
  H   H209      1.0  0.11777  0.28367  0.92352  1.0000
  C   C265      1.0  0.01304  0.14031  0.58163  1.0000
  C   C266      1.0  0.30435  0.01016  0.95583  1.0000
  C   C267      1.0  0.36494  0.98927  0.97928  1.0000
  C   C268      1.0  0.31711  0.30341  0.50994  1.0000
  H   H210      1.0  0.26432  0.30404  0.55762  1.0000
  H   H211      1.0  0.38347  0.30060  0.55967  1.0000
  C   C269      1.0  0.04472  0.30372  0.87729  1.0000
  H   H212      1.0  0.06916  0.29972  0.88774  1.0000
  P   P10       1.0  0.39613  0.98308  0.92335  1.0000
  H   H213      1.0  0.21300  0.30630  0.51716  1.0000
  C   C270      1.0  0.43610  0.98073  0.94374  1.0000
  C   C271      1.0  0.08116  0.25539  0.98408  1.0000
  H   H214      1.0  0.41730  0.01819  0.49134  1.0000
  H   H215      1.0  0.50128  0.05839  0.63652  1.0000
  H   H216      1.0  0.01719  0.23605  0.86073  1.0000
  C   C272      1.0  0.49918  0.97716  0.64599  1.0000
  H   H217      1.0  0.34469  0.25546  0.48942  1.0000
  S   S33       1.0  0.38327  0.46113  0.20319  1.0000
  S   S34       1.0  0.43365  0.43572  0.25402  1.0000
  Fe  Fe17      1.0  0.44000  0.46277  0.21463  1.0000
  S   S35       1.0  0.48912  0.45838  0.18578  1.0000
  Fe  Fe18      1.0  0.37656  0.43706  0.24532  1.0000
  S   S36       1.0  0.34395  0.39972  0.24721  1.0000
  H   H218      1.0  0.21529  0.57365  0.07950  1.0000
  C   C273      1.0  0.49278  0.46835  0.09484  1.0000
  H   H219      1.0  0.18932  0.49532  0.14847  1.0000
  S   S37       1.0  0.24418  0.35349  0.34884  1.0000
  C   C274      1.0  0.48559  0.38911  0.34332  1.0000
  H   H220      1.0  0.23462  0.63817  0.02155  1.0000
  C   C275      1.0  0.31699  0.38717  0.27622  1.0000
  C   C276      1.0  0.30056  0.36311  0.27204  1.0000
  C   C277      1.0  0.27821  0.35260  0.29380  1.0000
  C   C278      1.0  0.27225  0.36584  0.32046  1.0000
  C   C279      1.0  0.28898  0.38980  0.32484  1.0000
  C   C280      1.0  0.31114  0.40041  0.30293  1.0000
  H   H221      1.0  0.30533  0.35247  0.25184  1.0000
  H   H222      1.0  0.26560  0.33425  0.28999  1.0000
  H   H223      1.0  0.28470  0.40029  0.34534  1.0000
  H   H224      1.0  0.32365  0.41885  0.30669  1.0000
  C   C281      1.0  0.23135  0.33096  0.43714  1.0000
  H   H225      1.0  0.25916  0.56455  0.25972  1.0000
  S   S38       1.0  0.21792  0.57026  0.14720  1.0000
  H   H226      1.0  0.15756  0.33291  0.18813  1.0000
  H   H227      1.0  0.30842  0.33584  0.48010  1.0000
  S   S39       1.0  0.14659  0.61224  0.10795  1.0000
  C   C282      1.0  0.33792  0.55276  0.32604  1.0000
  Fe  Fe19      1.0  0.37769  0.49570  0.23355  1.0000
  S   S40       1.0  0.34887  0.53399  0.22418  1.0000
  Fe  Fe20      1.0  0.42568  0.47137  0.28191  1.0000
  S   S41       1.0  0.44207  0.47259  0.33123  1.0000
  S   S42       1.0  0.43485  0.49852  0.24332  1.0000
  S   S43       1.0  0.36802  0.47156  0.27466  1.0000
  H   H228      1.0  0.15496  0.52668  0.17746  1.0000
  C   C283      1.0  0.38124  0.31167  0.16766  1.0000
  C   C284      1.0  0.48159  0.47461  0.35163  1.0000
  P   P11       1.0  0.32757  0.61744  0.09248  1.0000
  C   C285      1.0  0.47739  0.37832  0.37116  1.0000
  H   H229      1.0  0.40831  0.41752  0.32813  1.0000
  H   H230      1.0  0.50774  0.52449  0.07784  1.0000
  C   C286      1.0  0.26517  0.59154  0.08387  1.0000
  C   C287      1.0  0.48139  0.46926  0.38242  1.0000
  H   H231      1.0  0.36023  0.55873  0.28269  1.0000
  H   H232      1.0  0.31017  0.55088  0.36747  1.0000
  Fe  Fe21      1.0  0.19283  0.61017  0.13866  1.0000
  C   C288      1.0  0.25474  0.56064  0.16840  1.0000
  C   C289      1.0  0.26535  0.53453  0.16781  1.0000
  C   C290      1.0  0.29381  0.52590  0.18477  1.0000
  C   C291      1.0  0.31234  0.54336  0.20244  1.0000
  C   C292      1.0  0.30181  0.56947  0.20286  1.0000
  C   C293      1.0  0.27305  0.57799  0.18633  1.0000
  H   H233      1.0  0.25144  0.52086  0.15412  1.0000
  H   H234      1.0  0.30156  0.50580  0.18397  1.0000
  H   H235      1.0  0.31605  0.58329  0.21604  1.0000
  H   H236      1.0  0.26461  0.59787  0.18792  1.0000
  C   C294      1.0  0.27835  0.63920  0.27887  1.0000
  C   C295      1.0  0.29990  0.63871  0.14380  1.0000
  S   S44       1.0  0.06759  0.63479  0.16268  1.0000
  C   C296      1.0  0.35891  0.59220  0.14041  1.0000
  H   H237      1.0  0.43832  0.37330  0.40482  1.0000
  H   H238      1.0  0.40128  0.35048  0.16329  1.0000
  C   C297      1.0  0.46037  0.40323  0.32795  1.0000
  C   C298      1.0  0.33972  0.56412  0.29789  1.0000
  C   C299      1.0  0.28801  0.58907  0.30846  1.0000
  H   H239      1.0  0.38522  0.61624  0.99426  1.0000
  H   H240      1.0  0.50719  0.38586  0.26583  1.0000
  C   C300      1.0  0.22672  0.59756  0.27038  1.0000
  H   H241      1.0  0.25348  0.33061  0.23512  1.0000
  C   C301      1.0  0.41939  0.39530  0.36758  1.0000
  C   C302      1.0  0.18157  0.57640  0.22806  1.0000
  C   C303      1.0  0.17259  0.59901  0.24323  1.0000
  C   C304      1.0  0.23070  0.62430  0.32725  1.0000
  H   H242      1.0  0.35111  0.52395  0.10496  1.0000
  H   H243      1.0  0.18293  0.35087  0.44101  1.0000
  S   S45       1.0  0.16562  0.63189  0.17506  1.0000
  C   C305      1.0  0.02954  0.62411  0.11198  1.0000
  H   H244      1.0  0.39393  0.39799  0.37695  1.0000
  H   H245      1.0  0.35718  0.53869  0.33271  1.0000
  H   H246      1.0  0.31694  0.59093  0.26732  1.0000
  C   C306      1.0  0.23507  0.57439  0.25567  1.0000
  C   C307      1.0  0.34317  0.58944  0.11245  1.0000
  C   C308      1.0  0.21247  0.56386  0.23469  1.0000
  C   C309      1.0  0.31138  0.55958  0.34553  1.0000
  C   C310      1.0  0.18969  0.64251  0.37431  1.0000
  H   H247      1.0  0.05368  0.61894  0.10153  1.0000
  C   C311      1.0  0.24363  0.62473  0.03839  1.0000
  C   C312      1.0  0.35030  0.35028  0.18214  1.0000
  H   H248      1.0  0.19615  0.34976  0.22766  1.0000
  C   C313      1.0  0.04085  0.31834  0.37236  1.0000
  C   C314      1.0  0.44441  0.38141  0.38321  1.0000
  H   H249      1.0  0.16489  0.56889  0.21077  1.0000
  C   C315      1.0  0.48027  0.46610  0.12434  1.0000
  C   C316      1.0  0.37113  0.57044  0.15563  1.0000
  C   C317      1.0  0.36815  0.54586  0.14293  1.0000
  C   C318      1.0  0.35339  0.54304  0.11476  1.0000
  C   C319      1.0  0.34121  0.56476  0.09944  1.0000
  H   H250      1.0  0.47494  0.47249  0.07699  1.0000
  H   H251      1.0  0.47672  0.59510  0.17034  1.0000
  H   H252      1.0  0.30009  0.34462  0.20057  1.0000
  H   H253      1.0  0.38211  0.57244  0.17768  1.0000
  H   H254      1.0  0.27221  0.57931  0.10246  1.0000
  C   C320      1.0  0.38658  0.62281  0.01714  1.0000
  H   H255      1.0  0.29348  0.61901  0.14976  1.0000
  H   H256      1.0  0.37687  0.52898  0.15517  1.0000
  S   S46       1.0  0.16185  0.31828  0.38144  1.0000
  H   H257      1.0  0.32995  0.56227  0.07758  1.0000
  C   C321      1.0  0.18633  0.61693  0.36458  1.0000
  P   P12       1.0  0.25614  0.61244  0.29646  1.0000
  H   H258      1.0  0.44975  0.55318  0.18435  1.0000
  C   C322      1.0  0.37962  0.33862  0.17018  1.0000
  H   H259      1.0  0.21770  0.45865  0.17339  1.0000
  C   C323      1.0  0.36132  0.62556  0.06653  1.0000
  H   H260      1.0  0.36156  0.61104  0.15066  1.0000
  H   H261      1.0  0.45754  0.46347  0.39297  1.0000
  C   C324      1.0  0.42740  0.40617  0.33998  1.0000
  H   H262      1.0  0.21955  0.54642  0.22276  1.0000
  C   C325      1.0  0.23264  0.58838  0.07102  1.0000
  C   C326      1.0  0.31505  0.58230  0.28920  1.0000
  C   C327      1.0  0.50293  0.46076  0.14779  1.0000
  H   H263      1.0  0.34959  0.37111  0.18517  1.0000
  H   H264      1.0  0.33829  0.60548  0.02913  1.0000
  H   H265      1.0  0.45312  0.46854  0.12891  1.0000
  C   C328      1.0  0.25182  0.39169  0.17327  1.0000
  C   C329      1.0  0.28591  0.39858  0.16723  1.0000
  C   C330      1.0  0.30138  0.41885  0.18291  1.0000
  C   C331      1.0  0.28282  0.43237  0.20459  1.0000
  C   C332      1.0  0.24854  0.42560  0.21074  1.0000
  C   C333      1.0  0.23309  0.40528  0.19475  1.0000
  P   P13       1.0  0.22311  0.44391  0.23695  1.0000
  C   C334      1.0  0.19594  0.42081  0.25622  1.0000
  C   C335      1.0  0.25028  0.46118  0.26299  1.0000
  C   C336      1.0  0.26515  0.48494  0.25453  1.0000
  C   C337      1.0  0.28484  0.49919  0.27477  1.0000
  C   C338      1.0  0.29011  0.48980  0.30355  1.0000
  C   C339      1.0  0.27569  0.46614  0.31211  1.0000
  C   C340      1.0  0.25572  0.45192  0.29202  1.0000
  C   C341      1.0  0.21071  0.39826  0.26819  1.0000
  C   C342      1.0  0.19023  0.37996  0.28285  1.0000
  C   C343      1.0  0.15474  0.38372  0.28518  1.0000
  C   C344      1.0  0.13969  0.40582  0.27281  1.0000
  C   C345      1.0  0.16014  0.42430  0.25832  1.0000
  C   C346      1.0  0.19895  0.46857  0.21748  1.0000
  C   C347      1.0  0.17957  0.48660  0.23382  1.0000
  C   C348      1.0  0.16321  0.50719  0.21938  1.0000
  C   C349      1.0  0.16674  0.51029  0.18862  1.0000
  C   C350      1.0  0.18612  0.49255  0.17224  1.0000
  C   C351      1.0  0.20215  0.47173  0.18653  1.0000
  H   H266      1.0  0.23988  0.37585  0.16126  1.0000
  H   H267      1.0  0.30044  0.38810  0.15055  1.0000
  H   H268      1.0  0.32807  0.42381  0.17873  1.0000
  H   H269      1.0  0.29555  0.44775  0.21671  1.0000
  H   H270      1.0  0.20651  0.39997  0.19882  1.0000
  H   H271      1.0  0.26169  0.49247  0.23222  1.0000
  H   H272      1.0  0.29660  0.51730  0.26794  1.0000
  H   H273      1.0  0.30602  0.50056  0.31900  1.0000
  H   H274      1.0  0.28030  0.45861  0.33427  1.0000
  H   H275      1.0  0.24486  0.43376  0.29940  1.0000
  H   H276      1.0  0.23821  0.39498  0.26647  1.0000
  H   H277      1.0  0.20191  0.36288  0.29263  1.0000
  H   H278      1.0  0.13895  0.36946  0.29661  1.0000
  H   H279      1.0  0.11210  0.40858  0.27455  1.0000
  H   H280      1.0  0.14781  0.44105  0.24868  1.0000
  H   H281      1.0  0.17768  0.48497  0.25781  1.0000
  H   H282      1.0  0.14843  0.52109  0.23212  1.0000
  C   C352      1.0  0.22188  0.60495  0.04829  1.0000
  H   H283      1.0  0.06469  0.32295  0.38361  1.0000
  H   H284      1.0  0.16788  0.60417  0.37520  1.0000
  C   C353      1.0  0.28750  0.61099  0.07359  1.0000
  C   C354      1.0  0.32233  0.33509  0.19117  1.0000
  Fe  Fe22      1.0  0.20898  0.31747  0.35158  1.0000
  C   C355      1.0  0.27621  0.62790  0.05113  1.0000
  H   H285      1.0  0.14861  0.60874  0.23805  1.0000
  H   H286      1.0  0.43573  0.64159  0.01145  1.0000
  C   C356      1.0  0.47143  0.55364  0.16912  1.0000
  C   C357      1.0  0.28651  0.57768  0.33684  1.0000
  H   H287      1.0  0.26647  0.58276  0.35246  1.0000
  C   C358      1.0  0.48669  0.57720  0.16124  1.0000
  H   H288      1.0  0.47261  0.51223  0.16375  1.0000
  C   C359      1.0  0.02937  0.63287  0.14142  1.0000
  H   H289      1.0  0.19623  0.60308  0.03900  1.0000
  C   C360      1.0  0.19498  0.60950  0.26438  1.0000
  C   C361      1.0  0.20151  0.33857  0.45211  1.0000
  C   C362      1.0  0.23732  0.32331  0.21743  1.0000
  H   H290      1.0  0.23594  0.33752  0.41452  1.0000
  C   C363      1.0  0.48429  0.53054  0.15749  1.0000
  H   H291      1.0  0.20345  0.58810  0.33346  1.0000
  C   C364      1.0  0.19525  0.32978  0.48104  1.0000
  C   C365      1.0  0.41508  0.63704  0.02684  1.0000
  H   H292      1.0  0.46604  0.41257  0.30701  1.0000
  H   H293      1.0  0.49077  0.33587  0.33636  1.0000
  C   C366      1.0  0.35988  0.61691  0.03694  1.0000
  C   C367      1.0  0.20658  0.60789  0.34101  1.0000
  Fe  Fe23      1.0  0.12149  0.63667  0.14303  1.0000
  H   H294      1.0  0.48866  0.51860  0.02633  1.0000
  C   C368      1.0  0.39037  0.63934  0.07631  1.0000
  H   H295      1.0  0.18790  0.62731  0.27552  1.0000
  C   C369      1.0  0.20477  0.33426  0.21326  1.0000
  C   C370      1.0  0.25493  0.31451  0.45107  1.0000
  H   H296      1.0  0.49659  0.36770  0.38365  1.0000
  C   C371      1.0  0.18305  0.32480  0.19100  1.0000
  H   H297      1.0  0.32120  0.63839  0.30971  1.0000
  S   S47       1.0  0.37474  0.47655  0.69844  1.0000
  S   S48       1.0  0.43741  0.44377  0.72877  1.0000
  Fe  Fe24      1.0  0.43306  0.47754  0.69724  1.0000
  S   S49       1.0  0.46231  0.49000  0.65489  1.0000
  Fe  Fe25      1.0  0.37941  0.44537  0.73374  1.0000
  S   S50       1.0  0.34648  0.40826  0.73587  1.0000
  H   H298      1.0  0.22848  0.31669  0.75441  1.0000
  H   H299      1.0  0.20848  0.35667  0.63816  1.0000
  H   H300      1.0  0.23703  0.62388  0.77904  1.0000
  S   S51       1.0  0.24733  0.36296  0.83803  1.0000
  H   H301      1.0  0.17166  0.33517  0.49226  1.0000
  H   H302      1.0  0.13998  0.34195  0.71402  1.0000
  C   C372      1.0  0.32097  0.39584  0.76587  1.0000
  C   C373      1.0  0.31056  0.36971  0.76520  1.0000
  C   C374      1.0  0.28880  0.35933  0.78743  1.0000
  C   C375      1.0  0.27639  0.37498  0.81036  1.0000
  C   C376      1.0  0.28750  0.40096  0.81156  1.0000
  C   C377      1.0  0.30968  0.41134  0.78954  1.0000
  H   H303      1.0  0.31948  0.35736  0.74738  1.0000
  H   H304      1.0  0.28159  0.33918  0.78707  1.0000
  H   H305      1.0  0.27861  0.41322  0.82948  1.0000
  H   H306      1.0  0.31755  0.43142  0.79068  1.0000
  C   C378      1.0  0.33046  0.63733  0.60771  1.0000
  P   P14       1.0  0.39917  0.41372  0.87112  1.0000
  S   S52       1.0  0.24584  0.58928  0.64118  1.0000
  C   C379      1.0  0.25042  0.31617  0.73953  1.0000
  C   C380      1.0  0.32218  0.46754  0.86079  1.0000
  S   S53       1.0  0.16998  0.61707  0.59730  1.0000
  C   C381      1.0  0.18425  0.32186  0.62272  1.0000
  Fe  Fe26      1.0  0.37957  0.50456  0.73630  1.0000
  S   S54       1.0  0.34511  0.54051  0.74067  1.0000
  Fe  Fe27      1.0  0.43857  0.47296  0.76623  1.0000
  S   S55       1.0  0.47511  0.45979  0.80387  1.0000
  S   S56       1.0  0.43768  0.50684  0.73439  1.0000
  S   S57       1.0  0.38068  0.47329  0.77167  1.0000
  S   S58       1.0  0.16576  0.63589  0.66668  1.0000
  H   H307      1.0  0.40310  0.55118  0.60799  1.0000
  H   H308      1.0  0.49351  0.51210  0.82510  1.0000
  H   H309      1.0  0.37815  0.59460  0.59972  1.0000
  H   H310      1.0  0.32067  0.34007  0.85038  1.0000
  H   H311      1.0  0.39603  0.34351  0.53727  1.0000
  H   H312      1.0  0.18611  0.32730  0.59948  1.0000
  C   C382      1.0  0.47453  0.38762  0.81452  1.0000
  C   C383      1.0  0.32860  0.37035  0.91714  1.0000
  H   H313      1.0  0.12719  0.37117  0.80265  1.0000
  C   C384      1.0  0.34005  0.44485  0.86787  1.0000
  H   H314      1.0  0.10282  0.35098  0.75748  1.0000
  C   C385      1.0  0.27365  0.57653  0.66924  1.0000
  C   C386      1.0  0.29394  0.55473  0.66246  1.0000
  C   C387      1.0  0.31615  0.54366  0.68383  1.0000
  C   C388      1.0  0.31867  0.55441  0.71235  1.0000
  C   C389      1.0  0.29863  0.57636  0.71905  1.0000
  C   C390      1.0  0.27609  0.58722  0.69775  1.0000
  H   H315      1.0  0.29242  0.54625  0.64049  1.0000
  H   H316      1.0  0.33134  0.52682  0.67821  1.0000
  H   H317      1.0  0.30021  0.58484  0.74100  1.0000
  H   H318      1.0  0.26050  0.60375  0.70348  1.0000
  H   H319      1.0  0.46931  0.38429  0.95668  1.0000
  C   C391      1.0  0.30972  0.61607  0.60009  1.0000
  C   C392      1.0  0.33068  0.35316  0.86714  1.0000
  H   H320      1.0  0.31730  0.37033  0.93919  1.0000
  H   H321      1.0  0.42669  0.37858  0.91655  1.0000
  C   C393      1.0  0.47936  0.42429  0.94633  1.0000
  Fe  Fe28      1.0  0.21330  0.32645  0.84361  1.0000
  C   C394      1.0  0.15120  0.35068  0.73360  1.0000
  C   C395      1.0  0.37506  0.48710  0.84332  1.0000
  H   H322      1.0  0.25097  0.45292  0.66638  1.0000
  H   H323      1.0  0.46968  0.39396  0.86136  1.0000
  P   P15       1.0  0.35707  0.63605  0.64070  1.0000
  H   H324      1.0  0.49066  0.43733  0.64758  1.0000
  H   H325      1.0  0.48447  0.46348  0.93053  1.0000
  C   C396      1.0  0.22728  0.60621  0.76911  1.0000
  C   C397      1.0  0.43850  0.39739  0.91972  1.0000
  C   C398      1.0  0.37357  0.60366  0.64667  1.0000
  C   C399      1.0  0.37968  0.59445  0.67560  1.0000
  C   C400      1.0  0.39456  0.57008  0.67999  1.0000
  C   C401      1.0  0.40289  0.55450  0.65565  1.0000
  C   C402      1.0  0.39667  0.56339  0.62680  1.0000
  C   C403      1.0  0.38226  0.58791  0.62227  1.0000
  H   H326      1.0  0.26884  0.60180  0.57219  1.0000
  H   H327      1.0  0.50096  0.38118  0.81606  1.0000
  C   C404      1.0  0.49941  0.47159  0.83484  1.0000
  H   H328      1.0  0.28051  0.34107  0.67423  1.0000
  H   H329      1.0  0.31107  0.59822  0.61271  1.0000
  S   S59       1.0  0.08267  0.32695  0.83222  1.0000
  S   S60       1.0  0.07726  0.61384  0.63425  1.0000
  C   C405      1.0  0.49088  0.47552  0.62850  1.0000
  C   C406      1.0  0.44662  0.44218  0.90532  1.0000
  H   H330      1.0  0.47218  0.38333  0.76684  1.0000
  H   H331      1.0  0.38092  0.41310  0.80796  1.0000
  C   C407      1.0  0.19973  0.36910  0.76009  1.0000
  H   H332      1.0  0.37286  0.60580  0.69491  1.0000
  H   H333      1.0  0.39897  0.56297  0.70238  1.0000
  H   H334      1.0  0.41394  0.53545  0.65920  1.0000
  H   H335      1.0  0.32586  0.50621  0.84291  1.0000
  C   C408      1.0  0.33970  0.48871  0.84866  1.0000
  C   C409      1.0  0.45668  0.39506  0.84018  1.0000
  C   C410      1.0  0.47127  0.44509  0.92777  1.0000
  C   C411      1.0  0.42974  0.41834  0.90120  1.0000
  H   H336      1.0  0.36252  0.40220  0.92638  1.0000
  C   C412      1.0  0.28199  0.64126  0.56147  1.0000
  H   H337      1.0  0.32567  0.42870  0.87689  1.0000
  H   H338      1.0  0.36579  0.37127  0.83707  1.0000
  H   H339      1.0  0.28231  0.63944  0.65102  1.0000
  Fe  Fe29      1.0  0.12942  0.63318  0.62770  1.0000
  H   H340      1.0  0.29417  0.42537  0.69176  1.0000
  H   H341      1.0  0.44148  0.45856  0.89113  1.0000
  C   C413      1.0  0.32448  0.32772  0.49736  1.0000
  C   C414      1.0  0.35637  0.37103  0.85969  1.0000
  C   C415      1.0  0.37571  0.44310  0.86268  1.0000
  C   C416      1.0  0.10898  0.52409  0.78965  1.0000
  C   C417      1.0  0.08441  0.50885  0.77515  1.0000
  C   C418      1.0  0.09042  0.50034  0.74609  1.0000
  C   C419      1.0  0.12093  0.50715  0.73146  1.0000
  C   C420      1.0  0.14549  0.52281  0.74572  1.0000
  C   C421      1.0  0.13950  0.53096  0.77507  1.0000
  P   P16       1.0  0.18535  0.53079  0.72709  1.0000
  C   C422      1.0  0.21579  0.50453  0.73174  1.0000
  C   C423      1.0  0.17674  0.53671  0.68812  1.0000
  C   C424      1.0  0.20129  0.53051  0.66632  1.0000
  C   C425      1.0  0.19504  0.53628  0.63639  1.0000
  C   C426      1.0  0.16447  0.54850  0.62803  1.0000
  C   C427      1.0  0.13988  0.55473  0.64954  1.0000
  C   C428      1.0  0.14591  0.54883  0.67945  1.0000
  C   C429      1.0  0.25100  0.50909  0.72726  1.0000
  C   C430      1.0  0.27507  0.48938  0.73175  1.0000
  C   C431      1.0  0.26416  0.46481  0.74072  1.0000
  C   C432      1.0  0.22907  0.45990  0.74492  1.0000
  C   C433      1.0  0.20491  0.47965  0.74045  1.0000
  C   C434      1.0  0.20243  0.56036  0.74303  1.0000
  C   C435      1.0  0.19200  0.58467  0.73219  1.0000
  C   C436      1.0  0.20429  0.60745  0.74527  1.0000
  H   H342      1.0  0.41985  0.46298  0.84413  1.0000
  C   C437      1.0  0.23778  0.58215  0.78007  1.0000
  C   C438      1.0  0.22529  0.55932  0.76724  1.0000
  H   H343      1.0  0.10441  0.53057  0.81224  1.0000
  H   H344      1.0  0.06076  0.50356  0.78646  1.0000
  H   H345      1.0  0.07142  0.48845  0.73488  1.0000
  H   H346      1.0  0.12536  0.50021  0.70903  1.0000
  H   H347      1.0  0.15828  0.54264  0.78678  1.0000
  H   H348      1.0  0.22576  0.52204  0.67229  1.0000
  H   H349      1.0  0.21469  0.53243  0.61986  1.0000
  H   H350      1.0  0.16023  0.55379  0.60498  1.0000
  H   H351      1.0  0.11650  0.56477  0.64310  1.0000
  H   H352      1.0  0.12689  0.55450  0.69584  1.0000
  H   H353      1.0  0.25978  0.52808  0.72057  1.0000
  H   H354      1.0  0.30228  0.49329  0.72857  1.0000
  H   H355      1.0  0.28293  0.44958  0.74436  1.0000
  H   H356      1.0  0.22072  0.44076  0.75181  1.0000
  H   H357      1.0  0.17797  0.47544  0.74411  1.0000
  H   H358      1.0  0.17449  0.58626  0.71360  1.0000
  H   H359      1.0  0.27889  0.38166  0.70846  1.0000
  C   C439      1.0  0.42451  0.39770  0.78469  1.0000
  H   H360      1.0  0.25585  0.58118  0.79840  1.0000
  H   H361      1.0  0.23359  0.54091  0.77625  1.0000
  C   C440      1.0  0.35434  0.38825  0.90982  1.0000
  C   C441      1.0  0.35287  0.34206  0.50719  1.0000
  H   H362      1.0  0.18902  0.38331  0.80422  1.0000
  C   C442      1.0  0.42274  0.40429  0.83818  1.0000
  H   H363      1.0  0.29464  0.46860  0.86449  1.0000
  C   C443      1.0  0.36865  0.38863  0.88107  1.0000
  Fe  Fe30      1.0  0.20739  0.62275  0.63517  1.0000
  S   S61       1.0  0.17165  0.33096  0.87844  1.0000
  C   C444      1.0  0.39282  0.46423  0.84971  1.0000
  C   C445      1.0  0.40694  0.40584  0.81016  1.0000
  H   H364      1.0  0.38862  0.50327  0.83328  1.0000
  H   H365      1.0  0.41192  0.39855  0.76324  1.0000
  H   H366      1.0  0.42764  0.62857  0.61781  1.0000
  C   C446      1.0  0.21884  0.31335  0.49509  1.0000
  C   C447      1.0  0.31669  0.35288  0.89576  1.0000
  C   C448      1.0  0.19652  0.33863  0.64479  1.0000
  C   C449      1.0  0.19431  0.33161  0.67494  1.0000
  H   H367      1.0  0.35834  0.36085  0.49747  1.0000
  P   P17       1.0  0.21461  0.35090  0.70346  1.0000
  H   H368      1.0  0.19617  0.62607  0.73670  1.0000
  C   C450      1.0  0.22690  0.38277  0.69061  1.0000
  C   C451      1.0  0.25987  0.39281  0.69644  1.0000
  C   C452      1.0  0.26856  0.41785  0.68729  1.0000
  C   C453      1.0  0.24421  0.43337  0.67301  1.0000
  C   C454      1.0  0.21104  0.42382  0.66787  1.0000
  C   C455      1.0  0.20234  0.39865  0.67675  1.0000
  H   H369      1.0  0.17639  0.39163  0.67308  1.0000
  C   C456      1.0  0.46295  0.40045  0.94232  1.0000
  H   H370      1.0  0.22666  0.37447  0.76118  1.0000
  C   C457      1.0  0.45840  0.38889  0.78678  1.0000
  H   H371      1.0  0.19202  0.43602  0.65720  1.0000
  C   C458      1.0  0.18646  0.35682  0.73471  1.0000
  C   C459      1.0  0.12991  0.35601  0.75801  1.0000
  C   C460      1.0  0.37411  0.33230  0.52962  1.0000
  C   C461      1.0  0.14354  0.36769  0.78346  1.0000
  C   C462      1.0  0.17837  0.37442  0.78439  1.0000
  C   C463      1.0  0.50070  0.44949  0.62999  1.0000
  C   C464      1.0  0.28561  0.61805  0.57710  1.0000
  H   H372      1.0  0.29603  0.33947  0.90108  1.0000
  C   C465      1.0  0.50442  0.49097  0.60539  1.0000
  C   C466      1.0  0.25138  0.33167  0.71390  1.0000
  H   H373      1.0  0.49852  0.42670  0.96368  1.0000
  C   C467      1.0  0.03845  0.62989  0.62487  1.0000
  C   C468      1.0  0.50484  0.49800  0.83995  1.0000
  C   C469      1.0  0.04411  0.31666  0.84999  1.0000
  H   H374      1.0  0.49711  0.51112  0.60398  1.0000
  H   H375      1.0  0.01130  0.33261  0.81592  1.0000
  C   C470      1.0  0.27976  0.32990  0.69462  1.0000
  C   C471      1.0  0.30740  0.31365  0.70154  1.0000
  Fe  Fe31      1.0  0.13573  0.31204  0.84587  1.0000
  H   H376      1.0  0.32949  0.31269  0.68684  1.0000
  C   C472      1.0  0.01209  0.32232  0.83687  1.0000
  S   S62       1.0  0.17620  0.30987  0.80989  1.0000
  C   C473      1.0  0.41703  0.64522  0.05645  1.0000
  S   S63       1.0  0.14094  0.67415  0.12413  1.0000
  Fe  Fe32      1.0  0.16880  0.64989  0.09046  1.0000
  S   S64       1.0  0.16287  0.65743  0.04027  1.0000
  Fe  Fe33      1.0  0.18687  0.66759  0.15352  1.0000
  S   S65       1.0  0.20859  0.70155  0.17951  1.0000
  C   C474      1.0  0.21321  0.65906  0.36043  1.0000
  S   S66       1.0  0.43359  0.94757  0.25839  1.0000
  C   C475      1.0  0.00997  0.80456  0.18528  1.0000
  C   C476      1.0  0.16223  0.68475  0.98745  1.0000
  Fe  Fe34      1.0  0.37648  0.93919  0.25308  1.0000
  S   S67       1.0  0.35593  0.89838  0.26584  1.0000
  Fe  Fe35      1.0  0.18125  0.75215  0.34240  1.0000
  S   S68       1.0  0.16549  0.78908  0.32017  1.0000
  S   S69       1.0  0.18633  0.71342  0.31888  1.0000
  Fe  Fe36      1.0  0.17470  0.77443  0.40487  1.0000
  S   S70       1.0  0.15845  0.81350  0.38677  1.0000
  S   S71       1.0  0.17434  0.76896  0.45568  1.0000
  Fe  Fe37      1.0  0.12448  0.79111  0.35556  1.0000
  S   S72       1.0  0.07053  0.80093  0.33898  1.0000
  Fe  Fe38      1.0  0.20111  0.80925  0.35260  1.0000
  S   S73       1.0  0.23050  0.84733  0.34069  1.0000
  S   S74       1.0  0.13783  0.75271  0.37558  1.0000
  S   S75       1.0  0.21977  0.77154  0.37305  1.0000
  C   C477      1.0  0.03236  0.80185  0.36062  1.0000
  C   C478      1.0  0.03224  0.79736  0.39133  1.0000
  H   H377      1.0  0.25101  0.66357  0.32627  1.0000
  H   H378      1.0  0.05619  0.79341  0.40273  1.0000
  H   H379      1.0  0.05263  0.78319  0.08938  1.0000
  C   C479      1.0  0.32094  0.88493  0.28717  1.0000
  C   C480      1.0  0.32030  0.85804  0.29263  1.0000
  C   C481      1.0  0.29319  0.84628  0.30889  1.0000
  C   C482      1.0  0.26578  0.86112  0.31983  1.0000
  C   C483      1.0  0.26655  0.88808  0.31458  1.0000
  C   C484      1.0  0.29373  0.89987  0.29833  1.0000
  H   H380      1.0  0.34114  0.84617  0.28437  1.0000
  H   H381      1.0  0.29400  0.82582  0.31351  1.0000
  H   H382      1.0  0.24579  0.89995  0.32297  1.0000
  H   H383      1.0  0.29348  0.92051  0.29425  1.0000
  C   C485      1.0  0.48322  0.96707  0.34917  1.0000
  C   C486      1.0  0.17080  0.68543  0.01791  1.0000
  H   H384      1.0  0.07839  0.70281  0.10339  1.0000
  H   H385      1.0  0.43288  0.89601  0.28530  1.0000
  C   C487      1.0  0.10262  0.69436  0.48345  1.0000
  C   C488      1.0  0.18500  0.71588  0.46379  1.0000
  C   C489      1.0  0.43958  0.89731  0.30867  1.0000
  H   H386      1.0  0.04297  0.76034  0.45235  1.0000
  H   H387      1.0  0.26772  0.68528  0.22522  1.0000
  H   H388      1.0  0.18692  0.71449  0.43983  1.0000
  C   C490      1.0  0.08762  0.80370  0.47599  1.0000
  C   C491      1.0  0.20034  0.70484  0.21801  1.0000
  C   C492      1.0  0.21064  0.72764  0.23239  1.0000
  C   C493      1.0  0.20512  0.73096  0.26308  1.0000
  C   C494      1.0  0.19055  0.71099  0.27988  1.0000
  C   C495      1.0  0.18033  0.68809  0.26555  1.0000
  C   C496      1.0  0.18475  0.68514  0.23464  1.0000
  H   H389      1.0  0.22319  0.74271  0.21971  1.0000
  H   H390      1.0  0.21281  0.74865  0.27395  1.0000
  H   H391      1.0  0.16889  0.67263  0.27845  1.0000
  H   H392      1.0  0.17681  0.66742  0.22392  1.0000
  C   C497      1.0  0.03685  0.70442  0.41321  1.0000
  C   C498      1.0  0.10109  0.72102  0.06521  1.0000
  H   H393      1.0  0.19205  0.70902  0.05280  1.0000
  C   C499      1.0  0.32321  0.66963  0.10861  1.0000
  H   H394      1.0  0.08808  0.78330  0.04359  1.0000
  C   C500      1.0  0.05517  0.72059  0.16078  1.0000
  C   C501      1.0  0.04442  0.66465  0.04103  1.0000
  C   C502      1.0  0.10635  0.73957  0.25281  1.0000
  C   C503      1.0  0.09186  0.72616  0.27676  1.0000
  C   C504      1.0  0.06630  0.76579  0.08302  1.0000
  C   C505      1.0  0.45411  0.94554  0.45098  1.0000
  H   H395      1.0  0.32330  0.70030  0.24600  1.0000
  H   H396      1.0  0.21519  0.67911  0.36747  1.0000
  H   H397      1.0  0.38031  0.92178  0.08719  1.0000
  C   C506      1.0  0.08516  0.75297  0.23300  1.0000
  H   H398      1.0  0.07303  0.73615  0.41286  1.0000
  H   H399      1.0  0.40602  0.94142  0.04188  1.0000
  H   H400      1.0  0.09636  0.76295  0.21414  1.0000
  C   C507      1.0  0.06789  0.67472  0.02054  1.0000
  H   H401      1.0  0.04553  0.71577  0.29977  1.0000
  H   H402      1.0  0.49095  0.88272  0.30242  1.0000
  H   H403      1.0  0.35003  0.67666  0.28820  1.0000
  H   H404      1.0  0.03339  0.76356  0.22191  1.0000
  C   C508      1.0  0.40016  0.95344  0.06097  1.0000
  H   H405      1.0  0.28533  0.70038  0.16714  1.0000
  C   C509      1.0  0.02574  0.70677  0.00472  1.0000
  S   S76       1.0  0.37510  0.95681  0.20670  1.0000
  C   C510      1.0  0.08614  0.76591  0.05698  1.0000
  H   H406      1.0  0.19290  0.67494  0.47111  1.0000
  C   C511      1.0  0.30046  0.87823  0.40135  1.0000
  C   C512      1.0  0.30675  0.85396  0.38879  1.0000
  C   C513      1.0  0.33893  0.84853  0.37637  1.0000
  C   C514      1.0  0.36476  0.86744  0.37616  1.0000
  C   C515      1.0  0.35846  0.89207  0.38831  1.0000
  C   C516      1.0  0.32623  0.89718  0.40129  1.0000
  P   P18       1.0  0.39033  0.91762  0.38561  1.0000
  C   C517      1.0  0.42319  0.90768  0.35948  1.0000
  C   C518      1.0  0.36937  0.94597  0.37023  1.0000
  H   H407      1.0  0.27137  0.92386  0.20514  1.0000
  H   H408      1.0  0.33506  0.67413  0.08741  1.0000
  C   C519      1.0  0.27967  0.67468  0.24328  1.0000
  C   C520      1.0  0.43948  0.93575  0.47706  1.0000
  C   C521      1.0  0.04721  0.69031  0.20157  1.0000
  H   H409      1.0  0.50524  0.88418  0.35622  1.0000
  Fe  Fe39      1.0  0.43086  0.96827  0.21404  1.0000
  H   H410      1.0  0.47041  0.93970  0.07949  1.0000
  C   C522      1.0  0.41539  0.90668  0.32903  1.0000
  C   C523      1.0  0.40908  0.92490  0.42162  1.0000
  C   C524      1.0  0.39461  0.91503  0.44798  1.0000
  H   H411      1.0  0.27522  0.88248  0.41042  1.0000
  H   H412      1.0  0.28639  0.83956  0.38809  1.0000
  H   H413      1.0  0.34348  0.82986  0.36614  1.0000
  H   H414      1.0  0.38918  0.86290  0.36582  1.0000
  H   H415      1.0  0.32069  0.91610  0.41051  1.0000
  H   H416      1.0  0.09560  0.73523  0.48188  1.0000
  C   C525      1.0  0.08090  0.72072  0.09098  1.0000
  S   S77       1.0  0.47953  0.96950  0.18437  1.0000
  C   C526      1.0  0.45559  0.89898  0.36924  1.0000
  C   C527      1.0  0.40971  0.92054  0.47556  1.0000
  C   C528      1.0  0.48597  0.94979  0.09572  1.0000
  C   C529      1.0  0.04986  0.72819  0.42284  1.0000
  H   H417      1.0  0.39035  0.91267  0.32098  1.0000
  H   H418      1.0  0.37187  0.90295  0.44743  1.0000
  H   H419      1.0  0.11465  0.70366  0.05836  1.0000
  H   H420      1.0  0.11215  0.69346  0.46081  1.0000
  H   H421      1.0  0.29930  0.96286  0.32867  1.0000
  C   C530      1.0  0.17880  0.80969  0.14240  1.0000
  C   C531      1.0  0.16856  0.78377  0.14465  1.0000
  C   C532      1.0  0.16841  0.77150  0.17236  1.0000
  C   C533      1.0  0.17861  0.78509  0.19776  1.0000
  C   C534      1.0  0.18970  0.81093  0.19565  1.0000
  C   C535      1.0  0.18951  0.82323  0.16778  1.0000
  P   P19       1.0  0.20635  0.82688  0.22845  1.0000
  C   C536      1.0  0.17212  0.83431  0.25439  1.0000
  C   C537      1.0  0.23729  0.80495  0.24475  1.0000
  C   C538      1.0  0.23946  0.80184  0.27567  1.0000
  C   C539      1.0  0.26280  0.78424  0.28797  1.0000
  C   C540      1.0  0.28464  0.76998  0.26951  1.0000
  C   C541      1.0  0.28319  0.77337  0.23868  1.0000
  C   C542      1.0  0.25961  0.79078  0.22632  1.0000
  C   C543      1.0  0.17797  0.85258  0.27698  1.0000
  C   C544      1.0  0.15231  0.85808  0.29784  1.0000
  C   C545      1.0  0.12045  0.84560  0.29620  1.0000
  C   C546      1.0  0.11420  0.82760  0.27363  1.0000
  C   C547      1.0  0.13987  0.82196  0.25273  1.0000
  C   C548      1.0  0.22750  0.85714  0.21955  1.0000
  C   C549      1.0  0.20764  0.87872  0.21137  1.0000
  C   C550      1.0  0.22342  0.90265  0.20597  1.0000
  C   C551      1.0  0.25910  0.90523  0.20881  1.0000
  C   C552      1.0  0.27900  0.88388  0.21695  1.0000
  C   C553      1.0  0.26335  0.85996  0.22249  1.0000
  H   H422      1.0  0.17935  0.81909  0.12083  1.0000
  H   H423      1.0  0.16139  0.77304  0.12485  1.0000
  H   H424      1.0  0.16152  0.75118  0.17411  1.0000
  H   H425      1.0  0.17868  0.77527  0.21907  1.0000
  H   H426      1.0  0.19841  0.84298  0.16535  1.0000
  H   H427      1.0  0.22332  0.81301  0.29039  1.0000
  H   H428      1.0  0.26389  0.78175  0.31191  1.0000
  H   H429      1.0  0.30259  0.75631  0.27914  1.0000
  H   H430      1.0  0.30010  0.76235  0.22433  1.0000
  H   H431      1.0  0.25870  0.79310  0.20237  1.0000
  H   H432      1.0  0.20279  0.86206  0.27910  1.0000
  H   H433      1.0  0.15764  0.87144  0.31588  1.0000
  H   H434      1.0  0.10094  0.84929  0.31295  1.0000
  H   H435      1.0  0.08982  0.81736  0.27314  1.0000
  H   H436      1.0  0.13449  0.80766  0.23589  1.0000
  H   H437      1.0  0.17990  0.87713  0.20966  1.0000
  H   H438      1.0  0.45075  0.94784  0.40356  1.0000
  C   C554      1.0  0.05501  0.81438  0.47147  1.0000
  H   H439      1.0  0.30662  0.88603  0.21961  1.0000
  H   H440      1.0  0.27941  0.84405  0.22971  1.0000
  H   H441      1.0  0.13397  0.73930  0.24948  1.0000
  C   C555      1.0  0.50675  0.95910  0.37141  1.0000
  H   H442      1.0  0.20321  0.74689  0.01985  1.0000
  C   C556      1.0  0.43890  0.94024  0.42347  1.0000
  C   C557      1.0  0.03285  0.74185  0.44522  1.0000
  H   H443      1.0  0.47748  0.95708  0.45192  1.0000
  H   H444      1.0  0.36731  0.94927  0.13108  1.0000
  C   C558      1.0  0.10364  0.74356  0.04813  1.0000
  H   H445      1.0  0.01994  0.75474  0.32599  1.0000
  C   C559      1.0  0.47329  0.95306  0.12502  1.0000
  C   C560      1.0  0.47211  0.88954  0.31839  1.0000
  C   C561      1.0  0.04012  0.81938  0.18599  1.0000
  H   H446      1.0  0.04103  0.83706  0.19898  1.0000
  H   H447      1.0  0.09107  0.78198  0.14208  1.0000
  H   H448      1.0  0.32878  0.92438  0.34802  1.0000
  H   H449      1.0  0.44834  0.94543  0.13112  1.0000
  H   H450      1.0  0.13233  0.70160  0.18962  1.0000
  C   C562      1.0  0.30963  0.64809  0.29082  1.0000
  H   H451      1.0  0.10937  0.81005  0.46261  1.0000
  H   H452      1.0  0.47338  0.95324  0.33324  1.0000
  H   H453      1.0  0.10846  0.71571  0.29202  1.0000
  H   H454      1.0  0.09361  0.67580  0.22184  1.0000
  C   C563      1.0  0.06807  0.78835  0.15358  1.0000
  H   H455      1.0  0.11910  0.74362  0.02797  1.0000
  H   H456      1.0  0.46206  0.89866  0.39263  1.0000
  H   H457      1.0  0.09340  0.66633  0.01872  1.0000
  H   H458      1.0  0.20800  0.91934  0.20001  1.0000
  H   H459      1.0  0.10832  0.73018  0.15095  1.0000
  C   C564      1.0  0.06923  0.81119  0.17028  1.0000
  C   C565      1.0  0.06409  0.74329  0.10050  1.0000
  P   P20       1.0  0.03778  0.74267  0.13363  1.0000
  C   C566      1.0  0.37845  0.95782  0.11124  1.0000
  C   C567      1.0  0.04951  0.75327  0.23741  1.0000
  C   C568      1.0  0.17926  0.74003  0.47704  1.0000
  C   C569      1.0  0.33919  0.94331  0.35317  1.0000
  H   H460      1.0  0.07764  0.70283  0.98698  1.0000
  C   C570      1.0  0.38570  0.94237  0.08649  1.0000
  C   C571      1.0  0.49335  0.96555  0.14656  1.0000
  C   C572      1.0  0.18532  0.70811  0.02948  1.0000
  H   H461      1.0  0.05006  0.69389  0.39576  1.0000
  C   C573      1.0  0.08286  0.68868  0.20524  1.0000
  H   H462      1.0  0.23907  0.64678  0.24564  1.0000
  C   C574      1.0  0.31093  0.68322  0.25508  1.0000
  H   H463      1.0  0.05179  0.64851  0.05506  1.0000
  C   C575      1.0  0.32234  0.96515  0.34201  1.0000
  C   C576      1.0  0.03477  0.74073  0.26203  1.0000
  C   C577      1.0  0.10470  0.70314  0.18697  1.0000
  H   H464      1.0  0.03122  0.78652  0.99620  1.0000
  C   C578      1.0  0.01150  0.67529  0.04322  1.0000
  C   C579      1.0  0.19161  0.72958  0.01070  1.0000
  C   C580      1.0  0.31220  0.68995  0.12687  1.0000
  H   H465      1.0  0.03046  0.67855  0.21529  1.0000
  C   C581      1.0  0.09095  0.71916  0.16492  1.0000
  C   C582      1.0  0.03331  0.70630  0.17952  1.0000
  C   C583      1.0  0.05616  0.72647  0.28121  1.0000
  C   C584      1.0  0.32595  0.66989  0.27881  1.0000
  H   H466      1.0  0.09280  0.82245  0.17123  1.0000
  C   C585      1.0  0.23360  0.65008  0.33695  1.0000
  C   C586      1.0  0.05869  0.69564  0.00247  1.0000
  C   C587      1.0  0.29498  0.68464  0.15353  1.0000
  C   C588      1.0  0.03766  0.77364  0.15223  1.0000
  H   H467      1.0  0.05133  0.82906  0.45448  1.0000
  H   H468      1.0  0.47690  0.94139  0.99373  1.0000
  S   S78       1.0  0.21694  0.64598  0.11834  1.0000
  C   C589      1.0  0.48011  0.89037  0.34867  1.0000
  H   H469      1.0  0.31602  0.70985  0.11993  1.0000
  C   C590      1.0  0.26342  0.65275  0.25504  1.0000
  H   H470      1.0  0.43927  0.65606  0.06402  1.0000
  C   C591      1.0  0.18839  0.69346  0.48161  1.0000
  H   H471      1.0  0.39241  0.64550  0.09928  1.0000
  C   C592      1.0  0.28884  0.65901  0.16198  1.0000
  H   H472      1.0  0.02326  0.79412  0.26770  1.0000
  H   H473      1.0  0.27412  0.65486  0.18190  1.0000
  H   H474      1.0  0.08240  0.81297  0.98571  1.0000
  H   H475      1.0  0.40712  0.97370  0.38625  1.0000
  C   C593      1.0  0.38316  0.97085  0.37459  1.0000
  H   H476      1.0  0.29214  0.64398  0.04399  1.0000
  H   H477      1.0  0.17386  0.64967  0.39239  1.0000
  C   C594      1.0  0.31752  0.64382  0.11722  1.0000
  C   C595      1.0  0.07903  0.73346  0.69415  1.0000
  S   S79       1.0  0.13750  0.67390  0.61189  1.0000
  H   H478      1.0  0.02667  0.64938  0.53543  1.0000
  S   S80       1.0  0.18958  0.66574  0.53415  1.0000
  Fe  Fe40      1.0  0.17670  0.67571  0.64872  1.0000
  S   S81       1.0  0.17570  0.71266  0.67568  1.0000
  C   C596      1.0  0.34465  0.94070  0.63785  1.0000
  S   S82       1.0  0.41645  0.92989  0.74969  1.0000
  H   H479      1.0  0.09663  0.70057  0.73939  1.0000
  C   C597      1.0  0.41817  0.70088  0.63958  1.0000
  Fe  Fe41      1.0  0.36054  0.94122  0.75044  1.0000
  S   S83       1.0  0.31456  0.91269  0.75326  1.0000
  Fe  Fe42      1.0  0.19133  0.74658  0.84233  1.0000
  S   S84       1.0  0.17404  0.78483  0.82403  1.0000
  S   S85       1.0  0.20475  0.71125  0.81454  1.0000
  Fe  Fe43      1.0  0.18466  0.76425  0.90747  1.0000
  S   S86       1.0  0.16701  0.80420  0.89319  1.0000
  S   S87       1.0  0.19274  0.75641  0.95753  1.0000
  Fe  Fe44      1.0  0.13355  0.78289  0.86022  1.0000
  S   S88       1.0  0.07804  0.78881  0.84482  1.0000
  Fe  Fe45      1.0  0.20911  0.80292  0.85809  1.0000
  S   S89       1.0  0.25054  0.83484  0.85137  1.0000
  S   S90       1.0  0.14898  0.74332  0.87616  1.0000
  S   S91       1.0  0.22865  0.76434  0.87477  1.0000
  C   C598      1.0  0.03920  0.79120  0.86554  1.0000
  C   C599      1.0  0.03875  0.79737  0.89586  1.0000
  S   S92       1.0  0.22117  0.66320  0.61976  1.0000
  H   H480      1.0  0.06277  0.80022  0.90757  1.0000
  C   C600      1.0  0.29549  0.64694  0.67037  1.0000
  C   C601      1.0  0.29762  0.89082  0.78080  1.0000
  C   C602      1.0  0.26832  0.87576  0.77392  1.0000
  C   C603      1.0  0.25371  0.85844  0.79491  1.0000
  C   C604      1.0  0.26809  0.85592  0.82335  1.0000
  C   C605      1.0  0.29745  0.87090  0.83019  1.0000
  C   C606      1.0  0.31215  0.88815  0.80916  1.0000
  H   H481      1.0  0.25660  0.87767  0.75222  1.0000
  H   H482      1.0  0.23100  0.84739  0.78925  1.0000
  H   H483      1.0  0.30882  0.86920  0.85205  1.0000
  H   H484      1.0  0.33455  0.89954  0.81494  1.0000
  C   C607      1.0  0.27579  0.65650  0.69394  1.0000
  C   C608      1.0  0.18569  0.69477  0.51285  1.0000
  C   C609      1.0  0.18017  0.71891  0.52609  1.0000
  C   C610      1.0  0.04882  0.81834  0.72532  1.0000
  C   C611      1.0  0.02090  0.71630  0.69507  1.0000
  C   C612      1.0  0.16845  0.70625  0.96869  1.0000
  C   C613      1.0  0.32668  0.66064  0.59186  1.0000
  H   H485      1.0  0.17874  0.72028  0.55002  1.0000
  H   H486      1.0  0.00961  0.78022  0.52283  1.0000
  H   H487      1.0  0.16206  0.70525  0.94529  1.0000
  C   C614      1.0  0.50343  0.95304  0.86756  1.0000
  C   C615      1.0  0.18117  0.71114  0.71458  1.0000
  C   C616      1.0  0.17465  0.73330  0.73166  1.0000
  C   C617      1.0  0.18164  0.73352  0.76230  1.0000
  C   C618      1.0  0.19543  0.71160  0.77611  1.0000
  C   C619      1.0  0.20166  0.68931  0.75906  1.0000
  C   C620      1.0  0.19419  0.68899  0.72843  1.0000
  H   H488      1.0  0.16455  0.75048  0.72112  1.0000
  H   H489      1.0  0.17649  0.75069  0.77515  1.0000
  H   H490      1.0  0.21200  0.67221  0.76968  1.0000
  H   H491      1.0  0.19882  0.67176  0.71549  1.0000
  C   C621      1.0  0.30265  0.66251  0.56874  1.0000
  C   C622      1.0  0.32776  0.66542  0.72171  1.0000
  C   C623      1.0  0.27068  0.72189  0.67179  1.0000
  C   C624      1.0  0.30145  0.72336  0.65581  1.0000
  C   C625      1.0  0.32516  0.74303  0.66211  1.0000
  C   C626      1.0  0.31798  0.76131  0.68429  1.0000
  C   C627      1.0  0.28686  0.76008  0.70021  1.0000
  C   C628      1.0  0.26353  0.74007  0.69394  1.0000
  P   P21       1.0  0.27640  0.78371  0.72854  1.0000
  C   C629      1.0  0.28312  0.77038  0.76528  1.0000
  C   C630      1.0  0.30335  0.81205  0.72446  1.0000
  C   C631      1.0  0.33712  0.81187  0.73569  1.0000
  C   C632      1.0  0.35774  0.83403  0.73371  1.0000
  C   C633      1.0  0.34490  0.85645  0.72038  1.0000
  C   C634      1.0  0.31150  0.85670  0.70885  1.0000
  C   C635      1.0  0.29073  0.83461  0.71085  1.0000
  C   C636      1.0  0.28092  0.74358  0.77031  1.0000
  C   C637      1.0  0.28568  0.73360  0.79894  1.0000
  C   C638      1.0  0.29233  0.75023  0.82275  1.0000
  C   C639      1.0  0.29411  0.77693  0.81801  1.0000
  C   C640      1.0  0.28950  0.78700  0.78944  1.0000
  C   C641      1.0  0.23177  0.79307  0.72473  1.0000
  C   C642      1.0  0.21590  0.79308  0.69662  1.0000
  C   C643      1.0  0.18137  0.80035  0.69373  1.0000
  C   C644      1.0  0.16258  0.80795  0.71875  1.0000
  C   C645      1.0  0.17833  0.80838  0.74667  1.0000
  C   C646      1.0  0.21275  0.80093  0.74971  1.0000
  H   H492      1.0  0.25207  0.70680  0.66689  1.0000
  H   H493      1.0  0.30664  0.70934  0.63846  1.0000
  H   H494      1.0  0.34893  0.74433  0.64959  1.0000
  H   H495      1.0  0.33653  0.77648  0.68863  1.0000
  H   H496      1.0  0.23956  0.73873  0.70604  1.0000
  H   H497      1.0  0.34728  0.79476  0.74650  1.0000
  H   H498      1.0  0.38341  0.83410  0.74312  1.0000
  H   H499      1.0  0.36040  0.87394  0.71972  1.0000
  H   H500      1.0  0.30133  0.87446  0.69949  1.0000
  H   H501      1.0  0.26469  0.83552  0.70243  1.0000
  H   H502      1.0  0.27474  0.73033  0.75252  1.0000
  H   H503      1.0  0.28280  0.71301  0.80293  1.0000
  H   H504      1.0  0.29502  0.74248  0.84504  1.0000
  H   H505      1.0  0.29811  0.78995  0.83665  1.0000
  H   H506      1.0  0.29018  0.80783  0.78646  1.0000
  H   H507      1.0  0.23010  0.78737  0.67696  1.0000
  H   H508      1.0  0.16908  0.79988  0.67213  1.0000
  H   H509      1.0  0.13579  0.81340  0.71655  1.0000
  H   H510      1.0  0.16391  0.81436  0.76612  1.0000
  H   H511      1.0  0.22427  0.80128  0.77162  1.0000
  H   H512      1.0  0.01495  0.74776  0.91665  1.0000
  H   H513      1.0  0.03726  0.83110  0.70903  1.0000
  C   C647      1.0  0.37387  0.90552  0.87616  1.0000
  C   C648      1.0  0.09347  0.70475  0.76280  1.0000
  C   C649      1.0  0.09234  0.78456  0.49760  1.0000
  H   H514      1.0  0.32063  0.91209  0.88708  1.0000
  P   P22       1.0  0.07107  0.75057  0.54220  1.0000
  C   C650      1.0  0.10561  0.76064  0.56674  1.0000
  H   H515      1.0  0.27642  0.67321  0.73783  1.0000
  C   C651      1.0  0.07993  0.69698  0.54234  1.0000
  H   H516      1.0  0.29933  0.68059  0.55683  1.0000
  C   C652      1.0  0.05565  0.77527  0.74644  1.0000
  H   H517      1.0  0.45134  0.93981  0.49839  1.0000
  C   C653      1.0  0.29184  0.66583  0.71958  1.0000
  C   C654      1.0  0.11350  0.78705  0.57016  1.0000
  C   C655      1.0  0.14012  0.79484  0.58915  1.0000
  C   C656      1.0  0.15877  0.77639  0.60518  1.0000
  C   C657      1.0  0.15064  0.75018  0.60241  1.0000
  C   C658      1.0  0.12419  0.74233  0.58334  1.0000
  C   C659      1.0  0.08049  0.79354  0.97681  1.0000
  C   C660      1.0  0.44923  0.69165  0.62803  1.0000
  H   H518      1.0  0.39073  0.92113  0.62357  1.0000
  C   C661      1.0  0.39028  0.68403  0.64341  1.0000
  C   C662      1.0  0.08730  0.71482  0.82376  1.0000
  C   C663      1.0  0.11132  0.69674  0.81366  1.0000
  C   C664      1.0  0.05660  0.71060  0.65131  1.0000
  Fe  Fe46      1.0  0.18093  0.65842  0.58401  1.0000
  C   C665      1.0  0.06639  0.72790  0.80345  1.0000
  C   C666      1.0  0.09320  0.71821  0.49566  1.0000
  P   P23       1.0  0.04344  0.74150  0.74707  1.0000
  H   H519      1.0  0.07102  0.69753  0.56515  1.0000
  H   H520      1.0  0.33331  0.92351  0.64765  1.0000
  C   C667      1.0  0.04787  0.72952  0.70943  1.0000
  C   C668      1.0  0.05144  0.77832  0.98271  1.0000
  C   C669      1.0  0.03165  0.78648  0.50998  1.0000
  H   H521      1.0  0.09930  0.80171  0.55811  1.0000
  H   H522      1.0  0.14648  0.81520  0.59125  1.0000
  H   H523      1.0  0.17968  0.78230  0.61961  1.0000
  H   H524      1.0  0.16512  0.73582  0.61483  1.0000
  H   H525      1.0  0.11886  0.72194  0.58140  1.0000
  H   H526      1.0  0.24800  0.65633  0.69227  1.0000
  P   P24       1.0  0.01249  0.73250  0.97972  1.0000
  C   C670      1.0  0.49102  0.93833  0.61697  1.0000
  H   H527      1.0  0.36871  0.88780  0.86403  1.0000
  C   C671      1.0  0.03871  0.65258  0.60796  1.0000
  C   C672      1.0  0.37687  0.93932  0.62413  1.0000
  H   H528      1.0  0.33185  0.95303  0.91354  1.0000
  C   C673      1.0  0.08331  0.72405  0.66522  1.0000
  C   C674      1.0  0.06434  0.77548  0.51447  1.0000
  H   H529      1.0  0.17322  0.75991  0.51895  1.0000
  H   H530      1.0  0.11788  0.77665  0.50087  1.0000
  C   C675      1.0  0.17710  0.74137  0.50832  1.0000
  C   C676      1.0  0.09064  0.67333  0.53040  1.0000
  H   H531      1.0  0.01443  0.68171  0.49630  1.0000
  H   H532      1.0  0.30344  0.96575  0.65182  1.0000
  C   C677      1.0  0.48866  0.96931  0.84581  1.0000
  C   C678      1.0  0.02540  0.70675  0.66619  1.0000
  H   H533      1.0  0.41755  0.96004  0.60281  1.0000
  H   H534      1.0  0.08538  0.71923  0.84727  1.0000
  C   C679      1.0  0.18349  0.72879  0.98015  1.0000
  C   C680      1.0  0.08211  0.71980  0.52537  1.0000
  Fe  Fe47      1.0  0.42336  0.95608  0.70981  1.0000
  S   S93       1.0  0.36639  0.96460  0.70800  1.0000
  C   C681      1.0  0.04123  0.79183  0.72501  1.0000
  H   H535      1.0  0.41573  0.72111  0.64560  1.0000
  C   C682      1.0  0.04882  0.75313  0.97095  1.0000
  C   C683      1.0  0.10715  0.78372  0.95934  1.0000
  H   H536      1.0  0.13007  0.79521  0.95513  1.0000
  C   C684      1.0  0.42456  0.64866  0.62407  1.0000
  H   H537      1.0  0.34163  0.67755  0.59765  1.0000
  C   C685      1.0  0.39218  0.96165  0.61243  1.0000
  H   H538      1.0  0.06019  0.70296  0.62909  1.0000
  C   C686      1.0  0.02970  0.75406  0.59316  1.0000
  H   H539      1.0  0.06294  0.66053  0.60049  1.0000
  H   H540      1.0  0.05064  0.76450  0.60359  1.0000
  H   H541      1.0  0.04833  0.74221  0.81169  1.0000
  C   C687      1.0  0.10193  0.67201  0.50095  1.0000
  H   H542      1.0  0.10768  0.72668  0.65385  1.0000
  C   C688      1.0  0.07861  0.78549  0.76751  1.0000
  H   H543      1.0  0.07333  0.72502  0.94210  1.0000
  H   H544      1.0  0.09093  0.65609  0.54420  1.0000
  S   S94       1.0  0.36930  0.97592  0.78000  1.0000
  H   H545      1.0  0.10211  0.81980  0.78545  1.0000
  C   C689      1.0  0.07070  0.82848  0.74710  1.0000
  S   S95       1.0  0.45966  0.95561  0.81906  1.0000
  H   H546      1.0  0.12838  0.68721  0.82929  1.0000
  C   C690      1.0  0.11395  0.69140  0.78326  1.0000
  H   H547      1.0  0.10034  0.74336  0.70485  1.0000
  C   C691      1.0  0.06981  0.72339  0.77277  1.0000
  C   C692      1.0  0.02709  0.80588  0.48857  1.0000
  C   C693      1.0  0.08560  0.81203  0.76813  1.0000
  H   H548      1.0  0.36638  0.69153  0.65227  1.0000
  H   H549      1.0  0.13262  0.67739  0.77549  1.0000
  C   C694      1.0  0.33156  0.64674  0.67210  1.0000
  C   C695      1.0  0.03244  0.74518  0.56371  1.0000
  H   H550      1.0  0.07601  0.84908  0.74787  1.0000
  H   H551      1.0  0.34021  0.67241  0.74173  1.0000
  C   C696      1.0  0.34678  0.91928  0.88915  1.0000
  C   C697      1.0  0.44232  0.95909  0.96196  1.0000
  H   H552      1.0  0.09082  0.77328  0.78394  1.0000
  H   H553      1.0  0.47836  0.91988  0.61367  1.0000
  C   C698      1.0  0.48252  0.95331  0.64214  1.0000
  C   C699      1.0  0.35331  0.94252  0.90418  1.0000
  H   H554      1.0  0.42848  0.90464  0.86759  1.0000
  H   H555      1.0  0.15101  0.66735  0.97818  1.0000
  H   H556      1.0  0.47086  0.70470  0.62509  1.0000
  H   H557      1.0  0.12499  0.75142  0.93369  1.0000
  C   C700      1.0  0.10428  0.75902  0.94706  1.0000
  Fe  Fe48      1.0  0.42600  0.96543  0.77799  1.0000
  S   S96       1.0  0.45133  0.94097  0.66789  1.0000
  C   C701      1.0  0.41418  0.93790  0.89362  1.0000
  H   H558      1.0  0.02362  0.78426  0.70847  1.0000
  C   C702      1.0  0.34758  0.65587  0.69810  1.0000
  H   H559      1.0  0.44030  0.94519  0.89452  1.0000
  C   C703      1.0  0.07509  0.74395  0.95234  1.0000
  H   H560      1.0  0.11119  0.65382  0.49201  1.0000
  C   C704      1.0  0.40755  0.91486  0.87837  1.0000
  H   H561      1.0  0.37537  0.65565  0.70010  1.0000
  C   C705      1.0  0.45239  0.66556  0.62025  1.0000
  C   C706      1.0  0.38712  0.95206  0.90640  1.0000
  H   H562      1.0  0.42391  0.94334  0.96301  1.0000
  H   H563      1.0  0.47647  0.65840  0.61126  1.0000
  C   C707      1.0  0.39329  0.65772  0.63583  1.0000
  C   C708      1.0  0.47211  0.95789  0.97938  1.0000
  H   H564      1.0  0.39846  0.91286  0.49580  1.0000
  C   C709      1.0  0.32785  0.96451  0.64020  1.0000
  H   H565      1.0  0.49708  0.93265  0.86759  1.0000
  H   H566      1.0  0.26259  0.64298  0.54419  1.0000
  Fe  Fe49      1.0  0.82085  0.18632  0.07849  1.0000
  S   S97       1.0  0.85188  0.15371  0.05952  1.0000
  S   S98       1.0  0.79620  0.21837  0.05123  1.0000
  Fe  Fe50      1.0  0.83456  0.16992  0.14294  1.0000
  S   S99       1.0  0.86584  0.13530  0.12826  1.0000
  S   S100      1.0  0.82706  0.17789  0.19273  1.0000
  Fe  Fe51      1.0  0.89032  0.16275  0.09567  1.0000
  S   S101      1.0  0.94631  0.17140  0.08378  1.0000
  Fe  Fe52      1.0  0.82430  0.12880  0.09337  1.0000
  S   S102      1.0  0.80694  0.08750  0.08035  1.0000
  S   S103      1.0  0.86105  0.19748  0.11207  1.0000
  S   S104      1.0  0.79117  0.16131  0.11071  1.0000
  C   C710      1.0  0.54334  0.30343  0.28895  1.0000
  H   H567      1.0  0.97043  0.23748  0.01983  1.0000
  C   C711      1.0  0.97456  0.12937  0.21067  1.0000
  C   C712      1.0  0.00099  0.22185  0.26796  1.0000
  C   C713      1.0  0.73066  0.14758  0.01195  1.0000
  C   C714      1.0  0.72964  0.28901  0.43104  1.0000
  Fe  Fe53      1.0  0.84793  0.28728  0.31988  1.0000
  S   S105      1.0  0.85497  0.28018  0.26978  1.0000
  Fe  Fe54      1.0  0.84115  0.26683  0.38380  1.0000
  S   S106      1.0  0.83866  0.22929  0.40987  1.0000
  H   H568      1.0  0.81859  0.17901  0.00909  1.0000
  C   C715      1.0  0.81292  0.19648  0.99691  1.0000
  S   S107      1.0  0.80227  0.27883  0.34924  1.0000
  S   S108      1.0  0.88625  0.27202  0.35294  1.0000
  H   H569      1.0  0.89241  0.24480  0.07312  1.0000
  C   C716      1.0  0.72627  0.16811  0.03182  1.0000
  C   C717      1.0  0.99894  0.10600  0.44765  1.0000
  H   H570      1.0  0.99178  0.11305  0.21335  1.0000
  C   C718      1.0  0.80139  0.21841  0.01216  1.0000
  H   H571      1.0  0.66565  0.99685  0.33731  1.0000
  H   H572      1.0  0.75784  0.21698  0.43177  1.0000
  C   C719      1.0  0.83679  0.23007  0.44908  1.0000
  C   C720      1.0  0.98503  0.24574  0.06483  1.0000
  C   C721      1.0  0.96247  0.24170  0.30373  1.0000
  C   C722      1.0  0.82791  0.30691  0.03134  1.0000
  C   C723      1.0  0.93307  0.23192  0.40923  1.0000
  H   H573      1.0  0.81907  0.26940  0.45212  1.0000
  H   H574      1.0  0.95551  0.11515  0.41972  1.0000
  C   C724      1.0  0.83606  0.20636  0.21378  1.0000
  C   C725      1.0  0.85237  0.22807  0.20143  1.0000
  C   C726      1.0  0.85832  0.25029  0.21903  1.0000
  C   C727      1.0  0.84808  0.25119  0.24909  1.0000
  C   C728      1.0  0.83256  0.22928  0.26160  1.0000
  C   C729      1.0  0.82662  0.20705  0.24404  1.0000
  H   H575      1.0  0.86040  0.22770  0.17838  1.0000
  H   H576      1.0  0.87115  0.26688  0.20941  1.0000
  H   H577      1.0  0.82466  0.22958  0.28469  1.0000
  H   H578      1.0  0.81420  0.19035  0.25387  1.0000
  C   C730      1.0  0.70625  0.05296  0.04058  1.0000
  C   C731      1.0  0.73567  0.03766  0.04448  1.0000
  C   C732      1.0  0.76598  0.04847  0.05692  1.0000
  C   C733      1.0  0.76753  0.07471  0.06555  1.0000
  C   C734      1.0  0.73794  0.08984  0.06211  1.0000
  C   C735      1.0  0.70770  0.07910  0.04956  1.0000
  H   H579      1.0  0.73511  0.01753  0.03790  1.0000
  H   H580      1.0  0.78851  0.03643  0.05969  1.0000
  H   H581      1.0  0.73833  0.10980  0.06936  1.0000
  C   C736      1.0  0.83989  0.28684  0.14964  1.0000
  C   C737      1.0  0.86619  0.11343  0.46609  1.0000
  C   C738      1.0  0.98495  0.15960  0.09974  1.0000
  C   C739      1.0  0.98573  0.13963  0.12078  1.0000
  H   H582      1.0  0.86509  0.27691  0.98750  1.0000
  H   H583      1.0  0.96188  0.13115  0.12859  1.0000
  C   C740      1.0  0.88312  0.23792  0.98773  1.0000
  C   C741      1.0  0.81666  0.16390  0.38468  1.0000
  C   C742      1.0  0.82780  0.14667  0.36276  1.0000
  C   C743      1.0  0.82938  0.12017  0.36891  1.0000
  C   C744      1.0  0.81956  0.11088  0.39692  1.0000
  C   C745      1.0  0.80776  0.12806  0.41890  1.0000
  C   C746      1.0  0.80692  0.15473  0.41276  1.0000
  P   P25       1.0  0.79508  0.11569  0.45490  1.0000
  C   C747      1.0  0.76960  0.08669  0.44883  1.0000
  S   S109      1.0  0.58510  0.00624  0.00087  1.0000
  C   C748      1.0  0.89459  0.21710  0.00487  1.0000
  H   H584      1.0  0.78384  0.25769  0.00753  1.0000
  C   C749      1.0  0.83898  0.26955  0.09963  1.0000
  C   C750      1.0  0.96585  0.23365  0.42217  1.0000
  H   H585      1.0  0.89809  0.25952  0.46857  1.0000
  H   H586      1.0  0.53174  0.05280  0.01862  1.0000
  H   H587      1.0  0.65855  0.28881  0.45736  1.0000
  C   C751      1.0  0.72804  0.04277  0.43963  1.0000
  C   C752      1.0  0.72612  0.06370  0.42003  1.0000
  C   C753      1.0  0.74686  0.08552  0.42451  1.0000
  C   C754      1.0  0.98728  0.15464  0.21320  1.0000
  H   H588      1.0  0.81554  0.18445  0.37985  1.0000
  H   H589      1.0  0.83517  0.15391  0.34099  1.0000
  H   H590      1.0  0.83802  0.10682  0.35187  1.0000
  H   H591      1.0  0.82091  0.09028  0.40137  1.0000
  H   H592      1.0  0.79869  0.16856  0.42942  1.0000
  C   C755      1.0  0.93450  0.30705  0.03633  1.0000
  C   C756      1.0  0.85738  0.29112  0.08906  1.0000
  H   H593      1.0  0.51741  0.01601  0.40805  1.0000
  H   H594      1.0  0.75431  0.24080  0.38406  1.0000
  H   H595      1.0  0.71903  0.20920  0.03650  1.0000
  H   H596      1.0  0.71106  0.02626  0.43689  1.0000
  H   H597      1.0  0.70796  0.06322  0.40175  1.0000
  H   H598      1.0  0.74460  0.10168  0.40928  1.0000
  C   C757      1.0  0.82605  0.25219  0.46439  1.0000
  P   P26       1.0  0.86601  0.29459  0.04956  1.0000
  C   C758      1.0  0.83055  0.26731  0.12976  1.0000
  C   C759      1.0  0.87447  0.26132  0.00133  1.0000
  H   H599      1.0  0.72101  0.12858  0.45122  1.0000
  H   H600      1.0  0.75161  0.02756  0.47920  1.0000
  H   H601      1.0  0.95241  0.19595  0.34802  1.0000
  Fe  Fe55      1.0  0.64267  0.00264  0.00769  1.0000
  H   H602      1.0  0.83083  0.25446  0.08456  1.0000
  C   C760      1.0  0.79339  0.24088  0.99600  1.0000
  H   H603      1.0  0.98924  0.30512  0.45106  1.0000
  H   H604      1.0  0.83739  0.06221  0.01487  1.0000
  C   C761      1.0  0.73744  0.27641  0.40440  1.0000
  H   H605      1.0  0.92993  0.10561  0.20198  1.0000
  H   H606      1.0  0.95814  0.25066  0.32523  1.0000
  C   C762      1.0  0.93522  0.23899  0.28370  1.0000
  C   C763      1.0  0.94097  0.22836  0.25551  1.0000
  C   C764      1.0  0.97423  0.22078  0.24692  1.0000
  H   H607      1.0  0.95957  0.25213  0.07112  1.0000
  P   P27       1.0  0.98169  0.20860  0.20971  1.0000
  C   C765      1.0  0.96538  0.17587  0.20853  1.0000
  C   C766      1.0  0.95925  0.22741  0.18210  1.0000
  C   C767      1.0  0.95316  0.21664  0.15392  1.0000
  C   C768      1.0  0.93663  0.23110  0.13194  1.0000
  C   C769      1.0  0.92627  0.25646  0.13782  1.0000
  C   C770      1.0  0.93270  0.26749  0.16567  1.0000
  C   C771      1.0  0.94944  0.25311  0.18771  1.0000
  H   H608      1.0  0.79195  0.28944  0.06251  1.0000
  C   C772      1.0  0.85808  0.30846  0.13945  1.0000
  H   H609      1.0  0.95462  0.26209  0.20900  1.0000
  C   C773      1.0  0.91757  0.14620  0.20070  1.0000
  C   C774      1.0  0.93026  0.17146  0.20290  1.0000
  C   C775      1.0  0.98315  0.14946  0.43296  1.0000
  C   C776      1.0  0.73323  0.14172  0.46666  1.0000
  H   H610      1.0  0.67952  0.11324  0.99502  1.0000
  H   H611      1.0  0.52617  0.01107  0.04551  1.0000
  H   H612      1.0  0.83282  0.28519  0.17292  1.0000
  C   C777      1.0  0.99377  0.22128  0.40818  1.0000
  H   H613      1.0  0.74367  0.23869  0.47882  1.0000
  C   C778      1.0  0.77163  0.06534  0.46818  1.0000
  H   H614      1.0  0.90965  0.24551  0.28984  1.0000
  H   H615      1.0  0.91953  0.22648  0.24025  1.0000
  C   C779      1.0  0.94639  0.27907  0.45956  1.0000
  H   H616      1.0  0.96108  0.19699  0.14884  1.0000
  H   H617      1.0  0.93181  0.22236  0.11043  1.0000
  H   H618      1.0  0.91325  0.26750  0.12082  1.0000
  C   C780      1.0  0.93976  0.12515  0.20425  1.0000
  H   H619      1.0  0.73512  0.12835  0.02059  1.0000
  H   H620      1.0  0.92457  0.28712  0.17032  1.0000
  C   C781      1.0  0.84543  0.20776  0.46522  1.0000
  H   H621      1.0  0.87009  0.11976  0.44340  1.0000
  H   H622      1.0  0.89049  0.14302  0.19594  1.0000
  H   H623      1.0  0.91257  0.18747  0.19984  1.0000
  H   H624      1.0  0.93906  0.28649  0.03392  1.0000
  C   C782      1.0  0.74909  0.23690  0.43155  1.0000
  H   H625      1.0  0.90012  0.19865  0.99450  1.0000
  H   H626      1.0  0.90272  0.21681  0.37312  1.0000
  H   H627      1.0  0.99445  0.08529  0.44685  1.0000
  H   H628      1.0  0.54706  0.28422  0.27977  1.0000
  H   H629      1.0  0.90628  0.20355  0.04885  1.0000
  C   C783      1.0  0.99525  0.23280  0.29603  1.0000
  S   S110      1.0  0.64156  0.98263  0.45382  1.0000
  C   C784      1.0  0.95620  0.20625  0.36879  1.0000
  H   H630      1.0  0.68592  0.16211  0.47536  1.0000
  H   H631      1.0  0.85418  0.19066  0.45358  1.0000
  C   C785      1.0  0.76848  0.13964  0.47322  1.0000
  H   H632      1.0  0.54182  0.98481  0.15440  1.0000
  H   H633      1.0  0.96646  0.16242  0.42064  1.0000
  H   H634      1.0  0.56354  0.97964  0.10264  1.0000
  C   C786      1.0  0.73129  0.27558  0.45821  1.0000
  H   H635      1.0  0.91106  0.24102  0.41960  1.0000
  H   H636      1.0  0.95268  0.19401  0.45922  1.0000
  C   C787      1.0  0.87698  0.26407  0.03234  1.0000
  P   P28       1.0  0.97113  0.24944  0.45782  1.0000
  H   H637      1.0  0.69192  0.99030  0.38713  1.0000
  S   S111      1.0  0.66713  0.04078  0.02454  1.0000
  C   C788      1.0  0.65953  0.30790  0.46729  1.0000
  C   C789      1.0  0.79508  0.30101  0.04264  1.0000
  S   S112      1.0  0.84539  0.30615  0.40465  1.0000
  C   C790      1.0  0.88951  0.24327  0.04931  1.0000
  H   H638      1.0  0.81653  0.25042  0.13764  1.0000
  C   C791      1.0  0.74113  0.24940  0.45827  1.0000
  C   C792      1.0  0.92826  0.21811  0.38280  1.0000
  C   C793      1.0  0.91103  0.27797  0.46606  1.0000
  H   H639      1.0  0.68509  0.09111  0.04710  1.0000
  C   C794      1.0  0.97702  0.12281  0.43235  1.0000
  H   H640      1.0  0.84418  0.10977  0.01437  1.0000
  C   C795      1.0  0.89790  0.21984  0.03560  1.0000
  H   H641      1.0  0.73652  0.28707  0.38361  1.0000
  C   C796      1.0  0.74728  0.25038  0.40464  1.0000
  H   H642      1.0  0.72766  0.16468  0.05559  1.0000
  C   C797      1.0  0.98898  0.20791  0.38143  1.0000
  C   C798      1.0  0.75092  0.04353  0.46354  1.0000
  C   C799      1.0  0.99136  0.23740  0.03570  1.0000
  C   C800      1.0  0.96231  0.30337  0.45655  1.0000
  C   C801      1.0  0.94686  0.20230  0.48063  1.0000
  H   H643      1.0  0.86490  0.29952  0.47475  1.0000
  C   C802      1.0  0.79183  0.06251  0.98750  1.0000
  H   H644      1.0  0.00604  0.25077  0.10889  1.0000
  C   C803      1.0  0.83283  0.10954  0.47749  1.0000
  C   C804      1.0  0.72076  0.19775  0.99040  1.0000
  C   C805      1.0  0.71316  0.16082  0.48033  1.0000
  C   C806      1.0  0.97871  0.30760  0.34286  1.0000
  C   C807      1.0  0.89210  0.30070  0.46982  1.0000
  C   C808      1.0  0.72125  0.19318  0.02105  1.0000
  H   H645      1.0  0.78829  0.04172  0.98859  1.0000
  C   C809      1.0  0.51656  0.30802  0.30905  1.0000
  H   H646      1.0  0.92066  0.11319  0.47569  1.0000
  H   H647      1.0  0.74031  0.30355  0.03579  1.0000
  H   H648      1.0  0.63054  0.08348  0.98969  1.0000
  C   C810      1.0  0.76554  0.30881  0.02737  1.0000
  C   C811      1.0  0.82331  0.10091  0.00203  1.0000
  H   H649      1.0  0.51907  0.97710  0.99187  1.0000
  H   H650      1.0  0.80196  0.13720  0.98812  1.0000
  C   C812      1.0  0.81956  0.07402  0.00223  1.0000
  C   C813      1.0  0.79921  0.11636  0.98730  1.0000
  H   H651      1.0  0.95493  0.30376  0.33112  1.0000
  Fe  Fe56      1.0  0.58427  0.97608  0.46005  1.0000
  C   C814      1.0  0.66342  0.97825  0.34833  1.0000
  C   C815      1.0  0.51942  0.97656  0.39292  1.0000
  C   C816      1.0  0.89504  0.10972  0.48430  1.0000
  Fe  Fe57      1.0  0.83358  0.19189  0.57738  1.0000
  S   S113      1.0  0.84827  0.15408  0.55670  1.0000
  S   S114      1.0  0.82376  0.22851  0.55062  1.0000
  Fe  Fe58      1.0  0.84000  0.17146  0.64068  1.0000
  S   S115      1.0  0.85554  0.13177  0.62406  1.0000
  S   S116      1.0  0.83736  0.17654  0.69143  1.0000
  Fe  Fe59      1.0  0.88960  0.15301  0.59186  1.0000
  S   S117      1.0  0.94300  0.14234  0.57466  1.0000
  Fe  Fe60      1.0  0.81279  0.13542  0.59002  1.0000
  S   S118      1.0  0.78086  0.09817  0.58127  1.0000
  S   S119      1.0  0.87710  0.19225  0.61044  1.0000
  S   S120      1.0  0.79494  0.17377  0.60892  1.0000
  S   S121      1.0  0.65056  0.98522  0.96200  1.0000
  H   H652      1.0  0.98738  0.25256  0.96104  1.0000
  C   C817      1.0  0.85783  0.09778  0.52525  1.0000
  H   H653      1.0  0.96417  0.24349  0.59369  1.0000
  H   H654      1.0  0.76225  0.25918  0.53227  1.0000
  C   C818      1.0  0.94658  0.14090  0.71549  1.0000
  Fe  Fe61      1.0  0.84225  0.28099  0.82659  1.0000
  S   S122      1.0  0.84486  0.27671  0.77576  1.0000
  Fe  Fe62      1.0  0.82759  0.25872  0.88832  1.0000
  S   S123      1.0  0.81647  0.22042  0.91094  1.0000
  C   C819      1.0  0.95132  0.19169  0.82040  1.0000
  H   H655      1.0  0.63915  0.24015  0.55195  1.0000
  S   S124      1.0  0.79433  0.28011  0.85516  1.0000
  S   S125      1.0  0.87361  0.25703  0.85805  1.0000
  C   C820      1.0  0.63678  0.05804  0.59870  1.0000
  C   C821      1.0  0.92182  0.19736  0.52961  1.0000
  C   C822      1.0  0.59644  0.04460  0.66101  1.0000
  H   H656      1.0  0.96225  0.30816  0.75664  1.0000
  C   C823      1.0  0.83085  0.22918  0.51171  1.0000
  C   C824      1.0  0.95820  0.28740  0.75673  1.0000
  C   C825      1.0  0.68297  0.10733  0.68904  1.0000
  C   C826      1.0  0.80996  0.21993  0.94980  1.0000
  C   C827      1.0  0.81685  0.19716  0.96579  1.0000
  H   H657      1.0  0.79245  0.25937  0.95284  1.0000
  C   C828      1.0  0.72635  0.23662  0.55746  1.0000
  H   H658      1.0  0.99596  0.22783  0.63727  1.0000
  H   H659      1.0  0.82589  0.18016  0.95419  1.0000
  H   H660      1.0  0.91164  0.25126  0.69392  1.0000
  C   C829      1.0  0.84060  0.20467  0.71437  1.0000
  C   C830      1.0  0.84230  0.22970  0.70254  1.0000
  C   C831      1.0  0.84385  0.25141  0.72165  1.0000
  C   C832      1.0  0.84362  0.24847  0.75283  1.0000
  C   C833      1.0  0.84240  0.22341  0.76467  1.0000
  C   C834      1.0  0.84090  0.20170  0.74555  1.0000
  H   H661      1.0  0.84188  0.23233  0.67867  1.0000
  H   H662      1.0  0.84478  0.27068  0.71221  1.0000
  H   H663      1.0  0.84219  0.22077  0.78855  1.0000
  H   H664      1.0  0.83954  0.18246  0.75500  1.0000
  C   C835      1.0  0.69761  0.06363  0.51805  1.0000
  C   C836      1.0  0.71400  0.04840  0.53954  1.0000
  C   C837      1.0  0.73930  0.05929  0.55845  1.0000
  C   C838      1.0  0.74873  0.08562  0.55634  1.0000
  C   C839      1.0  0.73235  0.10088  0.53481  1.0000
  C   C840      1.0  0.70718  0.08992  0.51578  1.0000
  H   H665      1.0  0.70729  0.02816  0.54143  1.0000
  H   H666      1.0  0.75170  0.04715  0.57487  1.0000
  H   H667      1.0  0.73901  0.12115  0.53287  1.0000
  C   C841      1.0  0.93292  0.24945  0.77946  1.0000
  H   H668      1.0  0.72126  0.07785  0.61699  1.0000
  C   C842      1.0  0.98124  0.14287  0.59622  1.0000
  H   H669      1.0  0.88011  0.26662  0.64991  1.0000
  C   C843      1.0  0.97045  0.27216  0.73326  1.0000
  H   H670      1.0  0.95641  0.14688  0.63875  1.0000
  H   H671      1.0  0.63962  0.10282  0.54292  1.0000
  P   P29       1.0  0.72178  0.29224  0.49256  1.0000
  C   C844      1.0  0.77106  0.10498  0.97262  1.0000
  C   C845      1.0  0.79818  0.24182  0.96499  1.0000
  H   H672      1.0  0.74568  0.06848  0.96261  1.0000
  C   C846      1.0  0.94431  0.23895  0.51418  1.0000
  H   H673      1.0  0.68488  0.21662  0.57951  1.0000
  C   C847      1.0  0.92790  0.22349  0.53543  1.0000
  C   C848      1.0  0.94571  0.23404  0.75638  1.0000
  H   H674      1.0  0.55818  0.99832  0.70380  1.0000
  H   H675      1.0  0.59063  0.06309  0.65079  1.0000
  H   H676      1.0  0.84958  0.19019  0.50856  1.0000
  H   H677      1.0  0.54638  0.04125  0.68149  1.0000
  H   H678      1.0  0.92868  0.28792  0.79742  1.0000
  C   C849      1.0  0.97647  0.15057  0.72876  1.0000
  C   C850      1.0  0.67602  0.10324  0.97412  1.0000
  C   C851      1.0  0.57130  0.03230  0.67831  1.0000
  H   H679      1.0  0.66127  0.00697  0.58617  1.0000
  C   C852      1.0  0.74241  0.98826  0.60421  1.0000
  C   C853      1.0  0.98166  0.30298  0.87875  1.0000
  C   C854      1.0  0.66654  0.08622  0.67556  1.0000
  H   H680      1.0  0.80717  0.13658  0.93129  1.0000
  H   H681      1.0  0.82574  0.15920  0.88585  1.0000
  H   H682      1.0  0.66417  0.06327  0.90176  1.0000
  H   H683      1.0  0.72890  0.03601  0.65478  1.0000
  C   C855      1.0  0.76757  0.07788  0.97283  1.0000
  C   C856      1.0  0.76318  0.17624  0.50700  1.0000
  C   C857      1.0  0.98075  0.14518  0.62722  1.0000
  C   C858      1.0  0.60885  0.04330  0.58825  1.0000
  H   H684      1.0  0.67256  0.11563  0.70927  1.0000
  H   H685      1.0  0.90923  0.18547  0.54617  1.0000
  H   H686      1.0  0.60056  0.02604  0.59994  1.0000
  H   H687      1.0  0.77334  0.00496  0.63908  1.0000
  C   C859      1.0  0.66728  0.07473  0.92175  1.0000
  H   H688      1.0  0.74646  0.22634  0.56938  1.0000
  H   H689      1.0  0.72053  0.16699  0.85821  1.0000
  H   H690      1.0  0.91907  0.23174  0.55620  1.0000
  C   C860      1.0  0.96498  0.24525  0.73320  1.0000
  H   H691      1.0  0.78278  0.17446  0.84922  1.0000
  C   C861      1.0  0.92593  0.15719  0.69828  1.0000
  C   C862      1.0  0.64825  0.98033  0.88737  1.0000
  H   H692      1.0  0.90257  0.14975  0.68816  1.0000
  C   C863      1.0  0.93401  0.20593  0.93427  1.0000
  S   S126      1.0  0.58055  0.00713  0.49530  1.0000
  H   H693      1.0  0.93263  0.17966  0.80898  1.0000
  H   H694      1.0  0.80363  0.10026  0.51713  1.0000
  H   H695      1.0  0.93878  0.16507  0.94283  1.0000
  S   S127      1.0  0.66539  0.05087  0.49343  1.0000
  H   H696      1.0  0.93546  0.24747  0.93015  1.0000
  H   H697      1.0  0.71418  0.09258  0.90690  1.0000
  H   H698      1.0  0.00413  0.17073  0.51068  1.0000
  H   H699      1.0  0.69819  0.99843  0.88699  1.0000
  C   C864      1.0  0.72352  0.02309  0.63639  1.0000
  H   H700      1.0  0.99250  0.13795  0.74208  1.0000
  C   C865      1.0  0.95368  0.22852  0.48644  1.0000
  H   H701      1.0  0.91090  0.20389  0.92088  1.0000
  Fe  Fe63      1.0  0.59248  0.98599  0.95695  1.0000
  C   C866      1.0  0.74873  0.00529  0.62774  1.0000
  C   C867      1.0  0.66601  0.24441  0.54756  1.0000
  C   C868      1.0  0.71072  0.98882  0.58955  1.0000
  C   C869      1.0  0.95299  0.24548  0.61564  1.0000
  C   C870      1.0  0.72650  0.10703  0.65051  1.0000
  C   C871      1.0  0.94776  0.23050  0.93958  1.0000
  H   H702      1.0  0.57090  0.03832  0.55388  1.0000
  C   C872      1.0  0.69539  0.09154  0.92468  1.0000
  H   H703      1.0  0.72577  0.13404  0.68695  1.0000
  C   C873      1.0  0.64766  0.07968  0.58220  1.0000
  H   H704      1.0  0.85440  0.09220  0.54836  1.0000
  H   H705      1.0  0.93921  0.21367  0.75623  1.0000
  C   C874      1.0  0.99325  0.21146  0.96965  1.0000
  C   C875      1.0  0.68341  0.98141  0.88098  1.0000
  C   C876      1.0  0.98581  0.17648  0.72459  1.0000
  H   H706      1.0  0.65460  0.27316  0.51461  1.0000
  C   C877      1.0  0.52066  0.00536  0.86757  1.0000
  C   C878      1.0  0.69198  0.02433  0.62114  1.0000
  C   C879      1.0  0.90571  0.25858  0.64729  1.0000
  Fe  Fe64      1.0  0.63861  0.01086  0.49233  1.0000
  C   C880      1.0  0.92027  0.25637  0.61899  1.0000
  C   C881      1.0  0.70966  0.26899  0.52085  1.0000
  H   H707      1.0  0.91847  0.19531  0.68085  1.0000
  C   C882      1.0  0.95665  0.23887  0.66914  1.0000
  C   C883      1.0  0.69172  0.23114  0.56309  1.0000
  C   C884      1.0  0.60997  0.99633  0.68662  1.0000
  P   P30       1.0  0.97851  0.22613  0.70150  1.0000
  H   H708      1.0  0.70116  0.14518  0.90420  1.0000
  P   P31       1.0  0.65966  0.04777  0.63170  1.0000
  H   H709      1.0  0.69476  0.10192  0.49928  1.0000
  S   S128      1.0  0.56497  0.00270  0.91563  1.0000
  C   C885      1.0  0.59190  0.05020  0.56203  1.0000
  Fe  Fe65      1.0  0.88917  0.29423  0.87979  1.0000
  C   C886      1.0  0.62857  0.03278  0.65630  1.0000
  C   C887      1.0  0.97708  0.23331  0.95730  1.0000
  H   H710      1.0  0.92605  0.16647  0.49787  1.0000
  H   H711      1.0  0.62246  0.05846  0.94320  1.0000
  C   C888      1.0  0.69975  0.10619  0.95078  1.0000
  H   H712      1.0  0.71261  0.19285  0.51110  1.0000
  P   P32       1.0  0.73839  0.12526  0.95598  1.0000
  H   H713      1.0  0.74980  0.11499  0.64073  1.0000
  C   C889      1.0  0.75274  0.13863  0.92092  1.0000
  C   C890      1.0  0.72848  0.14732  0.89998  1.0000
  C   C891      1.0  0.73932  0.15984  0.87399  1.0000
  C   C892      1.0  0.77439  0.16396  0.86883  1.0000
  C   C893      1.0  0.79865  0.15524  0.88944  1.0000
  C   C894      1.0  0.78794  0.14255  0.91535  1.0000
  C   C895      1.0  0.96438  0.22403  0.85773  1.0000
  S   S129      1.0  0.64846  0.98037  0.52659  1.0000
  H   H714      1.0  0.81477  0.26892  0.50726  1.0000
  C   C896      1.0  0.82325  0.25177  0.49561  1.0000
  C   C897      1.0  0.72813  0.17808  0.50048  1.0000
  C   C898      1.0  0.67490  0.26320  0.52642  1.0000
  H   H715      1.0  0.93927  0.12081  0.71850  1.0000
  C   C899      1.0  0.92377  0.24989  0.67226  1.0000
  C   C900      1.0  0.93939  0.27603  0.77980  1.0000
  C   C901      1.0  0.84273  0.20740  0.49641  1.0000
  C   C902      1.0  0.71018  0.08594  0.63704  1.0000
  C   C903      1.0  0.71293  0.11773  0.67651  1.0000
  C   C904      1.0  0.57797  0.00810  0.69095  1.0000
  C   C905      1.0  0.99908  0.22338  0.84948  1.0000
  H   H716      1.0  0.66979  0.09095  0.58886  1.0000
  C   C906      1.0  0.98592  0.19133  0.81169  1.0000
  C   C907      1.0  0.68001  0.07536  0.64936  1.0000
  H   H717      1.0  0.91311  0.09949  0.52820  1.0000
  C   C908      1.0  0.64367  0.07207  0.94504  1.0000
  C   C909      1.0  0.94060  0.20790  0.84352  1.0000
  C   C910      1.0  0.97108  0.23666  0.64057  1.0000
  C   C911      1.0  0.60281  0.07178  0.54583  1.0000
  H   H718      1.0  0.72583  0.18151  0.94693  1.0000
  C   C912      1.0  0.94968  0.18411  0.94668  1.0000
  H   H719      1.0  0.61494  0.97745  0.69622  1.0000
  H   H720      1.0  0.94859  0.25926  0.51897  1.0000
  H   H721      1.0  0.77486  0.18960  0.52265  1.0000
  H   H722      1.0  0.99349  0.17891  0.79347  1.0000
  H   H723      1.0  0.91669  0.24103  0.79653  1.0000
  C   C913      1.0  0.73527  0.25539  0.53641  1.0000
  H   H724      1.0  0.95587  0.23731  0.87493  1.0000
  H   H725      1.0  0.65962  0.99894  0.66597  1.0000
  C   C914      1.0  0.93521  0.18311  0.69406  1.0000
  H   H726      1.0  0.64356  0.07844  0.68581  1.0000
  S   S130      1.0  0.84491  0.29449  0.91242  1.0000
  C   C915      1.0  0.72531  0.17724  0.97047  1.0000
  C   C916      1.0  0.96552  0.19286  0.70693  1.0000
  C   C917      1.0  0.63524  0.00861  0.66942  1.0000
  C   C918      1.0  0.63049  0.08660  0.55603  1.0000
  H   H727      1.0  0.59058  0.07650  0.52486  1.0000
  H   H728      1.0  0.90589  0.26277  0.59967  1.0000
  H   H729      1.0  0.91372  0.20830  0.85005  1.0000
  C   C919      1.0  0.97924  0.18680  0.96425  1.0000
  C   C920      1.0  0.68554  0.00673  0.59800  1.0000
  S   S131      1.0  0.56490  0.98220  0.57476  1.0000
  H   H730      1.0  0.99099  0.16957  0.97330  1.0000
  C   C921      1.0  0.82899  0.10219  0.50739  1.0000
  H   H731      1.0  0.63573  0.99662  0.89801  1.0000
  H   H732      1.0  0.81042  0.15623  0.49845  1.0000
  H   H733      1.0  0.53705  0.00394  0.62855  1.0000
  C   C922      1.0  0.89086  0.10188  0.51386  1.0000
  C   C923      1.0  0.53523  0.98914  0.88944  1.0000
  C   C924      1.0  0.73027  0.15192  0.98113  1.0000
  H   H734      1.0  0.71811  0.21734  0.98211  1.0000
  S   S132      1.0  0.94343  0.29628  0.89905  1.0000
  C   C925      1.0  0.93138  0.18671  0.50230  1.0000
  H   H735      1.0  0.87956  0.23566  0.96397  1.0000
  H   H736      1.0  0.00884  0.18381  0.73503  1.0000
  H   H737      1.0  0.52736  0.02569  0.86731  1.0000
  C   C926      1.0  0.64804  0.08635  0.97115  1.0000
  C   C927      1.0  0.78328  0.15718  0.49335  1.0000
  H   H738      1.0  0.50952  0.01467  0.95876  1.0000
  H   H739      1.0  0.78842  0.06537  0.48725  1.0000
  H   H740      1.0  0.99075  0.19712  0.55459  1.0000
  C   C928      1.0  0.52429  0.98555  0.62522  1.0000
  H   H741      1.0  0.98354  0.28147  0.71484  1.0000
  S   S133      1.0  0.64637  0.46012  0.02435  1.0000
  H   H742      1.0  0.51861  0.54124  0.98502  1.0000
  Fe  Fe66      1.0  0.58948  0.46880  0.01908  1.0000
  S   S134      1.0  0.54212  0.46863  0.05038  1.0000
  H   H743      1.0  0.67867  0.62971  0.43662  1.0000
  H   H744      1.0  0.61374  0.36413  0.46896  1.0000
  C   C929      1.0  0.52534  0.42164  0.24737  1.0000
  C   C930      1.0  0.83769  0.45406  0.03415  1.0000
  H   H745      1.0  0.88072  0.32762  0.10203  1.0000
  S   S135      1.0  0.76155  0.34507  0.37405  1.0000
  C   C931      1.0  0.80091  0.49611  0.17864  1.0000
  C   C932      1.0  0.85373  0.47708  0.19716  1.0000
  C   C933      1.0  0.72149  0.39696  0.45073  1.0000
  C   C934      1.0  0.75117  0.38168  0.45469  1.0000
  C   C935      1.0  0.76371  0.36567  0.43158  1.0000
  C   C936      1.0  0.74652  0.36445  0.40430  1.0000
  C   C937      1.0  0.71643  0.37927  0.40060  1.0000
  C   C938      1.0  0.70419  0.39560  0.42350  1.0000
  C   C939      1.0  0.72489  0.52377  0.14026  1.0000
  H   H746      1.0  0.78710  0.35473  0.43455  1.0000
  H   H747      1.0  0.70286  0.37844  0.37963  1.0000
  H   H748      1.0  0.68172  0.40747  0.41997  1.0000
  S   S136      1.0  0.85241  0.32856  0.33643  1.0000
  H   H749      1.0  0.58945  0.57473  0.04711  1.0000
  C   C940      1.0  0.55234  0.40972  0.37921  1.0000
  C   C941      1.0  0.81633  0.50012  0.15072  1.0000
  C   C942      1.0  0.52805  0.46529  0.08819  1.0000
  P   P33       1.0  0.52849  0.38526  0.32818  1.0000
  C   C943      1.0  0.55066  0.45987  0.11161  1.0000
  C   C944      1.0  0.70664  0.56354  0.16408  1.0000
  H   H750      1.0  0.57772  0.45725  0.10694  1.0000
  C   C945      1.0  0.55497  0.56029  0.01390  1.0000
  S   S137      1.0  0.84009  0.62250  0.14056  1.0000
  C   C946      1.0  0.74404  0.38191  0.02621  1.0000
  C   C947      1.0  0.89546  0.47633  0.00715  1.0000
  S   S138      1.0  0.92794  0.62279  0.08999  1.0000
  S   S139      1.0  0.75063  0.60902  0.09898  1.0000
  S   S140      1.0  0.70744  0.41751  0.48031  1.0000
  C   C948      1.0  0.74470  0.62208  0.98995  1.0000
  Fe  Fe67      1.0  0.60187  0.47565  0.45493  1.0000
  S   S141      1.0  0.58180  0.48309  0.40725  1.0000
  H   H751      1.0  0.56957  0.42856  0.41914  1.0000
  S   S142      1.0  0.65891  0.48416  0.45991  1.0000
  C   C949      1.0  0.54263  0.47941  0.38664  1.0000
  C   C950      1.0  0.71521  0.54749  0.03028  1.0000
  C   C951      1.0  0.69518  0.55339  0.05526  1.0000
  C   C952      1.0  0.70676  0.57190  0.07613  1.0000
  C   C953      1.0  0.73833  0.58500  0.07237  1.0000
  C   C954      1.0  0.75852  0.57891  0.04755  1.0000
  C   C955      1.0  0.74701  0.56033  0.02667  1.0000
  H   H752      1.0  0.67087  0.54363  0.05856  1.0000
  H   H753      1.0  0.69114  0.57610  0.09537  1.0000
  H   H754      1.0  0.78286  0.58872  0.04430  1.0000
  C   C956      1.0  0.81961  0.48467  0.20176  1.0000
  H   H755      1.0  0.84909  0.37387  0.39862  1.0000
  C   C957      1.0  0.84308  0.62629  0.46523  1.0000
  C   C958      1.0  0.80876  0.63339  0.46044  1.0000
  C   C959      1.0  0.70860  0.56104  0.45989  1.0000
  C   C960      1.0  0.85538  0.47417  0.04834  1.0000
  C   C961      1.0  0.73975  0.57365  0.16067  1.0000
  C   C962      1.0  0.69921  0.53862  0.15386  1.0000
  C   C963      1.0  0.78037  0.46241  0.10436  1.0000
  H   H756      1.0  0.71707  0.37829  0.02134  1.0000
  C   C964      1.0  0.76850  0.32242  0.00068  1.0000
  H   H757      1.0  0.87285  0.50106  0.33660  1.0000
  H   H758      1.0  0.55604  0.45347  0.15894  1.0000
  H   H759      1.0  0.99855  0.61373  0.07392  1.0000
  C   C965      1.0  0.84608  0.54956  0.11320  1.0000
  C   C966      1.0  0.76407  0.44283  0.08800  1.0000
  C   C967      1.0  0.75827  0.53390  0.13651  1.0000
  H   H760      1.0  0.56922  0.46818  0.28516  1.0000
  H   H761      1.0  0.88568  0.63719  0.01620  1.0000
  H   H762      1.0  0.84829  0.54936  0.13722  1.0000
  C   C968      1.0  0.51174  0.33280  0.32094  1.0000
  C   C969      1.0  0.55637  0.44993  0.28085  1.0000
  H   H763      1.0  0.76284  0.55595  0.00752  1.0000
  H   H764      1.0  0.81227  0.51275  0.41492  1.0000
  H   H765      1.0  0.63504  0.36805  0.38607  1.0000
  C   C970      1.0  0.76826  0.63488  0.00826  1.0000
  C   C971      1.0  0.56649  0.56334  0.04317  1.0000
  C   C972      1.0  0.85054  0.49219  0.14619  1.0000
  C   C973      1.0  0.52073  0.53515  0.06045  1.0000
  H   H766      1.0  0.64687  0.59121  0.41912  1.0000
  C   C974      1.0  0.84093  0.55166  0.05124  1.0000
  H   H767      1.0  0.80178  0.43820  0.44286  1.0000
  C   C975      1.0  0.81881  0.53554  0.06751  1.0000
  C   C976      1.0  0.91809  0.63950  0.40554  1.0000
  C   C977      1.0  0.86819  0.56555  0.09686  1.0000
  H   H768      1.0  0.89567  0.47498  0.16588  1.0000
  C   C978      1.0  0.80097  0.32856  0.98931  1.0000
  H   H769      1.0  0.83609  0.39831  0.44485  1.0000
  C   C979      1.0  0.92438  0.36042  0.04203  1.0000
  C   C980      1.0  0.90811  0.32478  0.46662  1.0000
  C   C981      1.0  0.76377  0.39673  0.00651  1.0000
  H   H770      1.0  0.83838  0.55296  0.02729  1.0000
  H   H771      1.0  0.86821  0.46827  0.21513  1.0000
  H   H772      1.0  0.61206  0.32009  0.44676  1.0000
  H   H773      1.0  0.97843  0.36397  0.03154  1.0000
  C   C982      1.0  0.82255  0.40082  0.37022  1.0000
  C   C983      1.0  0.83463  0.39181  0.39758  1.0000
  C   C984      1.0  0.82732  0.40559  0.42358  1.0000
  C   C985      1.0  0.80766  0.42826  0.42231  1.0000
  C   C986      1.0  0.79578  0.43764  0.39481  1.0000
  C   C987      1.0  0.80350  0.42376  0.36876  1.0000
  P   P34       1.0  0.77228  0.46782  0.39234  1.0000
  C   C988      1.0  0.79535  0.50588  0.43234  1.0000
  C   C989      1.0  0.79293  0.48762  0.36434  1.0000
  C   C990      1.0  0.77366  0.50462  0.34654  1.0000
  C   C991      1.0  0.79006  0.52016  0.32529  1.0000
  C   C992      1.0  0.82577  0.51887  0.32167  1.0000
  C   C993      1.0  0.90164  0.31654  0.04352  1.0000
  Fe  Fe68      1.0  0.65592  0.49645  0.99749  1.0000
  H   H774      1.0  0.63230  0.56750  0.13067  1.0000
  C   C994      1.0  0.61185  0.37961  0.38411  1.0000
  H   H775      1.0  0.67350  0.53088  0.15644  1.0000
  C   C995      1.0  0.79552  0.51864  0.45983  1.0000
  C   C996      1.0  0.77299  0.48860  0.09857  1.0000
  C   C997      1.0  0.72751  0.46267  0.38285  1.0000
  C   C998      1.0  0.70327  0.48210  0.38909  1.0000
  C   C999      1.0  0.66856  0.47848  0.38207  1.0000
  C   C1000     1.0  0.65755  0.45534  0.36911  1.0000
  C   C1001     1.0  0.68148  0.43598  0.36257  1.0000
  C   C1002     1.0  0.71636  0.43962  0.36933  1.0000
  H   H776      1.0  0.82757  0.38973  0.35020  1.0000
  P   P35       1.0  0.79214  0.51428  0.12048  1.0000
  C   C1003     1.0  0.75916  0.37137  0.05168  1.0000
  S   S143      1.0  0.70281  0.52345  0.00376  1.0000
  H   H777      1.0  0.79458  0.43054  0.34732  1.0000
  H   H778      1.0  0.74602  0.50603  0.34897  1.0000
  H   H779      1.0  0.77504  0.53329  0.31168  1.0000
  H   H780      1.0  0.83843  0.53097  0.30524  1.0000
  C   C1004     1.0  0.89672  0.34338  0.04610  1.0000
  H   H781      1.0  0.66591  0.60806  0.13201  1.0000
  Fe  Fe69      1.0  0.79902  0.63389  0.10744  1.0000
  C   C1005     1.0  0.82102  0.53445  0.09872  1.0000
  C   C1006     1.0  0.76545  0.55896  0.14692  1.0000
  C   C1007     1.0  0.99828  0.62104  0.09647  1.0000
  H   H782      1.0  0.68674  0.57515  0.17443  1.0000
  H   H783      1.0  0.71106  0.50001  0.39967  1.0000
  H   H784      1.0  0.64995  0.49344  0.38728  1.0000
  H   H785      1.0  0.63038  0.45239  0.36455  1.0000
  H   H786      1.0  0.67291  0.41793  0.35279  1.0000
  H   H787      1.0  0.73418  0.42411  0.36458  1.0000
  C   C1008     1.0  0.63314  0.32556  0.46123  1.0000
  C   C1009     1.0  0.94320  0.32609  0.46009  1.0000
  C   C1010     1.0  0.57504  0.41366  0.40284  1.0000
  H   H788      1.0  0.98724  0.31665  0.02620  1.0000
  C   C1011     1.0  0.73337  0.47518  0.05965  1.0000
  H   H789      1.0  0.85557  0.32519  0.99490  1.0000
  H   H790      1.0  0.76945  0.42267  0.09275  1.0000
  C   C1012     1.0  0.58903  0.37550  0.36044  1.0000
  C   C1013     1.0  0.74908  0.49473  0.07631  1.0000
  H   H791      1.0  0.55046  0.60744  0.08466  1.0000
  C   C1014     1.0  0.53819  0.45764  0.14112  1.0000
  H   H792      1.0  0.77447  0.50175  0.18267  1.0000
  H   H793      1.0  0.00853  0.33418  0.40699  1.0000
  H   H794      1.0  0.74541  0.59326  0.16783  1.0000
  C   C1015     1.0  0.95699  0.35080  0.03487  1.0000
  H   H795      1.0  0.79060  0.56759  0.14410  1.0000
  H   H796      1.0  0.72804  0.43414  0.05277  1.0000
  H   H797      1.0  0.59497  0.36061  0.34436  1.0000
  H   H798      1.0  0.79975  0.52449  0.05551  1.0000
  H   H799      1.0  0.74237  0.51471  0.07203  1.0000
  C   C1016     1.0  0.77344  0.48457  0.42767  1.0000
  C   C1017     1.0  0.79412  0.37555  0.05739  1.0000
  C   C1018     1.0  0.86550  0.56675  0.06593  1.0000
  C   C1019     1.0  0.54287  0.48462  0.35583  1.0000
  C   C1020     1.0  0.71673  0.60773  0.46123  1.0000
  H   H800      1.0  0.73477  0.45993  0.44770  1.0000
  H   H801      1.0  0.56657  0.49080  0.34535  1.0000
  H   H802      1.0  0.61248  0.52458  0.06792  1.0000
  H   H803      1.0  0.86288  0.49486  0.12478  1.0000
  H   H804      1.0  0.80762  0.48169  0.22328  1.0000
  C   C1021     1.0  0.74071  0.44923  0.06553  1.0000
  C   C1022     1.0  0.60474  0.39861  0.40536  1.0000
  H   H805      1.0  0.88220  0.57971  0.05350  1.0000
  C   C1023     1.0  0.57541  0.60739  0.09545  1.0000
  H   H806      1.0  0.88708  0.57746  0.10824  1.0000
  H   H807      1.0  0.62218  0.40176  0.42380  1.0000
  H   H808      1.0  0.71858  0.50441  0.13289  1.0000
  C   C1024     1.0  0.86918  0.48083  0.16938  1.0000
  H   H809      1.0  0.86238  0.63090  0.44866  1.0000
  H   H810      1.0  0.79823  0.45693  0.12171  1.0000
  H   H811      1.0  0.89592  0.40332  0.99765  1.0000
  C   C1025     1.0  0.72684  0.58272  0.46990  1.0000
  H   H812      1.0  0.71524  0.48023  0.04229  1.0000
  P   P36       1.0  0.73883  0.63595  0.47560  1.0000
  C   C1026     1.0  0.56536  0.32362  0.28068  1.0000
  H   H813      1.0  0.84092  0.39364  0.04236  1.0000
  H   H814      1.0  0.54458  0.45923  0.23512  1.0000
  H   H815      1.0  0.71564  0.54188  0.46755  1.0000
  H   H816      1.0  0.51420  0.41798  0.22565  1.0000
  P   P37       1.0  0.56440  0.55454  0.10463  1.0000
  C   C1027     1.0  0.58860  0.58443  0.10775  1.0000
  C   C1028     1.0  0.59269  0.52771  0.11289  1.0000
  C   C1029     1.0  0.59494  0.51772  0.14192  1.0000
  C   C1030     1.0  0.61714  0.49711  0.14818  1.0000
  C   C1031     1.0  0.63809  0.48692  0.12577  1.0000
  C   C1032     1.0  0.63666  0.49722  0.09705  1.0000
  C   C1033     1.0  0.61376  0.51730  0.09050  1.0000
  H   H817      1.0  0.91765  0.48515  0.99653  1.0000
  C   C1034     1.0  0.51163  0.47157  0.39980  1.0000
  C   C1035     1.0  0.56060  0.34841  0.29249  1.0000
  H   H818      1.0  0.84635  0.48139  0.06956  1.0000
  C   C1036     1.0  0.62122  0.58488  0.12130  1.0000
  C   C1037     1.0  0.97781  0.31959  0.37073  1.0000
  H   H819      1.0  0.80592  0.36684  0.07680  1.0000
  H   H820      1.0  0.76485  0.38253  0.47562  1.0000
  C   C1038     1.0  0.84514  0.50204  0.33934  1.0000
  C   C1039     1.0  0.52664  0.54445  0.00784  1.0000
  C   C1040     1.0  0.55263  0.43178  0.30377  1.0000
  H   H821      1.0  0.74389  0.35950  0.06662  1.0000
  H   H822      1.0  0.81473  0.44628  0.04440  1.0000
  H   H823      1.0  0.78130  0.31420  0.46072  1.0000
  C   C1041     1.0  0.67991  0.56409  0.44152  1.0000
  H   H824      1.0  0.58616  0.32006  0.26511  1.0000
  H   H825      1.0  0.57933  0.52558  0.15971  1.0000
  H   H826      1.0  0.61785  0.48893  0.17038  1.0000
  H   H827      1.0  0.65511  0.47085  0.13054  1.0000
  H   H828      1.0  0.65291  0.48941  0.07968  1.0000
  C   C1042     1.0  0.84905  0.44467  0.00654  1.0000
  H   H829      1.0  0.75167  0.40413  0.98657  1.0000
  C   C1043     1.0  0.81384  0.39062  0.03784  1.0000
  C   C1044     1.0  0.64036  0.60786  0.12224  1.0000
  H   H830      1.0  0.89331  0.34243  0.46857  1.0000
  H   H831      1.0  0.57795  0.36385  0.28592  1.0000
  H   H832      1.0  0.56283  0.43633  0.32554  1.0000
  C   C1045     1.0  0.96672  0.62713  0.11007  1.0000
  H   H833      1.0  0.92516  0.61981  0.39990  1.0000
  C   C1046     1.0  0.82884  0.48651  0.36064  1.0000
  C   C1047     1.0  0.52149  0.40348  0.27019  1.0000
  H   H834      1.0  0.87154  0.35100  0.05149  1.0000
  C   C1048     1.0  0.53368  0.35322  0.31266  1.0000
  C   C1049     1.0  0.53501  0.40845  0.29861  1.0000
  H   H835      1.0  0.92058  0.38108  0.04442  1.0000
  H   H836      1.0  0.56881  0.56937  0.99571  1.0000
  S   S144      1.0  0.59959  0.50623  0.99452  1.0000
  H   H837      1.0  0.66514  0.54726  0.43473  1.0000
  C   C1050     1.0  0.83064  0.32093  0.00459  1.0000
  C   C1051     1.0  0.66955  0.58887  0.43289  1.0000
  C   C1052     1.0  0.88429  0.48529  0.03488  1.0000
  C   C1053     1.0  0.80156  0.64005  0.99797  1.0000
  H   H838      1.0  0.86535  0.32351  0.15504  1.0000
  C   C1054     1.0  0.96199  0.32414  0.03192  1.0000
  H   H839      1.0  0.52957  0.42176  0.37752  1.0000
  H   H840      1.0  0.89778  0.50106  0.04579  1.0000
  C   C1055     1.0  0.54908  0.55111  0.06680  1.0000
  C   C1056     1.0  0.75185  0.47630  0.45087  1.0000
  H   H841      1.0  0.76668  0.45479  0.99791  1.0000
  H   H842      1.0  0.95541  0.34472  0.45656  1.0000
  H   H843      1.0  0.52193  0.51284  0.12916  1.0000
  H   H844      1.0  0.84430  0.47375  0.37433  1.0000
  H   H845      1.0  0.74212  0.63818  0.41046  1.0000
  C   C1057     1.0  0.62710  0.63053  0.10980  1.0000
  P   P38       1.0  0.82455  0.42033  0.98697  1.0000
  C   C1058     1.0  0.68776  0.61063  0.44278  1.0000
  C   C1059     1.0  0.55897  0.39049  0.35794  1.0000
  C   C1060     1.0  0.54256  0.44493  0.25272  1.0000
  C   C1061     1.0  0.87775  0.45624  0.99288  1.0000
  H   H846      1.0  0.95555  0.64253  0.44042  1.0000
  C   C1062     1.0  0.79866  0.40156  0.01244  1.0000
  C   C1063     1.0  0.59458  0.63033  0.09652  1.0000
  H   H847      1.0  0.87860  0.64202  0.37190  1.0000
  S   S145      1.0  0.60577  0.43647  0.47721  1.0000
  S   S146      1.0  0.93843  0.32991  0.38673  1.0000
  C   C1064     1.0  0.51266  0.48221  0.33845  1.0000
  Fe  Fe70      1.0  0.80928  0.31904  0.36848  1.0000
  Fe  Fe71      1.0  0.87797  0.63947  0.10794  1.0000
  H   H848      1.0  0.81234  0.53511  0.46338  1.0000
  H   H849      1.0  0.71910  0.61767  0.99821  1.0000
  H   H850      1.0  0.51081  0.46755  0.42341  1.0000
  C   C1065     1.0  0.77403  0.51016  0.48283  1.0000
  Fe  Fe72      1.0  0.88802  0.31226  0.37115  1.0000
  C   C1066     1.0  0.63405  0.35034  0.47367  1.0000
  H   H851      1.0  0.74557  0.32788  0.98864  1.0000
  H   H852      1.0  0.51320  0.48672  0.31497  1.0000
  C   C1067     1.0  0.52817  0.55446  0.13013  1.0000
  H   H853      1.0  0.76085  0.64049  0.03065  1.0000
  C   C1068     1.0  0.96663  0.63654  0.13925  1.0000
  H   H854      1.0  0.52633  0.59612  0.13629  1.0000
  H   H855      1.0  0.94249  0.64129  0.14994  1.0000
  C   C1069     1.0  0.99781  0.63919  0.15491  1.0000
  C   C1070     1.0  0.78361  0.62816  0.48212  1.0000
  C   C1071     1.0  0.86675  0.31067  0.10929  1.0000
  C   C1072     1.0  0.51492  0.57766  0.14182  1.0000
  C   C1073     1.0  0.51236  0.53095  0.13798  1.0000
  C   C1074     1.0  0.75217  0.48901  0.47833  1.0000
  H   H856      1.0  0.82990  0.34099  0.47714  1.0000
  H   H857      1.0  0.72298  0.30940  0.43038  1.0000
  Fe  Fe73      1.0  0.66187  0.44588  0.48376  1.0000
  C   C1075     1.0  0.50966  0.53180  0.03109  1.0000
  C   C1076     1.0  0.00899  0.32471  0.38554  1.0000
  C   C1077     1.0  0.78378  0.31874  0.48411  1.0000
  S   S147      1.0  0.65271  0.46436  0.52865  1.0000
  C   C1078     1.0  0.81573  0.33987  0.52350  1.0000
  Fe  Fe74      1.0  0.59613  0.45810  0.52039  1.0000
  S   S148      1.0  0.56396  0.43984  0.55793  1.0000
  C   C1079     1.0  0.65599  0.38246  0.84032  1.0000
  H   H858      1.0  0.73535  0.48240  0.49608  1.0000
  H   H859      1.0  0.93368  0.54536  0.97112  1.0000
  C   C1080     1.0  0.90652  0.37389  0.96531  1.0000
  C   C1081     1.0  0.86038  0.36374  0.93122  1.0000
  S   S149      1.0  0.78450  0.35459  0.88428  1.0000
  C   C1082     1.0  0.61282  0.52148  0.69962  1.0000
  H   H860      1.0  0.77451  0.61098  0.52531  1.0000
  C   C1083     1.0  0.70078  0.38811  0.94730  1.0000
  C   C1084     1.0  0.71044  0.36189  0.94924  1.0000
  C   C1085     1.0  0.73583  0.35128  0.93024  1.0000
  C   C1086     1.0  0.75178  0.36673  0.90867  1.0000
  C   C1087     1.0  0.74155  0.39286  0.90625  1.0000
  C   C1088     1.0  0.71635  0.40352  0.92543  1.0000
  H   H861      1.0  0.59123  0.45497  0.82493  1.0000
  H   H862      1.0  0.74289  0.33109  0.93212  1.0000
  H   H863      1.0  0.75332  0.40497  0.88944  1.0000
  H   H864      1.0  0.70919  0.42368  0.92342  1.0000
  C   C1089     1.0  0.66739  0.36562  0.86283  1.0000
  H   H865      1.0  0.96313  0.58781  0.96632  1.0000
  H   H866      1.0  0.00623  0.60179  0.64695  1.0000
  H   H867      1.0  0.95111  0.62342  0.63346  1.0000
  C   C1090     1.0  0.53655  0.45444  0.58512  1.0000
  S   S150      1.0  0.86088  0.31874  0.84654  1.0000
  C   C1091     1.0  0.91598  0.60933  0.96136  1.0000
  C   C1092     1.0  0.64953  0.43724  0.85762  1.0000
  H   H868      1.0  0.70897  0.34628  0.51206  1.0000
  C   C1093     1.0  0.98099  0.31524  0.85098  1.0000
  H   H869      1.0  0.74454  0.31014  0.55131  1.0000
  H   H870      1.0  0.77421  0.52004  0.50411  1.0000
  H   H871      1.0  0.52985  0.52671  0.86749  1.0000
  C   C1094     1.0  0.53490  0.46186  0.87882  1.0000
  S   S151      1.0  0.79655  0.58562  0.59171  1.0000
  H   H872      1.0  0.72819  0.46558  0.84784  1.0000
  H   H873      1.0  0.89635  0.64191  0.85195  1.0000
  Fe  Fe75      1.0  0.59757  0.48238  0.95243  1.0000
  S   S152      1.0  0.56757  0.50010  0.91313  1.0000
  C   C1095     1.0  0.75925  0.31005  0.50478  1.0000
  S   S153      1.0  0.65507  0.47560  0.95322  1.0000
  C   C1096     1.0  0.54085  0.48828  0.88364  1.0000
  C   C1097     1.0  0.70098  0.55286  0.54215  1.0000
  C   C1098     1.0  0.72803  0.53667  0.55086  1.0000
  C   C1099     1.0  0.75680  0.54699  0.56617  1.0000
  C   C1100     1.0  0.75895  0.57358  0.57316  1.0000
  C   C1101     1.0  0.73145  0.58960  0.56507  1.0000
  C   C1102     1.0  0.70281  0.57928  0.54968  1.0000
  H   H874      1.0  0.72691  0.51624  0.54564  1.0000
  H   H875      1.0  0.77766  0.53429  0.57255  1.0000
  H   H876      1.0  0.73232  0.60998  0.57055  1.0000
  C   C1103     1.0  0.68415  0.44019  0.84906  1.0000
  H   H877      1.0  0.66855  0.42325  0.59248  1.0000
  H   H878      1.0  0.66346  0.39406  0.79440  1.0000
  H   H879      1.0  0.74178  0.48270  0.91090  1.0000
  H   H880      1.0  0.72791  0.33180  0.82424  1.0000
  H   H881      1.0  0.60146  0.39175  0.95471  1.0000
  C   C1104     1.0  0.87809  0.63924  0.89724  1.0000
  H   H882      1.0  0.55264  0.39194  0.85286  1.0000
  C   C1105     1.0  0.80438  0.44014  0.93141  1.0000
  H   H883      1.0  0.87899  0.60801  0.49516  1.0000
  S   S154      1.0  0.85562  0.63246  0.64133  1.0000
  C   C1106     1.0  0.67096  0.38077  0.81188  1.0000
  C   C1107     1.0  0.61147  0.39982  0.90847  1.0000
  H   H884      1.0  0.52078  0.49200  0.69822  1.0000
  C   C1108     1.0  0.70159  0.46341  0.85467  1.0000
  C   C1109     1.0  0.69282  0.34719  0.85680  1.0000
  C   C1110     1.0  0.59834  0.39943  0.87940  1.0000
  C   C1111     1.0  0.56144  0.44246  0.78771  1.0000
  C   C1112     1.0  0.77168  0.45469  0.97420  1.0000
  S   S155      1.0  0.66478  0.54162  0.52122  1.0000
  H   H885      1.0  0.60667  0.45571  0.87989  1.0000
  C   C1113     1.0  0.54106  0.55896  0.59714  1.0000
  H   H886      1.0  0.73142  0.48224  0.96520  1.0000
  H   H887      1.0  0.73959  0.58436  0.64457  1.0000
  C   C1114     1.0  0.97541  0.63167  0.62640  1.0000
  C   C1115     1.0  0.69650  0.36238  0.80601  1.0000
  H   H888      1.0  0.53241  0.42473  0.75243  1.0000
  C   C1116     1.0  0.68459  0.48388  0.86870  1.0000
  C   C1117     1.0  0.78756  0.62007  0.95079  1.0000
  C   C1118     1.0  0.55669  0.38480  0.92774  1.0000
  H   H889      1.0  0.90993  0.34504  0.93063  1.0000
  C   C1119     1.0  0.86334  0.58407  0.96314  1.0000
  C   C1120     1.0  0.78398  0.45564  0.91295  1.0000
  H   H890      1.0  0.69782  0.50202  0.87272  1.0000
  H   H891      1.0  0.69783  0.42475  0.83794  1.0000
  C   C1121     1.0  0.94143  0.63734  0.52633  1.0000
  C   C1122     1.0  0.79789  0.43915  0.96216  1.0000
  H   H892      1.0  0.63823  0.52995  0.70062  1.0000
  H   H893      1.0  0.95655  0.32011  0.84091  1.0000
  C   C1123     1.0  0.93526  0.58674  0.96528  1.0000
  C   C1124     1.0  0.56384  0.39207  0.87486  1.0000
  H   H894      1.0  0.69813  0.34968  0.96567  1.0000
  H   H895      1.0  0.54606  0.44774  0.89375  1.0000
  C   C1125     1.0  0.54938  0.55692  0.56698  1.0000
  Fe  Fe76      1.0  0.81473  0.31632  0.87747  1.0000
  H   H896      1.0  0.70492  0.46256  0.58771  1.0000
  C   C1126     1.0  0.75759  0.47068  0.92511  1.0000
  C   C1127     1.0  0.87984  0.60819  0.96029  1.0000
  C   C1128     1.0  0.63310  0.45761  0.87260  1.0000
  H   H897      1.0  0.83742  0.35151  0.53069  1.0000
  C   C1129     1.0  0.59837  0.41390  0.81650  1.0000
  C   C1130     1.0  0.81159  0.63253  0.96928  1.0000
  C   C1131     1.0  0.54659  0.50011  0.69872  1.0000
  C   C1132     1.0  0.89388  0.35953  0.94135  1.0000
  Fe  Fe77      1.0  0.64325  0.43988  0.97973  1.0000
  H   H898      1.0  0.83557  0.58256  0.96262  1.0000
  H   H899      1.0  0.81321  0.38459  0.93728  1.0000
  H   H900      1.0  0.60670  0.52236  0.74734  1.0000
  H   H901      1.0  0.78862  0.45592  0.88917  1.0000
  H   H902      1.0  0.70191  0.33449  0.87433  1.0000
  H   H903      1.0  0.68739  0.60026  0.61884  1.0000
  H   H904      1.0  0.53015  0.41878  0.60950  1.0000
  C   C1133     1.0  0.70752  0.34566  0.82851  1.0000
  C   C1134     1.0  0.00667  0.61944  0.63397  1.0000
  H   H905      1.0  0.68367  0.50460  0.60529  1.0000
  C   C1135     1.0  0.58480  0.43864  0.81094  1.0000
  H   H906      1.0  0.54787  0.50344  0.74644  1.0000
  H   H907      1.0  0.85056  0.35260  0.91264  1.0000
  C   C1136     1.0  0.79335  0.61540  0.50837  1.0000
  C   C1137     1.0  0.58802  0.39307  0.79843  1.0000
  H   H908      1.0  0.63715  0.49674  0.88871  1.0000
  H   H909      1.0  0.65737  0.36680  0.88522  1.0000
  H   H910      1.0  0.92100  0.62562  0.53581  1.0000
  S   S156      1.0  0.58865  0.49657  0.49762  1.0000
  C   C1138     1.0  0.65039  0.48094  0.87769  1.0000
  C   C1139     1.0  0.75163  0.47033  0.95573  1.0000
  C   C1140     1.0  0.55122  0.42168  0.76992  1.0000
  C   C1141     1.0  0.76336  0.31635  0.53498  1.0000
  C   C1142     1.0  0.83946  0.38223  0.94496  1.0000
  H   H911      1.0  0.73593  0.60488  0.94702  1.0000
  P   P39       1.0  0.85523  0.63770  0.95649  1.0000
  C   C1143     1.0  0.68788  0.33995  0.49813  1.0000
  Fe  Fe78      1.0  0.81563  0.62643  0.60499  1.0000
  H   H912      1.0  0.55187  0.49935  0.65135  1.0000
  H   H913      1.0  0.55654  0.38087  0.76144  1.0000
  C   C1144     1.0  0.85246  0.61358  0.49145  1.0000
  C   C1145     1.0  0.56466  0.39701  0.77516  1.0000
  C   C1146     1.0  0.75429  0.61478  0.96118  1.0000
  H   H914      1.0  0.88612  0.44997  0.97103  1.0000
  C   C1147     1.0  0.97486  0.63511  0.53739  1.0000
  H   H915      1.0  0.70826  0.36134  0.78417  1.0000
  C   C1148     1.0  0.82756  0.60810  0.51300  1.0000
  H   H916      1.0  0.79470  0.33578  0.56763  1.0000
  C   C1149     1.0  0.81166  0.33384  0.49341  1.0000
  C   C1150     1.0  0.59495  0.51725  0.72628  1.0000
  C   C1151     1.0  0.79165  0.33104  0.54430  1.0000
  H   H917      1.0  0.55026  0.46144  0.78411  1.0000
  H   H918      1.0  0.59737  0.37368  0.80274  1.0000
  C   C1152     1.0  0.56438  0.50427  0.67209  1.0000
  C   C1153     1.0  0.59765  0.51504  0.67220  1.0000
  H   H919      1.0  0.82511  0.42916  0.92151  1.0000
  P   P40       1.0  0.62042  0.51999  0.63736  1.0000
  C   C1154     1.0  0.59180  0.53377  0.60996  1.0000
  C   C1155     1.0  0.65697  0.54150  0.64189  1.0000
  C   C1156     1.0  0.68652  0.53288  0.65699  1.0000
  C   C1157     1.0  0.71607  0.54838  0.65815  1.0000
  C   C1158     1.0  0.71634  0.57266  0.64442  1.0000
  C   C1159     1.0  0.68690  0.58159  0.62985  1.0000
  C   C1160     1.0  0.65734  0.56612  0.62850  1.0000
  C   C1161     1.0  0.60007  0.53196  0.57964  1.0000
  C   C1162     1.0  0.57911  0.54374  0.55830  1.0000
  H   H920      1.0  0.80302  0.33862  0.96821  1.0000
  H   H921      1.0  0.83464  0.59832  0.53349  1.0000
  C   C1163     1.0  0.56244  0.54777  0.61861  1.0000
  C   C1164     1.0  0.63584  0.48924  0.62334  1.0000
  C   C1165     1.0  0.66806  0.48753  0.60911  1.0000
  C   C1166     1.0  0.54309  0.38497  0.89899  1.0000
  C   C1167     1.0  0.65975  0.44152  0.60152  1.0000
  C   C1168     1.0  0.62722  0.44320  0.61462  1.0000
  C   C1169     1.0  0.61532  0.46690  0.62555  1.0000
  C   C1170     1.0  0.68020  0.46368  0.59884  1.0000
  H   H922      1.0  0.63780  0.40580  0.91265  1.0000
  P   P41       1.0  0.62577  0.40819  0.84841  1.0000
  H   H923      1.0  0.68702  0.51381  0.66705  1.0000
  H   H924      1.0  0.73910  0.54141  0.66912  1.0000
  H   H925      1.0  0.66214  0.37678  0.50163  1.0000
  H   H926      1.0  0.86983  0.54296  0.96911  1.0000
  H   H927      1.0  0.63528  0.57325  0.61634  1.0000
  H   H928      1.0  0.62297  0.52177  0.57240  1.0000
  H   H929      1.0  0.58610  0.54267  0.53500  1.0000
  C   C1171     1.0  0.91866  0.56283  0.96807  1.0000
  H   H930      1.0  0.64118  0.64265  0.54604  1.0000
  H   H931      1.0  0.55590  0.55011  0.64186  1.0000
  C   C1172     1.0  0.52555  0.50622  0.86405  1.0000
  S   S157      1.0  0.58538  0.44544  0.97664  1.0000
  C   C1173     1.0  0.52729  0.48060  0.58401  1.0000
  H   H932      1.0  0.61062  0.42632  0.61541  1.0000
  H   H933      1.0  0.58973  0.46763  0.63489  1.0000
  C   C1174     1.0  0.59089  0.39205  0.93241  1.0000
  H   H934      1.0  0.54079  0.37913  0.94646  1.0000
  C   C1175     1.0  0.52320  0.43903  0.60835  1.0000
  H   H935      1.0  0.53727  0.49275  0.56638  1.0000
  C   C1176     1.0  0.88273  0.56150  0.96696  1.0000
  H   H936      1.0  0.66874  0.62883  0.49943  1.0000
  C   C1177     1.0  0.56185  0.50658  0.72583  1.0000
  Fe  Fe79      1.0  0.64608  0.50190  0.50437  1.0000
  H   H937      1.0  0.74803  0.57983  0.48513  1.0000
  H   H938      1.0  0.92926  0.62773  0.95941  1.0000
  H   H939      1.0  0.89753  0.62527  0.90342  1.0000
  H   H940      1.0  0.68177  0.59182  0.54355  1.0000
  S   S158      1.0  0.67052  0.40055  0.97375  1.0000
  C   C1178     1.0  0.68718  0.31496  0.48578  1.0000
  H   H941      1.0  0.98034  0.62153  0.55519  1.0000
  H   H942      1.0  0.79466  0.61417  0.92849  1.0000
  C   C1179     1.0  0.85234  0.39744  0.96830  1.0000
  C   C1180     1.0  0.66131  0.35746  0.49218  1.0000
  C   C1181     1.0  0.51459  0.45363  0.85448  1.0000
  H   H943      1.0  0.51649  0.37951  0.89542  1.0000
  C   C1182     1.0  0.68365  0.63982  0.51535  1.0000
  H   H944      1.0  0.53289  0.56557  0.55029  1.0000
  C   C1183     1.0  0.88580  0.39267  0.97889  1.0000
  H   H945      1.0  0.93245  0.37039  0.97321  1.0000
  H   H946      1.0  0.51799  0.56914  0.60392  1.0000
  H   H947      1.0  0.51075  0.43318  0.85076  1.0000
  Fe  Fe80      1.0  0.83351  0.68641  0.09586  1.0000
  S   S159      1.0  0.83819  0.72442  0.07070  1.0000
  Fe  Fe81      1.0  0.83572  0.66333  0.15877  1.0000
  S   S160      1.0  0.83863  0.66897  0.20938  1.0000
  S   S161      1.0  0.87643  0.67891  0.12832  1.0000
  S   S162      1.0  0.79207  0.67372  0.12790  1.0000
  C   C1184     1.0  0.76686  0.81285  0.47805  1.0000
  C   C1185     1.0  0.90011  0.69041  0.41981  1.0000
  C   C1186     1.0  0.99675  0.74354  0.32989  1.0000
  C   C1187     1.0  0.74089  0.79877  0.46381  1.0000
  H   H948      1.0  0.96186  0.78337  0.06185  1.0000
  C   C1188     1.0  0.95538  0.72592  0.36480  1.0000
  Fe  Fe82      1.0  0.83792  0.77917  0.33777  1.0000
  S   S163      1.0  0.84780  0.81902  0.35735  1.0000
  S   S164      1.0  0.84316  0.77316  0.28725  1.0000
  Fe  Fe83      1.0  0.82511  0.75618  0.39944  1.0000
  S   S165      1.0  0.83383  0.79356  0.42324  1.0000
  S   S166      1.0  0.81869  0.71816  0.42335  1.0000
  Fe  Fe84      1.0  0.80156  0.81178  0.38720  1.0000
  S   S167      1.0  0.75387  0.83815  0.39424  1.0000
  Fe  Fe85      1.0  0.87906  0.79775  0.39198  1.0000
  S   S168      1.0  0.93112  0.80539  0.41365  1.0000
  S   S169      1.0  0.78982  0.77326  0.36509  1.0000
  S   S170      1.0  0.87208  0.75901  0.37062  1.0000
  H   H949      1.0  0.78868  0.75610  0.46328  1.0000
  C   C1189     1.0  0.96960  0.80312  0.39267  1.0000
  C   C1190     1.0  0.96973  0.80714  0.36195  1.0000
  C   C1191     1.0  0.55270  0.86909  0.40508  1.0000
  H   H950      1.0  0.94583  0.81102  0.35041  1.0000
  C   C1192     1.0  0.71063  0.90015  0.45964  1.0000
  C   C1193     1.0  0.74534  0.89233  0.46127  1.0000
  C   C1194     1.0  0.75901  0.87347  0.44168  1.0000
  C   C1195     1.0  0.73812  0.86202  0.41995  1.0000
  C   C1196     1.0  0.70339  0.86994  0.41820  1.0000
  C   C1197     1.0  0.68970  0.88870  0.43794  1.0000
  C   C1198     1.0  0.88295  0.67736  0.39693  1.0000
  H   H951      1.0  0.78581  0.86800  0.44310  1.0000
  H   H952      1.0  0.68679  0.86123  0.40167  1.0000
  H   H953      1.0  0.66278  0.89392  0.43681  1.0000
  H   H954      1.0  0.91921  0.67475  0.18878  1.0000
  H   H955      1.0  0.91937  0.76422  0.26466  1.0000
  H   H956      1.0  0.97610  0.77207  0.11600  1.0000
  H   H957      1.0  0.71013  0.82902  0.29044  1.0000
  H   H958      1.0  0.94942  0.75178  0.21274  1.0000
  H   H959      1.0  0.92875  0.71589  0.29378  1.0000
  H   H960      1.0  0.90865  0.71236  0.08508  1.0000
  H   H961      1.0  0.79533  0.69112  0.03370  1.0000
  C   C1199     1.0  0.93754  0.78018  0.26343  1.0000
  C   C1200     1.0  0.82680  0.72539  0.03266  1.0000
  C   C1201     1.0  0.83933  0.74561  0.01478  1.0000
  C   C1202     1.0  0.95860  0.77658  0.03930  1.0000
  C   C1203     1.0  0.81401  0.71915  0.46227  1.0000
  H   H962      1.0  0.72011  0.84175  0.03503  1.0000
  H   H963      1.0  0.91985  0.75837  0.09558  1.0000
  H   H964      1.0  0.85657  0.75983  0.02418  1.0000
  H   H965      1.0  0.64227  0.64819  0.11021  1.0000
  C   C1204     1.0  0.73092  0.86104  0.03516  1.0000
  C   C1205     1.0  0.93520  0.71716  0.34110  1.0000
  C   C1206     1.0  0.84075  0.69823  0.23052  1.0000
  C   C1207     1.0  0.84268  0.72267  0.21711  1.0000
  C   C1208     1.0  0.84376  0.74528  0.23482  1.0000
  C   C1209     1.0  0.84263  0.74387  0.26613  1.0000
  C   C1210     1.0  0.84126  0.71942  0.27955  1.0000
  C   C1211     1.0  0.84043  0.69680  0.26185  1.0000
  H   H966      1.0  0.84300  0.72416  0.19311  1.0000
  H   H967      1.0  0.84489  0.76405  0.22416  1.0000
  H   H968      1.0  0.84055  0.71795  0.30355  1.0000
  H   H969      1.0  0.83905  0.67804  0.27250  1.0000
  C   C1212     1.0  0.82492  0.69795  0.47923  1.0000
  H   H970      1.0  0.95223  0.65712  0.23127  1.0000
  C   C1213     1.0  0.73706  0.67818  0.39834  1.0000
  H   H971      1.0  0.99746  0.64588  0.17771  1.0000
  C   C1214     1.0  0.73082  0.70852  0.43897  1.0000
  C   C1215     1.0  0.58664  0.86550  0.35996  1.0000
  C   C1216     1.0  0.84931  0.83690  0.48352  1.0000
  H   H972      1.0  0.95203  0.67915  0.09796  1.0000
  P   P42       1.0  0.79501  0.83829  0.02381  1.0000
  H   H973      1.0  0.63411  0.96137  0.31294  1.0000
  C   C1217     1.0  0.81826  0.83070  0.05761  1.0000
  C   C1218     1.0  0.82648  0.85019  0.07821  1.0000
  C   C1219     1.0  0.84374  0.84402  0.10462  1.0000
  C   C1220     1.0  0.85296  0.81838  0.11064  1.0000
  C   C1221     1.0  0.84525  0.79892  0.09010  1.0000
  C   C1222     1.0  0.82819  0.80508  0.06367  1.0000
  C   C1223     1.0  0.70884  0.88205  0.03965  1.0000
  C   C1224     1.0  0.94569  0.72165  0.31176  1.0000
  C   C1225     1.0  0.92713  0.77757  0.99293  1.0000
  C   C1226     1.0  0.66155  0.84839  0.28352  1.0000
  C   C1227     1.0  0.69292  0.84419  0.29797  1.0000
  C   C1228     1.0  0.72172  0.90731  0.03916  1.0000
  C   C1229     1.0  0.98304  0.82216  0.26331  1.0000
  C   C1230     1.0  0.51863  0.95926  0.08724  1.0000
  H   H974      1.0  0.91072  0.70779  0.34540  1.0000
  H   H975      1.0  0.58141  0.92824  0.38311  1.0000
  H   H976      1.0  0.91154  0.79774  0.03264  1.0000
  H   H977      1.0  0.54572  0.92349  0.32959  1.0000
  H   H978      1.0  0.98594  0.76967  0.16988  1.0000
  C   C1231     1.0  0.98896  0.70675  0.11470  1.0000
  H   H979      1.0  0.75381  0.79974  0.05628  1.0000
  H   H980      1.0  0.53410  0.94873  0.23928  1.0000
  H   H981      1.0  0.81932  0.87011  0.07418  1.0000
  H   H982      1.0  0.84954  0.85911  0.12061  1.0000
  H   H983      1.0  0.86568  0.81354  0.13136  1.0000
  H   H984      1.0  0.85179  0.77891  0.09482  1.0000
  H   H985      1.0  0.82213  0.78966  0.04830  1.0000
  S   S171      1.0  0.54782  0.96471  0.42131  1.0000
  C   C1232     1.0  0.00094  0.79825  0.40729  1.0000
  C   C1233     1.0  0.67500  0.95072  0.39073  1.0000
  C   C1234     1.0  0.67999  0.87902  0.33225  1.0000
  C   C1235     1.0  0.93934  0.74409  0.10093  1.0000
  P   P43       1.0  0.98877  0.74291  0.26833  1.0000
  C   C1236     1.0  0.95202  0.67781  0.22728  1.0000
  C   C1237     1.0  0.93290  0.71806  0.09504  1.0000
  H   H986      1.0  0.97652  0.70403  0.02713  1.0000
  C   C1238     1.0  0.70204  0.85944  0.32238  1.0000
  C   C1239     1.0  0.53630  0.93643  0.28511  1.0000
  H   H987      1.0  0.68630  0.94780  0.41257  1.0000
  H   H988      1.0  0.99707  0.67603  0.41784  1.0000
  C   C1240     1.0  0.56694  0.85393  0.38244  1.0000
  H   H989      1.0  0.73965  0.67450  0.37472  1.0000
  C   C1241     1.0  0.92631  0.67806  0.43591  1.0000
  C   C1242     1.0  0.73321  0.70358  0.40849  1.0000
  S   S172      1.0  0.53285  0.95470  0.04964  1.0000
  C   C1243     1.0  0.94753  0.82645  0.26199  1.0000
  H   H990      1.0  0.61473  0.87034  0.28244  1.0000
  C   C1244     1.0  0.86832  0.87635  0.45939  1.0000
  C   C1245     1.0  0.96933  0.69460  0.24661  1.0000
  C   C1246     1.0  0.97959  0.75217  0.99685  1.0000
  C   C1247     1.0  0.65674  0.93061  0.37719  1.0000
  C   C1248     1.0  0.55793  0.89585  0.40511  1.0000
  H   H991      1.0  0.93751  0.84602  0.26181  1.0000
  H   H992      1.0  0.91843  0.72193  0.17930  1.0000
  H   H993      1.0  0.50970  0.94152  0.28953  1.0000
  H   H994      1.0  0.93162  0.74701  0.44268  1.0000
  H   H995      1.0  0.59536  0.93836  0.22930  1.0000
  H   H996      1.0  0.98759  0.81065  0.19790  1.0000
  H   H997      1.0  0.89260  0.71010  0.42476  1.0000
  H   H998      1.0  0.73322  0.71954  0.39280  1.0000
  H   H999      1.0  0.63221  0.92059  0.26927  1.0000
  H   H1000     1.0  0.65443  0.83643  0.26469  1.0000
  C   C1249     1.0  0.85886  0.83649  0.99503  1.0000
  C   C1250     1.0  0.73254  0.68812  0.45940  1.0000
  C   C1251     1.0  0.75389  0.79449  0.03294  1.0000
  C   C1252     1.0  0.93312  0.71437  0.19787  1.0000
  C   C1253     1.0  0.98919  0.70813  0.44820  1.0000
  C   C1254     1.0  0.98611  0.73908  0.35917  1.0000
  C   C1255     1.0  0.80548  0.70655  0.01998  1.0000
  H   H1001     1.0  0.68778  0.89028  0.35134  1.0000
  C   C1256     1.0  0.64841  0.88347  0.31784  1.0000
  C   C1257     1.0  0.90663  0.70102  0.01374  1.0000
  C   C1258     1.0  0.91947  0.74411  0.46416  1.0000
  C   C1259     1.0  0.77897  0.89069  0.02983  1.0000
  C   C1260     1.0  0.76620  0.86520  0.03017  1.0000
  H   H1002     1.0  0.72522  0.74655  0.98717  1.0000
  C   C1261     1.0  0.98277  0.75976  0.02672  1.0000
  C   C1262     1.0  0.97690  0.73452  0.30595  1.0000
  H   H1003     1.0  0.80601  0.89444  0.02575  1.0000
  C   C1263     1.0  0.92482  0.80545  0.26216  1.0000
  H   H1004     1.0  0.89719  0.80867  0.26225  1.0000
  H   H1005     1.0  0.69481  0.77611  0.46930  1.0000
  C   C1264     1.0  0.64547  0.95802  0.33456  1.0000
  P   P44       1.0  0.95010  0.69512  0.46444  1.0000
  H   H1006     1.0  0.94668  0.72334  0.38748  1.0000
  C   C1265     1.0  0.57757  0.90745  0.38268  1.0000
  C   C1266     1.0  0.93045  0.78506  0.02264  1.0000
  H   H1007     1.0  0.72616  0.85594  0.33392  1.0000
  C   C1267     1.0  0.63926  0.86781  0.29350  1.0000
  H   H1008     1.0  0.88402  0.88597  0.44275  1.0000
  C   C1268     1.0  0.97098  0.75165  0.11301  1.0000
  H   H1009     1.0  0.70428  0.92355  0.04168  1.0000
  C   C1269     1.0  0.87006  0.84949  0.46257  1.0000
  C   C1270     1.0  0.97320  0.77564  0.26401  1.0000
  S   S173      1.0  0.63764  0.96381  0.03086  1.0000
  H   H1010     1.0  0.00110  0.74674  0.37747  1.0000
  H   H1011     1.0  0.58445  0.64791  0.08671  1.0000
  H   H1012     1.0  0.86252  0.68708  0.38483  1.0000
  C   C1271     1.0  0.55686  0.92614  0.30778  1.0000
  C   C1272     1.0  0.58463  0.93474  0.25120  1.0000
  C   C1273     1.0  0.93362  0.68772  0.20313  1.0000
  H   H1013     1.0  0.74084  0.79729  0.43972  1.0000
  C   C1274     1.0  0.73733  0.76448  0.99407  1.0000
  C   C1275     1.0  0.95053  0.73122  0.21708  1.0000
  C   C1276     1.0  0.96821  0.72147  0.24197  1.0000
  C   C1277     1.0  0.99584  0.73298  0.12043  1.0000
  H   H1014     1.0  0.98306  0.68668  0.26551  1.0000
  C   C1278     1.0  0.55010  0.94062  0.25680  1.0000
  H   H1015     1.0  0.65402  0.91238  0.38881  1.0000
  Fe  Fe86      1.0  0.58050  0.96680  0.02185  1.0000
  H   H1016     1.0  0.72494  0.75942  0.04041  1.0000
  C   C1279     1.0  0.95750  0.69939  0.10216  1.0000
  S   S174      1.0  0.83742  0.64773  0.07351  1.0000
  H   H1017     1.0  0.00058  0.83846  0.26458  1.0000
  C   C1280     1.0  0.89194  0.65197  0.38973  1.0000
  C   C1281     1.0  0.89873  0.76382  0.47570  1.0000
  H   H1018     1.0  0.78606  0.82223  0.46439  1.0000
  C   C1282     1.0  0.90347  0.67580  0.02472  1.0000
  H   H1019     1.0  0.88718  0.83838  0.44843  1.0000
  H   H1020     1.0  0.00447  0.75330  0.03993  1.0000
  H   H1021     1.0  0.89520  0.78152  0.46314  1.0000
  C   C1283     1.0  0.59145  0.91975  0.30223  1.0000
  C   C1284     1.0  0.82552  0.84696  0.99503  1.0000
  C   C1285     1.0  0.64208  0.93397  0.34890  1.0000
  P   P45       1.0  0.61866  0.90758  0.33180  1.0000
  H   H1022     1.0  0.00083  0.79497  0.43099  1.0000
  H   H1023     1.0  0.83835  0.68224  0.46850  1.0000
  C   C1286     1.0  0.75678  0.91164  0.03428  1.0000
  H   H1024     1.0  0.59762  0.85336  0.34280  1.0000
  H   H1025     1.0  0.91666  0.71633  0.02774  1.0000
  H   H1026     1.0  0.76653  0.93129  0.03340  1.0000
  C   C1287     1.0  0.79737  0.73979  0.47631  1.0000
  H   H1027     1.0  0.56301  0.83315  0.38247  1.0000
  C   C1288     1.0  0.77132  0.80991  0.01198  1.0000
  H   H1028     1.0  0.00090  0.81064  0.32263  1.0000
  C   C1289     1.0  0.99586  0.79687  0.26467  1.0000
  H   H1029     1.0  0.54702  0.90773  0.42265  1.0000
  H   H1030     1.0  0.91167  0.67127  0.04719  1.0000
  H   H1031     1.0  0.68142  0.87891  0.04246  1.0000
  C   C1290     1.0  0.88857  0.65651  0.00708  1.0000
  H   H1032     1.0  0.72907  0.72830  0.44682  1.0000
  C   C1291     1.0  0.00102  0.80691  0.34618  1.0000
  C   C1292     1.0  0.59231  0.89237  0.36005  1.0000
  H   H1033     1.0  0.86689  0.82353  0.01253  1.0000
  C   C1293     1.0  0.73732  0.77170  0.02403  1.0000
  H   H1034     1.0  0.53773  0.86014  0.42267  1.0000
  C   C1294     1.0  0.60533  0.92454  0.27385  1.0000
  C   C1295     1.0  0.73613  0.66248  0.44940  1.0000
  C   C1296     1.0  0.93518  0.65245  0.42855  1.0000
  H   H1035     1.0  0.76183  0.90116  0.47773  1.0000
  C   C1297     1.0  0.53844  0.97214  0.10864  1.0000
  H   H1036     1.0  0.84456  0.91153  0.47479  1.0000
  C   C1298     1.0  0.00218  0.69624  0.02520  1.0000
  H   H1037     1.0  0.73187  0.69263  0.48288  1.0000
  H   H1038     1.0  0.80222  0.64339  0.44006  1.0000
  C   C1299     1.0  0.00286  0.73181  0.45812  1.0000
  C   C1300     1.0  0.00665  0.69441  0.42579  1.0000
  C   C1301     1.0  0.84612  0.89071  0.47744  1.0000
  C   C1302     1.0  0.71489  0.78696  0.48047  1.0000
  H   H1039     1.0  0.99033  0.74271  0.47559  1.0000
  H   H1040     1.0  0.99312  0.66705  0.05871  1.0000
  H   H1041     1.0  0.81924  0.65007  0.01240  1.0000
  C   C1303     1.0  0.73852  0.65769  0.41868  1.0000
  C   C1304     1.0  0.79683  0.70794  0.98958  1.0000
  C   C1305     1.0  0.92386  0.72084  0.47997  1.0000
  H   H1042     1.0  0.51462  0.93908  0.37237  1.0000
  H   H1043     1.0  0.00564  0.70728  0.17707  1.0000
  C   C1306     1.0  0.67821  0.97460  0.37638  1.0000
  C   C1307     1.0  0.52598  0.97506  0.13806  1.0000
  H   H1044     1.0  0.00799  0.69197  0.11956  1.0000
  C   C1308     1.0  0.00892  0.78154  0.16891  1.0000
  C   C1309     1.0  0.89571  0.70674  0.98491  1.0000
  Fe  Fe87      1.0  0.81385  0.68410  0.59058  1.0000
  S   S175      1.0  0.79106  0.71623  0.56231  1.0000
  Fe  Fe88      1.0  0.82378  0.66701  0.65544  1.0000
  S   S176      1.0  0.80954  0.67411  0.70438  1.0000
  S   S177      1.0  0.85204  0.69485  0.62591  1.0000
  S   S178      1.0  0.78222  0.65903  0.62132  1.0000
  C   C1310     1.0  0.71288  0.78474  0.79119  1.0000
  C   C1311     1.0  0.69698  0.79996  0.76945  1.0000
  C   C1312     1.0  0.87760  0.64869  0.86802  1.0000
  C   C1313     1.0  0.59100  0.91581  0.82590  1.0000
  H   H1045     1.0  0.81002  0.69034  0.87379  1.0000
  C   C1314     1.0  0.97576  0.65441  0.60947  1.0000
  Fe  Fe89      1.0  0.84051  0.77600  0.84145  1.0000
  S   S179      1.0  0.85831  0.81562  0.85653  1.0000
  S   S180      1.0  0.84991  0.76730  0.79198  1.0000
  Fe  Fe90      1.0  0.82060  0.76131  0.90491  1.0000
  S   S181      1.0  0.83722  0.79936  0.92403  1.0000
  S   S182      1.0  0.79886  0.72894  0.93342  1.0000
  Fe  Fe91      1.0  0.81009  0.81725  0.88492  1.0000
  S   S183      1.0  0.77852  0.85525  0.88566  1.0000
  Fe  Fe92      1.0  0.88370  0.79465  0.89442  1.0000
  S   S184      1.0  0.93630  0.80229  0.91524  1.0000
  S   S185      1.0  0.79052  0.77908  0.86696  1.0000
  S   S186      1.0  0.86879  0.75515  0.87804  1.0000
  H   H1046     1.0  0.95025  0.73004  0.61018  1.0000
  C   C1315     1.0  0.97557  0.79745  0.89574  1.0000
  C   C1316     1.0  0.97607  0.79073  0.86559  1.0000
  C   C1317     1.0  0.82893  0.66616  0.90918  1.0000
  H   H1047     1.0  0.95206  0.78822  0.85373  1.0000
  C   C1318     1.0  0.70105  0.89384  0.95106  1.0000
  C   C1319     1.0  0.71029  0.86760  0.95442  1.0000
  C   C1320     1.0  0.73364  0.85551  0.93466  1.0000
  C   C1321     1.0  0.74862  0.86953  0.91132  1.0000
  C   C1322     1.0  0.73894  0.89566  0.90763  1.0000
  C   C1323     1.0  0.71538  0.90774  0.92730  1.0000
  H   H1048     1.0  0.65359  0.86691  0.89106  1.0000
  H   H1049     1.0  0.73977  0.83527  0.93730  1.0000
  H   H1050     1.0  0.74990  0.90672  0.88950  1.0000
  H   H1051     1.0  0.70850  0.92785  0.92423  1.0000
  H   H1052     1.0  0.81152  0.85552  0.58821  1.0000
  H   H1053     1.0  0.68469  0.84994  0.64247  1.0000
  H   H1054     1.0  0.60164  0.88983  0.96306  1.0000
  Fe  Fe93      1.0  0.64245  0.94652  0.98445  1.0000
  S   S187      1.0  0.59148  0.94388  0.49397  1.0000
  H   H1055     1.0  0.00778  0.78322  0.82710  1.0000
  H   H1056     1.0  0.69865  0.83576  0.87807  1.0000
  H   H1057     1.0  0.81024  0.67353  0.92499  1.0000
  H   H1058     1.0  0.73812  0.86539  0.51687  1.0000
  C   C1324     1.0  0.80094  0.71726  0.52394  1.0000
  C   C1325     1.0  0.79045  0.73866  0.50699  1.0000
  S   S188      1.0  0.58485  0.94677  0.97723  1.0000
  C   C1326     1.0  0.80948  0.72813  0.97168  1.0000
  H   H1059     1.0  0.52034  0.92855  0.76614  1.0000
  C   C1327     1.0  0.70771  0.85125  0.65605  1.0000
  H   H1060     1.0  0.77644  0.75422  0.51743  1.0000
  C   C1328     1.0  0.81861  0.69705  0.50997  1.0000
  H   H1061     1.0  0.76367  0.89588  0.68376  1.0000
  C   C1329     1.0  0.77049  0.80278  0.98188  1.0000
  C   C1330     1.0  0.82203  0.69982  0.72862  1.0000
  C   C1331     1.0  0.84278  0.72041  0.71911  1.0000
  C   C1332     1.0  0.85157  0.74050  0.73903  1.0000
  C   C1333     1.0  0.83976  0.74040  0.76867  1.0000
  C   C1334     1.0  0.81911  0.71980  0.77825  1.0000
  C   C1335     1.0  0.81031  0.69968  0.75832  1.0000
  H   H1062     1.0  0.85197  0.72087  0.69639  1.0000
  H   H1063     1.0  0.86758  0.75628  0.73140  1.0000
  H   H1064     1.0  0.80955  0.71950  0.80086  1.0000
  H   H1065     1.0  0.79414  0.68393  0.76591  1.0000
  H   H1066     1.0  0.71125  0.89276  0.65232  1.0000
  C   C1336     1.0  0.81737  0.79040  0.56183  1.0000
  H   H1067     1.0  0.63563  0.90436  0.91987  1.0000
  C   C1337     1.0  0.75223  0.87713  0.67924  1.0000
  C   C1338     1.0  0.82644  0.85110  0.50136  1.0000
  H   H1068     1.0  0.86526  0.77543  0.51151  1.0000
  H   H1069     1.0  0.69900  0.86337  0.78801  1.0000
  C   C1339     1.0  0.73690  0.65997  0.53125  1.0000
  H   H1070     1.0  0.98523  0.73137  0.87233  1.0000
  C   C1340     1.0  0.68825  0.86384  0.81025  1.0000
  C   C1341     1.0  0.60892  0.89894  0.91673  1.0000
  H   H1071     1.0  0.69410  0.78064  0.52429  1.0000
  H   H1072     1.0  0.84085  0.76249  0.97095  1.0000
  H   H1073     1.0  0.75380  0.77448  0.94976  1.0000
  H   H1074     1.0  0.93885  0.67091  0.92459  1.0000
  H   H1075     1.0  0.53982  0.87899  0.95731  1.0000
  H   H1076     1.0  0.94210  0.69077  0.77924  1.0000
  C   C1342     1.0  0.53291  0.97045  0.60015  1.0000
  C   C1343     1.0  0.98005  0.75976  0.76880  1.0000
  C   C1344     1.0  0.87299  0.78448  0.58531  1.0000
  Fe  Fe94      1.0  0.64859  0.95157  0.48847  1.0000
  C   C1345     1.0  0.90728  0.71786  0.50762  1.0000
  S   S189      1.0  0.93745  0.67018  0.59812  1.0000
  H   H1077     1.0  0.73526  0.67926  0.57365  1.0000
  C   C1346     1.0  0.70119  0.84724  0.83211  1.0000
  C   C1347     1.0  0.68646  0.66177  0.56292  1.0000
  H   H1078     1.0  0.89435  0.79727  0.68028  1.0000
  H   H1079     1.0  0.78743  0.77114  0.75518  1.0000
  H   H1080     1.0  0.67165  0.80796  0.77361  1.0000
  C   C1348     1.0  0.85379  0.64802  0.91808  1.0000
  H   H1081     1.0  0.85058  0.81603  0.48536  1.0000
  H   H1082     1.0  0.99026  0.77918  0.76687  1.0000
  C   C1349     1.0  0.57774  0.94085  0.82158  1.0000
  H   H1083     1.0  0.69916  0.85648  0.97243  1.0000
  H   H1084     1.0  0.90576  0.78451  0.97959  1.0000
  C   C1350     1.0  0.72089  0.66805  0.55751  1.0000
  H   H1085     1.0  0.60229  0.95730  0.88684  1.0000
  C   C1351     1.0  0.64927  0.88301  0.84652  1.0000
  H   H1086     1.0  0.70003  0.78100  0.81219  1.0000
  H   H1087     1.0  0.90967  0.70035  0.52055  1.0000
  C   C1352     1.0  0.55483  0.88464  0.93803  1.0000
  C   C1353     1.0  0.88364  0.80855  0.57449  1.0000
  H   H1088     1.0  0.65380  0.89520  0.80055  1.0000
  C   C1354     1.0  0.68792  0.84817  0.86095  1.0000
  H   H1089     1.0  0.53713  0.95005  0.90593  1.0000
  H   H1090     1.0  0.72999  0.91120  0.59598  1.0000
  C   C1355     1.0  0.78891  0.86462  0.57886  1.0000
  C   C1356     1.0  0.74766  0.87013  0.53889  1.0000
  C   C1357     1.0  0.82876  0.67577  0.88011  1.0000
  C   C1358     1.0  0.87498  0.80315  0.69624  1.0000
  C   C1359     1.0  0.88496  0.81357  0.72361  1.0000
  C   C1360     1.0  0.86000  0.82083  0.74437  1.0000
  C   C1361     1.0  0.82506  0.81747  0.73795  1.0000
  C   C1362     1.0  0.81479  0.80631  0.71085  1.0000
  C   C1363     1.0  0.84003  0.79955  0.68982  1.0000
  P   P46       1.0  0.76959  0.80155  0.70277  1.0000
  C   C1364     1.0  0.76580  0.77424  0.67774  1.0000
  C   C1365     1.0  0.74670  0.79465  0.73701  1.0000
  C   C1366     1.0  0.71451  0.78955  0.51141  1.0000
  C   C1367     1.0  0.71378  0.80492  0.74243  1.0000
  C   C1368     1.0  0.76332  0.74889  0.68892  1.0000
  C   C1369     1.0  0.76116  0.72785  0.66945  1.0000
  C   C1370     1.0  0.76174  0.73186  0.63874  1.0000
  C   C1371     1.0  0.76471  0.75693  0.62738  1.0000
  C   C1372     1.0  0.76702  0.77806  0.64675  1.0000
  C   C1373     1.0  0.75191  0.83041  0.68594  1.0000
  C   C1374     1.0  0.72209  0.82885  0.66833  1.0000
  C   C1375     1.0  0.76682  0.85474  0.69139  1.0000
  C   C1376     1.0  0.88656  0.73762  0.51902  1.0000
  H   H1091     1.0  0.91201  0.81567  0.72900  1.0000
  H   H1092     1.0  0.86769  0.82830  0.76593  1.0000
  H   H1093     1.0  0.80623  0.82298  0.75457  1.0000
  H   H1094     1.0  0.83295  0.79102  0.66872  1.0000
  H   H1095     1.0  0.69367  0.92229  0.84955  1.0000
  H   H1096     1.0  0.76359  0.74507  0.71259  1.0000
  H   H1097     1.0  0.75949  0.70832  0.67823  1.0000
  H   H1098     1.0  0.76033  0.71550  0.62370  1.0000
  H   H1099     1.0  0.76555  0.75978  0.60351  1.0000
  H   H1100     1.0  0.77020  0.79726  0.63749  1.0000
  H   H1101     1.0  0.70970  0.81034  0.66438  1.0000
  H   H1102     1.0  0.78945  0.85654  0.70530  1.0000
  H   H1103     1.0  0.78953  0.87084  0.97041  1.0000
  C   C1377     1.0  0.96046  0.69982  0.89552  1.0000
  C   C1378     1.0  0.87145  0.85818  0.94842  1.0000
  C   C1379     1.0  0.52627  0.96285  0.88935  1.0000
  H   H1104     1.0  0.94677  0.69305  0.87601  1.0000
  H   H1105     1.0  0.58558  0.95688  0.83543  1.0000
  C   C1380     1.0  0.73083  0.88928  0.55533  1.0000
  H   H1106     1.0  0.90735  0.72925  0.79278  1.0000
  C   C1381     1.0  0.53942  0.88609  0.91001  1.0000
  C   C1382     1.0  0.85305  0.66704  0.85949  1.0000
  C   C1383     1.0  0.74294  0.89613  0.58351  1.0000
  P   P47       1.0  0.79956  0.83431  0.52804  1.0000
  C   C1384     1.0  0.97302  0.69660  0.94824  1.0000
  C   C1385     1.0  0.64495  0.93711  0.86623  1.0000
  H   H1107     1.0  0.83174  0.75671  0.58737  1.0000
  H   H1108     1.0  0.79216  0.78267  0.55704  1.0000
  H   H1109     1.0  0.89042  0.77264  0.59833  1.0000
  C   C1386     1.0  0.95191  0.76158  0.97991  1.0000
  C   C1387     1.0  0.55374  0.90011  0.78623  1.0000
  C   C1388     1.0  0.98213  0.72137  0.89341  1.0000
  C   C1389     1.0  0.76220  0.77924  0.75891  1.0000
  H   H1110     1.0  0.70866  0.89908  0.54585  1.0000
  H   H1111     1.0  0.67428  0.66784  0.58345  1.0000
  C   C1390     1.0  0.97508  0.72662  0.56757  1.0000
  H   H1112     1.0  0.88890  0.86192  0.93004  1.0000
  H   H1113     1.0  0.78145  0.88919  0.61707  1.0000
  H   H1114     1.0  0.80837  0.88978  0.51209  1.0000
  C   C1391     1.0  0.83985  0.77550  0.57910  1.0000
  H   H1115     1.0  0.90941  0.81550  0.57920  1.0000
  C   C1392     1.0  0.72269  0.87539  0.66158  1.0000
  H   H1116     1.0  0.86993  0.84225  0.54926  1.0000
  C   C1393     1.0  0.86117  0.82361  0.55741  1.0000
  H   H1117     1.0  0.99642  0.71315  0.70593  1.0000
  C   C1394     1.0  0.77191  0.88375  0.59531  1.0000
  H   H1118     1.0  0.87314  0.73481  0.53994  1.0000
  C   C1395     1.0  0.93313  0.73167  0.78392  1.0000
  C   C1396     1.0  0.82786  0.81461  0.55073  1.0000
  H   H1119     1.0  0.93147  0.77319  0.78655  1.0000
  H   H1120     1.0  0.82692  0.68048  0.52260  1.0000
  H   H1121     1.0  0.70100  0.81681  0.72603  1.0000
  C   C1397     1.0  0.76707  0.81523  0.50920  1.0000
  H   H1122     1.0  0.82982  0.88035  0.92957  1.0000
  C   C1398     1.0  0.88025  0.68769  0.96743  1.0000
  C   C1399     1.0  0.75354  0.78020  0.97298  1.0000
  H   H1123     1.0  0.54628  0.89437  0.86380  1.0000
  Fe  Fe95      1.0  0.88182  0.66019  0.60979  1.0000
  H   H1124     1.0  0.94940  0.75693  0.95651  1.0000
  H   H1125     1.0  0.87071  0.69320  0.94574  1.0000
  C   C1400     1.0  0.88181  0.84223  0.97188  1.0000
  C   C1401     1.0  0.58964  0.89080  0.94130  1.0000
  H   H1126     1.0  0.58760  0.87583  0.81156  1.0000
  C   C1402     1.0  0.74551  0.77438  0.78589  1.0000
  H   H1127     1.0  0.85284  0.67460  0.83696  1.0000
  C   C1403     1.0  0.96022  0.67169  0.49298  1.0000
  H   H1128     1.0  0.95434  0.71524  0.55811  1.0000
  C   C1404     1.0  0.98613  0.71316  0.76515  1.0000
  C   C1405     1.0  0.94678  0.75650  0.78025  1.0000
  H   H1129     1.0  0.54382  0.88429  0.77291  1.0000
  H   H1130     1.0  0.73916  0.80616  0.54963  1.0000
  C   C1406     1.0  0.62927  0.95806  0.88075  1.0000
  H   H1131     1.0  0.75813  0.76266  0.80269  1.0000
  C   C1407     1.0  0.55891  0.89345  0.88520  1.0000
  P   P48       1.0  0.61986  0.90880  0.85652  1.0000
  H   H1132     1.0  0.54172  0.96455  0.79733  1.0000
  H   H1133     1.0  0.70582  0.97567  0.57124  1.0000
  C   C1408     1.0  0.54058  0.92504  0.78228  1.0000
  C   C1409     1.0  0.66220  0.86601  0.86823  1.0000
  C   C1410     1.0  0.77693  0.85775  0.55047  1.0000
  H   H1134     1.0  0.78330  0.81438  0.96521  1.0000
  C   C1411     1.0  0.68040  0.93834  0.85984  1.0000
  C   C1412     1.0  0.87644  0.66238  0.97838  1.0000
  H   H1135     1.0  0.72217  0.83413  0.82704  1.0000
  C   C1413     1.0  0.59393  0.89989  0.88838  1.0000
  C   C1414     1.0  0.95603  0.68737  0.92289  1.0000
  C   C1415     1.0  0.74028  0.80385  0.52571  1.0000
  S   S190      1.0  0.84506  0.65129  0.57241  1.0000
  C   C1416     1.0  0.66249  0.88172  0.81741  1.0000
  C   C1417     1.0  0.69952  0.96035  0.86738  1.0000
  C   C1418     1.0  0.97280  0.73498  0.59705  1.0000
  C   C1419     1.0  0.95277  0.71001  0.77636  1.0000
  H   H1136     1.0  0.99832  0.75506  0.63276  1.0000
  C   C1420     1.0  0.99463  0.71837  0.94633  1.0000
  C   C1421     1.0  0.83824  0.86855  0.94817  1.0000
  H   H1137     1.0  0.76358  0.66506  0.52750  1.0000
  H   H1138     1.0  0.72694  0.96096  0.86295  1.0000
  H   H1139     1.0  0.00695  0.80591  0.93410  1.0000
  C   C1422     1.0  0.57873  0.89546  0.80801  1.0000
  H   H1140     1.0  0.51233  0.88158  0.90750  1.0000
  C   C1423     1.0  0.55272  0.94538  0.79983  1.0000
  C   C1424     1.0  0.82541  0.87819  0.49851  1.0000
  H   H1141     1.0  0.96849  0.68717  0.96940  1.0000
  H   H1142     1.0  0.78026  0.69336  0.97991  1.0000
  H   H1143     1.0  0.00126  0.69616  0.75980  1.0000
  C   C1425     1.0  0.00476  0.73165  0.55093  1.0000
  C   C1426     1.0  0.88209  0.76050  0.50299  1.0000
  C   C1427     1.0  0.99984  0.73806  0.76076  1.0000
  H   H1144     1.0  0.90800  0.65701  0.49579  1.0000
  Fe  Fe96      1.0  0.59064  0.97551  0.52890  1.0000
  S   S191      1.0  0.67130  0.90787  0.97699  1.0000
  H   H1145     1.0  0.89767  0.72629  0.97643  1.0000
  C   C1428     1.0  0.00771  0.78784  0.85057  1.0000
  C   C1429     1.0  0.93417  0.65531  0.50394  1.0000
  H   H1146     1.0  0.00479  0.69608  0.65541  1.0000
  C   C1430     1.0  0.00706  0.80069  0.91080  1.0000
  C   C1431     1.0  0.81537  0.86302  0.97137  1.0000
  C   C1432     1.0  0.99381  0.66939  0.50427  1.0000
  C   C1433     1.0  0.99912  0.73061  0.91868  1.0000
  C   C1434     1.0  0.51586  0.94682  0.59608  1.0000
  H   H1147     1.0  0.52206  0.93495  0.57700  1.0000
  C   C1435     1.0  0.83065  0.74703  0.98447  1.0000
  H   H1148     1.0  0.90736  0.83379  0.97150  1.0000
  C   C1436     1.0  0.00100  0.65104  0.52632  1.0000
  C   C1437     1.0  0.66784  0.64768  0.54183  1.0000
  C   C1438     1.0  0.99997  0.74887  0.60977  1.0000
  H   H1149     1.0  0.00642  0.72451  0.52833  1.0000
  H   H1150     1.0  0.00817  0.68210  0.58696  1.0000
  C   C1439     1.0  0.00757  0.66476  0.60033  1.0000
  S   S192      1.0  0.69462  0.92308  0.48633  1.0000
  C   C1440     1.0  0.71843  0.64571  0.50997  1.0000
  H   H1151     1.0  0.76212  0.97476  0.59717  1.0000
  H   H1152     1.0  0.00177  0.81412  0.48486  1.0000
