data_image0
_chemical_formula_structural       FeSC2HSFeS2FeS2FeCFeHS2CFeS2C6H4C2FeH4CH2C2H4C2H3CH2C4H4C6PC3H3CHC7HCH6CHC3H5C4FeC3PCHC2H3C11H2C2H2CH2CH10C2HCHCHCHC3SCHC2H2C2SHCHPHC2H2CH4CHC2HCHCSH2C6PC13SH2CSH2C3HSHCHCH6C6HC3FeSFeS2C2S2HSFeS2HCH2CHC6H7CHCHCFeHCHC3HPC4FeHC3FeH3CH2CH2CH2CH2C2H2C2HC5HC2HCHCHCHC2HC2HC3H3CFeH2C6PC7H3C3H2C2HCH9SHCH4C4H2C2H3CHPC7HC9HC2H2C2SH3CH2FeHCPCHC2S2CS2FeHSFeS2FeHFeHS2HFeS2C6H4C3HCH3CHCH3C4H4C7H3CH2C2HC2H2SH3C2HCH2CFeCS2HC3HC3H2C2HCHCH2C3H3PH3C8H3CHC2H4CPHCH2C2H3CPCHC2HC2HC3HC5H5CSC2HCHC3HCH3C2HC2HC8H2CHC2H2CH2FeHCFeSFeHSCHS2FeSFeS2H2CHCHC6H5CH2C2FeCHC7PC8HCHC7HCH8CH4CH2C2FeC6PCHC7HC6H2C2HCSH2C2SH2C2H5CH3SC2HC2H2CHCHCHPCSHC5H2C4HC2H2CHC2HC3PHC3HPCHCH2C2H2CHSHC4H3FeC3H3CHCHCHCH2CH3CH2C3H2C3H4CHC4HCH2C2FeHCSHC5FeC2FeSHFeS3HFeCFe2H2FeSCSCSCHFeS2FeSHFeSFeHS2C8H6C2H2CH3C2HC6H5C3HC6HCH2C5HC4H3CSCH2CH2C3H3C2H2C2HC2SCHSH3CHCSCHC2HCH2PC2HPC2HCH2C2HCHSC3HC5HCHCH3CHC5HCSC3SH2C8HC4H2SHCHCHCH2C2H4C2PHCH2SHCHSHC2HCH2FeCHC4FeSCHC2HFeSHFeS2FeS2FeSFeS3CHC3H2CHCSC3H4C6H4C2HCH2C7H4C2PCH6CH2SCHCH3C2HCH2C3H2CH2C3H2CH2C6HC3HCHCHCHCH3CHC2HCSHC2HC2HC3H4CH2SC6PC5HC6H3CH2CH3CHPCH3CH4CHCH3C2HC6SC7H2CH2CHCHC2HSC2SC2HC3HC6HCHC2PCH4C5H4CPH3C3H3CH4CHCFe2PHCHC3H2FeC2FeHPFeS2CSFeSCFeHCFeS4C3FeS2FeSCFeSFeHS2CSC6H5SC2H4C4HC6H4C4H3C2HC2SPHC2SC6H3C2HCH2CHCH2CHCHCHCH2CH3CH2C6PC13HCH2CHCH10CH2CH2C2HC2SH3CHCH4CSCHC2PFeC4H5CH2C3H3CFeC5H2C2SC2HCHCH3SC2HC3SC2HSC2H6C2SHCH3CHCFeSH4CFeSCFeS2FeS2FeSFeS3CH3CPH2C6SH3C6H6C2H3C6H4C3H4CHCHC4HC6PC2H3CHC4HC3H5C2PCH6CHC3H3CH2CHC5H3C9HCH2CHC5HC3HC3HC5H3C3HC2HC2H2PCHC2HC2H2C4HCHCHCHC3H2FeCS2HSC3H4C3H2CH3C2H2CHC2HC2SCFeC2HCH8CSCHC2H2CSCHCHCHCH2CS2CHCFeSCHS3FeS2FeS2FeCFeCS2C4H3C6H2C2HC2H3C5H2C6H4C13PC18HCH18C4H2CH3SCHC4HCH2C7HPC3FeC2HC5HCHCH3CHC2H2CH2C5H2C3HC3HC3H2CFeH3SHCHPC2HCH3C2HSFeCH2C4HCHCHCSC2H6SCHCH3CH6CHCSHCHC2SC4HCH7CHCHCPCHSHCHFeSCFeHSCSH2S2FeSH8CHC6H5CHCHFeC4H7CH2C5PHC6H2C6H8C2H5C8H3CHSCHCH2C3H2CH4PHC2H3C3HCHC9PC2H2SH3SCHCHCH2CSHC2HCPSHCFe2SH2SCSFeS2FeHSFeCFeCS2HC3H4CSCHCH2CH2C2H2C5H2C7H5CH2SHC7PC12H3FeCH14CHCHC2HCH3SHC8H5C7HC3H2C2PC2H2CHC2SC2H2C5HC2H4C3HC2PCSH2C8HC2H2C3H2C4HCH2C2HFeCHCHC2SH2C3H2SC2HC4FeC2H2CHCH2CH2C3H4SHC2H5C3HPCSH2CHSC3FeSCFeCSFeSHCS2CSH2SHC2HCH2C6H5C2HCH3C2H4C5HCHC3H2C3HC2HCHC2FeHC2PCH2C3H2C2HC6HCHPHC6HCH4CHCH5C2H5C2HC3H2CH3C2HC2H2PC5H4C2H2CH2CHC2H2CHCHCH
_chemical_formula_sum              "Fe96 S192 C1440 H1152 P48"
_cell_length_a       63.4049
_cell_length_b       49.7371
_cell_length_c       31.6843
_cell_angle_alpha    89.8736
_cell_angle_beta     89.7884
_cell_angle_gamma    90.1429

_space_group_name_H-M_alt    "P 1"
_space_group_IT_number       1

loop_
  _space_group_symop_operation_xyz
  'x, y, z'

loop_
  _atom_site_type_symbol
  _atom_site_label
  _atom_site_symmetry_multiplicity
  _atom_site_fract_x
  _atom_site_fract_y
  _atom_site_fract_z
  _atom_site_occupancy
  Fe  Fe1       1.0  0.31930  0.34167  0.07508  1.0000
  S   S1        1.0  0.28437  0.34961  0.08800  1.0000
  C   C1        1.0  0.12974  0.44631  0.00346  1.0000
  C   C2        1.0  0.01077  0.25520  0.16229  1.0000
  H   H1        1.0  0.21587  0.16604  0.01184  1.0000
  S   S2        1.0  0.13446  0.04373  0.01239  1.0000
  Fe  Fe2       1.0  0.19135  0.09105  0.09311  1.0000
  S   S3        1.0  0.17635  0.09686  0.03042  1.0000
  S   S4        1.0  0.22640  0.08051  0.09636  1.0000
  Fe  Fe3       1.0  0.14946  0.10484  0.14016  1.0000
  S   S5        1.0  0.13221  0.11211  0.07875  1.0000
  S   S6        1.0  0.13714  0.11556  0.20662  1.0000
  Fe  Fe4       1.0  0.14884  0.07424  0.05721  1.0000
  C   C3        1.0  0.06079  0.25071  0.10919  1.0000
  Fe  Fe5       1.0  0.16161  0.13394  0.05748  1.0000
  H   H2        1.0  0.07860  0.27990  0.14403  1.0000
  S   S7        1.0  0.16464  0.06579  0.11939  1.0000
  S   S8        1.0  0.17796  0.12915  0.11969  1.0000
  C   C4        1.0  0.27729  0.43614  0.02153  1.0000
  Fe  Fe6       1.0  0.02711  0.10006  0.36312  1.0000
  S   S9        1.0  0.05115  0.09164  0.30935  1.0000
  S   S10       1.0  0.02691  0.10823  0.43398  1.0000
  C   C5        1.0  0.11324  0.10805  0.23480  1.0000
  C   C6        1.0  0.11019  0.11913  0.27529  1.0000
  C   C7        1.0  0.09148  0.11426  0.29860  1.0000
  C   C8        1.0  0.07545  0.09808  0.28186  1.0000
  C   C9        1.0  0.07852  0.08698  0.24138  1.0000
  C   C10       1.0  0.09718  0.09198  0.21794  1.0000
  H   H3        1.0  0.12243  0.13154  0.28882  1.0000
  H   H4        1.0  0.08954  0.12284  0.32969  1.0000
  H   H5        1.0  0.06632  0.07442  0.22797  1.0000
  H   H6        1.0  0.09917  0.08330  0.18692  1.0000
  C   C11       1.0  0.24316  0.08437  0.05148  1.0000
  C   C12       1.0  0.26393  0.07447  0.05290  1.0000
  Fe  Fe7       1.0  0.00087  0.07645  0.43874  1.0000
  H   H7        1.0  0.13681  0.20475  0.19524  1.0000
  H   H8        1.0  0.26906  0.15663  0.06532  1.0000
  H   H9        1.0  0.26952  0.06481  0.08133  1.0000
  H   H10       1.0  0.08617  0.40036  0.99977  1.0000
  C   C13       1.0  0.23616  0.09665  0.01431  1.0000
  H   H11       1.0  0.25569  0.15762  0.99254  1.0000
  H   H12       1.0  0.16653  0.17660  0.17264  1.0000
  C   C14       1.0  0.14963  0.99827  0.05256  1.0000
  C   C15       1.0  0.26124  0.13783  0.20128  1.0000
  H   H13       1.0  0.15253  0.01102  0.07953  1.0000
  H   H14       1.0  0.13187  0.45968  0.06797  1.0000
  H   H15       1.0  0.27928  0.00574  0.08418  1.0000
  H   H16       1.0  0.30216  0.17982  0.18026  1.0000
  C   C16       1.0  0.13523  0.20493  0.02912  1.0000
  C   C17       1.0  0.12500  0.22986  0.02413  1.0000
  H   H17       1.0  0.12754  0.18864  0.04582  1.0000
  H   H18       1.0  0.10933  0.23269  0.03674  1.0000
  H   H19       1.0  0.27508  0.17123  0.23428  1.0000
  C   C18       1.0  0.14131  0.00928  0.01558  1.0000
  H   H20       1.0  0.06470  0.35927  0.98947  1.0000
  H   H21       1.0  0.19275  0.03281  0.04990  1.0000
  C   C19       1.0  0.26500  0.34972  0.04743  1.0000
  C   C20       1.0  0.24345  0.34901  0.05826  1.0000
  C   C21       1.0  0.22773  0.34838  0.02677  1.0000
  C   C22       1.0  0.27063  0.35025  0.00473  1.0000
  H   H22       1.0  0.02835  0.27714  0.20909  1.0000
  H   H23       1.0  0.23886  0.34873  0.09117  1.0000
  H   H24       1.0  0.21124  0.34767  0.03559  1.0000
  H   H25       1.0  0.08111  0.24662  0.21531  1.0000
  C   C23       1.0  0.07709  0.14821  0.14922  1.0000
  C   C24       1.0  0.09623  0.15542  0.16768  1.0000
  C   C25       1.0  0.09639  0.17013  0.20518  1.0000
  C   C26       1.0  0.07743  0.17778  0.22423  1.0000
  C   C27       1.0  0.05811  0.17001  0.20646  1.0000
  C   C28       1.0  0.05807  0.15576  0.16822  1.0000
  P   P1        1.0  0.03345  0.17891  0.23133  1.0000
  C   C29       1.0  0.03649  0.18333  0.28754  1.0000
  C   C30       1.0  0.31598  0.40365  0.17749  1.0000
  C   C31       1.0  0.00931  0.10281  0.22496  1.0000
  H   H26       1.0  0.30134  0.41068  0.16384  1.0000
  H   H27       1.0  0.30349  0.36450  0.19267  1.0000
  H   H28       1.0  0.01543  0.08252  0.22736  1.0000
  C   C32       1.0  0.31717  0.37760  0.19386  1.0000
  H   H29       1.0  0.01324  0.21491  0.29330  1.0000
  C   C33       1.0  0.02369  0.25745  0.19777  1.0000
  C   C34       1.0  0.03980  0.18756  0.37563  1.0000
  C   C35       1.0  0.05139  0.16811  0.35400  1.0000
  C   C36       1.0  0.04962  0.16590  0.31020  1.0000
  C   C37       1.0  0.26488  0.25214  0.02612  1.0000
  C   C38       1.0  0.02309  0.12465  0.22761  1.0000
  C   C39       1.0  0.28018  0.99796  0.05232  1.0000
  H   H30       1.0  0.13765  0.36285  0.11157  1.0000
  C   C40       1.0  0.21598  0.27558  0.03102  1.0000
  H   H31       1.0  0.12081  0.33098  0.06190  1.0000
  H   H32       1.0  0.07707  0.13630  0.12063  1.0000
  H   H33       1.0  0.11097  0.14899  0.15352  1.0000
  H   H34       1.0  0.11124  0.17451  0.22044  1.0000
  H   H35       1.0  0.07795  0.18892  0.25346  1.0000
  H   H36       1.0  0.04336  0.14982  0.15368  1.0000
  C   C41       1.0  0.19712  0.29007  0.02991  1.0000
  H   H37       1.0  0.23451  0.98886  0.12134  1.0000
  C   C42       1.0  0.06053  0.22491  0.09184  1.0000
  C   C43       1.0  0.20910  0.00646  0.15618  1.0000
  C   C44       1.0  0.02445  0.20236  0.30962  1.0000
  H   H38       1.0  0.11258  0.28476  0.08436  1.0000
  H   H39       1.0  0.23116  0.02433  0.05482  1.0000
  H   H40       1.0  0.06115  0.15404  0.37129  1.0000
  H   H41       1.0  0.05803  0.15004  0.29415  1.0000
  H   H42       1.0  0.03977  0.12080  0.23162  1.0000
  C   C45       1.0  0.29351  0.41715  0.02294  1.0000
  C   C46       1.0  0.07857  0.25979  0.13095  1.0000
  C   C47       1.0  0.19592  0.29031  0.10625  1.0000
  C   C48       1.0  0.26806  0.27785  0.00898  1.0000
  Fe  Fe8       1.0  0.00064  0.13829  0.42109  1.0000
  C   C49       1.0  0.02627  0.20462  0.35348  1.0000
  C   C50       1.0  0.22512  0.26871  0.06987  1.0000
  C   C51       1.0  0.21477  0.27579  0.10748  1.0000
  P   P2        1.0  0.24823  0.24769  0.07182  1.0000
  C   C52       1.0  0.23857  0.21358  0.07468  1.0000
  H   H43       1.0  0.25948  0.29496  0.02120  1.0000
  C   C53       1.0  0.18966  0.00217  0.17599  1.0000
  C   C54       1.0  0.22476  0.42950  0.99611  1.0000
  H   H44       1.0  0.14271  0.24933  0.31128  1.0000
  H   H45       1.0  0.04734  0.26382  0.10527  1.0000
  H   H46       1.0  0.01793  0.99615  0.46230  1.0000
  C   C55       1.0  0.23837  0.19921  0.11290  1.0000
  C   C56       1.0  0.23116  0.17260  0.11397  1.0000
  C   C57       1.0  0.22365  0.16044  0.07725  1.0000
  C   C58       1.0  0.22261  0.17517  0.03980  1.0000
  C   C59       1.0  0.23008  0.20162  0.03840  1.0000
  C   C60       1.0  0.26543  0.25722  0.11450  1.0000
  C   C61       1.0  0.26667  0.28425  0.12695  1.0000
  C   C62       1.0  0.28142  0.29233  0.15709  1.0000
  C   C63       1.0  0.29520  0.27359  0.17472  1.0000
  C   C64       1.0  0.29432  0.24672  0.16201  1.0000
  C   C65       1.0  0.27972  0.23862  0.13155  1.0000
  H   H47       1.0  0.18801  0.29584  0.13530  1.0000
  H   H48       1.0  0.29689  0.40659  0.05213  1.0000
  C   C66       1.0  0.27246  0.15685  0.99824  1.0000
  C   C67       1.0  0.03068  0.23432  0.21861  1.0000
  H   H49       1.0  0.22118  0.26991  0.13774  1.0000
  H   H50       1.0  0.31146  0.20530  0.05618  1.0000
  C   C68       1.0  0.13494  0.25120  0.00271  1.0000
  H   H51       1.0  0.32969  0.24782  0.06894  1.0000
  H   H52       1.0  0.26832  0.44028  0.04995  1.0000
  C   C69       1.0  0.22394  0.02725  0.02424  1.0000
  H   H53       1.0  0.24353  0.20849  0.14192  1.0000
  H   H54       1.0  0.23102  0.16144  0.14332  1.0000
  H   H55       1.0  0.21822  0.13976  0.07790  1.0000
  H   H56       1.0  0.13787  0.30186  0.20772  1.0000
  H   H57       1.0  0.01663  0.21883  0.37083  1.0000
  H   H58       1.0  0.25683  0.29939  0.11227  1.0000
  H   H59       1.0  0.28259  0.31340  0.16557  1.0000
  H   H60       1.0  0.30694  0.28008  0.19732  1.0000
  H   H61       1.0  0.30545  0.23241  0.17477  1.0000
  H   H62       1.0  0.28001  0.21806  0.12045  1.0000
  C   C70       1.0  0.31579  0.15306  0.01211  1.0000
  C   C71       1.0  0.26200  0.12184  0.16515  1.0000
  H   H63       1.0  0.22912  0.21276  0.00904  1.0000
  C   C72       1.0  0.27688  0.23054  0.01093  1.0000
  H   H64       1.0  0.14612  0.34809  0.18453  1.0000
  C   C73       1.0  0.09587  0.21721  0.11795  1.0000
  H   H65       1.0  0.27735  0.11435  0.10604  1.0000
  C   C74       1.0  0.01535  0.15105  0.22655  1.0000
  H   H66       1.0  0.07809  0.18841  0.08197  1.0000
  C   C75       1.0  0.15537  0.20116  0.01202  1.0000
  C   C76       1.0  0.21979  0.98493  0.13755  1.0000
  C   C77       1.0  0.29695  0.00537  0.02605  1.0000
  S   S11       1.0  0.16907  0.17041  0.01666  1.0000
  C   C78       1.0  0.01207  0.20665  0.16807  1.0000
  H   H67       1.0  0.07610  0.24047  0.29184  1.0000
  C   C79       1.0  0.28017  0.15567  0.03950  1.0000
  C   C80       1.0  0.02437  0.20878  0.20466  1.0000
  H   H68       1.0  0.04096  0.23638  0.24562  1.0000
  H   H69       1.0  0.00791  0.18709  0.15564  1.0000
  C   C81       1.0  0.20237  0.03235  0.02154  1.0000
  C   C82       1.0  0.29206  0.14752  0.13894  1.0000
  S   S12       1.0  0.12168  0.28222  0.99766  1.0000
  H   H70       1.0  0.25070  0.10566  0.16110  1.0000
  C   C83       1.0  0.27749  0.07677  0.01763  1.0000
  H   H71       1.0  0.29336  0.06893  0.01913  1.0000
  P   P3        1.0  0.31255  0.15265  0.09961  1.0000
  H   H72       1.0  0.14817  0.25557  0.23469  1.0000
  C   C84       1.0  0.29109  0.16361  0.17534  1.0000
  C   C85       1.0  0.27722  0.12676  0.13404  1.0000
  H   H73       1.0  0.10675  0.24172  0.33998  1.0000
  H   H74       1.0  0.15132  0.26116  0.09535  1.0000
  C   C86       1.0  0.13084  0.46586  0.03529  1.0000
  H   H75       1.0  0.24938  0.13396  0.22529  1.0000
  H   H76       1.0  0.22036  0.10455  0.01261  1.0000
  H   H77       1.0  0.04685  0.21796  0.07459  1.0000
  H   H78       1.0  0.18136  0.23311  0.07414  1.0000
  C   C87       1.0  0.99995  0.20922  0.48067  1.0000
  H   H79       1.0  0.30922  0.01868  0.03761  1.0000
  C   C88       1.0  0.27569  0.15882  0.20624  1.0000
  C   C89       1.0  0.30194  0.15337  0.04675  1.0000
  H   H80       1.0  0.18865  0.19050  0.11134  1.0000
  C   C90       1.0  0.07808  0.20822  0.09612  1.0000
  H   H81       1.0  0.21566  0.02663  0.15449  1.0000
  C   C91       1.0  0.32216  0.20656  0.08254  1.0000
  S   S13       1.0  0.15856  0.34669  0.00276  1.0000
  H   H82       1.0  0.19037  0.29579  0.99979  1.0000
  H   H83       1.0  0.10938  0.20404  0.12035  1.0000
  C   C92       1.0  0.12429  0.32469  0.09394  1.0000
  C   C93       1.0  0.13385  0.34257  0.12191  1.0000
  C   C94       1.0  0.13861  0.33420  0.16295  1.0000
  C   C95       1.0  0.13383  0.30794  0.17601  1.0000
  C   C96       1.0  0.12408  0.28991  0.14809  1.0000
  C   C97       1.0  0.11952  0.29849  0.10688  1.0000
  P   P4        1.0  0.11936  0.25523  0.16282  1.0000
  C   C98       1.0  0.14202  0.23548  0.14776  1.0000
  C   C99       1.0  0.11505  0.25194  0.21911  1.0000
  C   C100      1.0  0.13232  0.25258  0.24675  1.0000
  C   C101      1.0  0.12931  0.24898  0.29016  1.0000
  C   C102      1.0  0.10905  0.24467  0.30634  1.0000
  C   C103      1.0  0.09177  0.24400  0.27914  1.0000
  C   C104      1.0  0.09471  0.24760  0.23568  1.0000
  C   C105      1.0  0.14654  0.21145  0.16919  1.0000
  C   C106      1.0  0.16347  0.19543  0.15649  1.0000
  C   C107      1.0  0.17604  0.20332  0.12232  1.0000
  C   C108      1.0  0.17185  0.22736  0.10121  1.0000
  C   C109      1.0  0.15478  0.24328  0.11351  1.0000
  C   C110      1.0  0.09630  0.24314  0.13530  1.0000
  S   S14       1.0  0.00259  0.13164  0.35024  1.0000
  H   H84       1.0  0.18123  0.01893  0.18989  1.0000
  H   H85       1.0  0.17233  0.30831  0.06658  1.0000
  C   C111      1.0  0.15509  0.24742  0.98584  1.0000
  S   S15       1.0  0.12899  0.41196  0.01781  1.0000
  H   H86       1.0  0.30998  0.09447  0.12060  1.0000
  H   H87       1.0  0.27524  0.21082  0.02480  1.0000
  C   C112      1.0  0.32588  0.18429  0.10874  1.0000
  C   C113      1.0  0.18706  0.29736  0.06749  1.0000
  C   C114      1.0  0.00517  0.22981  0.14714  1.0000
  H   H88       1.0  0.04061  0.18874  0.40978  1.0000
  S   S16       1.0  0.00290  0.06688  0.36952  1.0000
  H   H89       1.0  0.22331  0.26979  0.00150  1.0000
  C   C115      1.0  0.32605  0.09952  0.11264  1.0000
  H   H90       1.0  0.28707  0.35109  0.99580  1.0000
  C   C116      1.0  0.29808  0.99549  0.98485  1.0000
  H   H91       1.0  0.17147  0.42193  0.99379  1.0000
  H   H92       1.0  0.32617  0.46306  0.06847  1.0000
  H   H93       1.0  0.00533  0.27315  0.14621  1.0000
  H   H94       1.0  0.25320  0.02461  0.98982  1.0000
  H   H95       1.0  0.23866  0.41715  0.99959  1.0000
  H   H96       1.0  0.20398  0.39538  0.00297  1.0000
  C   C117      1.0  0.20504  0.41689  0.99795  1.0000
  C   C118      1.0  0.18666  0.43184  0.99245  1.0000
  C   C119      1.0  0.23632  0.02714  0.98769  1.0000
  C   C120      1.0  0.18790  0.45941  0.98452  1.0000
  C   C121      1.0  0.22619  0.45735  0.98866  1.0000
  C   C122      1.0  0.16519  0.22245  0.99025  1.0000
  H   H97       1.0  0.31810  0.39722  0.98801  1.0000
  C   C123      1.0  0.30534  0.41166  0.98671  1.0000
  C   C124      1.0  0.23340  0.34853  0.98401  1.0000
  C   C125      1.0  0.27248  0.44938  0.98355  1.0000
  Fe  Fe9       1.0  0.17838  0.34841  0.94414  1.0000
  S   S17       1.0  0.21449  0.34710  0.94261  1.0000
  Fe  Fe10      1.0  0.13904  0.35170  0.88635  1.0000
  S   S18       1.0  0.11672  0.35053  0.94151  1.0000
  S   S19       1.0  0.12934  0.35195  0.81672  1.0000
  C   C126      1.0  0.02452  0.31862  0.83995  1.0000
  C   C127      1.0  0.22713  0.03172  0.94841  1.0000
  S   S20       1.0  0.16039  0.38308  0.91551  1.0000
  S   S21       1.0  0.15888  0.31722  0.90999  1.0000
  H   H98       1.0  0.17360  0.47094  0.97987  1.0000
  S   S22       1.0  0.28642  0.09076  0.93422  1.0000
  Fe  Fe11      1.0  0.01923  0.35895  0.67640  1.0000
  S   S23       1.0  0.03701  0.36494  0.73881  1.0000
  S   S24       1.0  0.02735  0.35542  0.60717  1.0000
  H   H99       1.0  0.04911  0.45130  0.72371  1.0000
  C   C128      1.0  0.05464  0.29261  0.67397  1.0000
  H   H100      1.0  0.13411  0.01195  0.81367  1.0000
  H   H101      1.0  0.09894  0.45596  0.73287  1.0000
  C   C129      1.0  0.00516  0.30528  0.77766  1.0000
  H   H102      1.0  0.24404  0.10846  0.95068  1.0000
  C   C130      1.0  0.10339  0.35418  0.79574  1.0000
  C   C131      1.0  0.08580  0.35889  0.82141  1.0000
  C   C132      1.0  0.06563  0.36137  0.80327  1.0000
  C   C133      1.0  0.06266  0.35905  0.75947  1.0000
  C   C134      1.0  0.08013  0.35364  0.73385  1.0000
  C   C135      1.0  0.10039  0.35139  0.75192  1.0000
  H   H103      1.0  0.08778  0.36092  0.85515  1.0000
  H   H104      1.0  0.05220  0.36526  0.82324  1.0000
  H   H105      1.0  0.07814  0.35174  0.70011  1.0000
  H   H106      1.0  0.11388  0.34763  0.73179  1.0000
  H   H107      1.0  0.05157  0.30900  0.65226  1.0000
  H   H108      1.0  0.08013  0.23269  0.67891  1.0000
  H   H109      1.0  0.03759  0.31083  0.72438  1.0000
  C   C136      1.0  0.24370  0.47718  0.89648  1.0000
  H   H110      1.0  0.03556  0.45684  0.59069  1.0000
  C   C137      1.0  0.08317  0.43892  0.83257  1.0000
  H   H111      1.0  0.28543  0.30175  0.96386  1.0000
  C   C138      1.0  0.00529  0.23897  0.80581  1.0000
  Fe  Fe12      1.0  0.00280  0.32209  0.60313  1.0000
  H   H112      1.0  0.25953  0.34988  0.94039  1.0000
  C   C139      1.0  0.20757  0.47207  0.98209  1.0000
  H   H113      1.0  0.19148  0.99022  0.91401  1.0000
  C   C140      1.0  0.11789  0.42093  0.81675  1.0000
  C   C141      1.0  0.10104  0.42424  0.84480  1.0000
  C   C142      1.0  0.31607  0.02617  0.82831  1.0000
  H   H114      1.0  0.29570  0.05515  0.85810  1.0000
  P   P5        1.0  0.06156  0.44431  0.86894  1.0000
  C   C143      1.0  0.03677  0.44332  0.84059  1.0000
  C   C144      1.0  0.06162  0.41787  0.90815  1.0000
  C   C145      1.0  0.24962  0.09865  0.97894  1.0000
  C   C146      1.0  0.04913  0.39477  0.90301  1.0000
  Fe  Fe13      1.0  0.13785  0.31807  0.96697  1.0000
  H   H115      1.0  0.04646  0.26118  0.88683  1.0000
  C   C147      1.0  0.06097  0.41958  0.68523  1.0000
  C   C148      1.0  0.06525  0.47604  0.89574  1.0000
  C   C149      1.0  0.03454  0.42670  0.80503  1.0000
  Fe  Fe14      1.0  0.13930  0.37930  0.97242  1.0000
  H   H116      1.0  0.03876  0.39280  0.87620  1.0000
  H   H117      1.0  0.06593  0.23406  0.75140  1.0000
  H   H118      1.0  0.06765  0.40873  0.71167  1.0000
  C   C150      1.0  0.28437  0.44360  0.94720  1.0000
  H   H119      1.0  0.13154  0.40931  0.82621  1.0000
  H   H120      1.0  0.10210  0.41507  0.87570  1.0000
  C   C151      1.0  0.01030  0.33972  0.84637  1.0000
  H   H121      1.0  0.02037  0.47110  0.88185  1.0000
  H   H122      1.0  0.31867  0.15360  0.94438  1.0000
  C   C152      1.0  0.11701  0.43201  0.77626  1.0000
  H   H123      1.0  0.21895  0.98343  0.83810  1.0000
  H   H124      1.0  0.03752  0.31638  0.86161  1.0000
  C   C153      1.0  0.04291  0.44694  0.61732  1.0000
  H   H125      1.0  0.04752  0.41438  0.79409  1.0000
  H   H126      1.0  0.08311  0.29536  0.78464  1.0000
  C   C154      1.0  0.29723  0.98833  0.88275  1.0000
  C   C155      1.0  0.04159  0.45798  0.65798  1.0000
  H   H127      1.0  0.27943  0.02237  0.90654  1.0000
  H   H128      1.0  0.11369  0.29891  0.83191  1.0000
  C   C156      1.0  0.04647  0.29344  0.71497  1.0000
  C   C157      1.0  0.01537  0.42552  0.78336  1.0000
  H   H129      1.0  0.28124  0.45361  0.91762  1.0000
  C   C158      1.0  0.08280  0.45094  0.79242  1.0000
  C   C159      1.0  0.29473  0.26018  0.96169  1.0000
  C   C160      1.0  0.01278  0.22588  0.54887  1.0000
  C   C161      1.0  0.28284  0.28179  0.97665  1.0000
  C   C162      1.0  0.12854  0.45449  0.96127  1.0000
  H   H130      1.0  0.02499  0.24995  0.66093  1.0000
  C   C163      1.0  0.01777  0.21254  0.69243  1.0000
  C   C164      1.0  0.29172  0.23453  0.97877  1.0000
  H   H131      1.0  0.07284  0.27003  0.62895  1.0000
  C   C165      1.0  0.07571  0.39887  0.97290  1.0000
  H   H132      1.0  0.08493  0.43721  0.94796  1.0000
  C   C166      1.0  0.05023  0.37370  0.93226  1.0000
  H   H133      1.0  0.01378  0.41263  0.75596  1.0000
  C   C167      1.0  0.25494  0.34960  0.97331  1.0000
  H   H134      1.0  0.31014  0.42076  0.92098  1.0000
  C   C168      1.0  0.14670  0.00730  0.83553  1.0000
  C   C169      1.0  0.05051  0.44390  0.69194  1.0000
  H   H135      1.0  0.13031  0.09518  0.94728  1.0000
  C   C170      1.0  0.00159  0.45286  0.52604  1.0000
  C   C171      1.0  0.32252  0.99934  0.82737  1.0000
  H   H136      1.0  0.04253  0.46718  0.94510  1.0000
  C   C172      1.0  0.30799  0.15447  0.97098  1.0000
  C   C173      1.0  0.07487  0.41980  0.94347  1.0000
  C   C174      1.0  0.13756  0.99238  0.98085  1.0000
  H   H137      1.0  0.06983  0.38955  0.63971  1.0000
  H   H138      1.0  0.30663  0.26346  0.93757  1.0000
  H   H139      1.0  0.05351  0.41375  0.57938  1.0000
  C   C175      1.0  0.01020  0.99118  0.49178  1.0000
  Fe  Fe15      1.0  0.32212  0.08610  0.93909  1.0000
  H   H140      1.0  0.12775  0.43959  0.93650  1.0000
  H   H141      1.0  0.31149  0.00105  0.96536  1.0000
  C   C176      1.0  0.14609  0.09771  0.93455  1.0000
  C   C177      1.0  0.15534  0.12320  0.93311  1.0000
  C   C178      1.0  0.17606  0.12615  0.91876  1.0000
  C   C179      1.0  0.18759  0.10363  0.90584  1.0000
  C   C180      1.0  0.17840  0.07788  0.90696  1.0000
  C   C181      1.0  0.15755  0.07517  0.92173  1.0000
  P   P6        1.0  0.19393  0.04812  0.89606  1.0000
  C   C182      1.0  0.17656  0.02173  0.87785  1.0000
  C   C183      1.0  0.21404  0.05491  0.85657  1.0000
  C   C184      1.0  0.21256  0.04398  0.81580  1.0000
  C   C185      1.0  0.22870  0.04825  0.78627  1.0000
  C   C186      1.0  0.24645  0.06343  0.79712  1.0000
  C   C187      1.0  0.24801  0.07450  0.83746  1.0000
  C   C188      1.0  0.23187  0.07037  0.86689  1.0000
  H   H142      1.0  0.03926  0.17718  0.83622  1.0000
  H   H143      1.0  0.11093  0.28447  0.90651  1.0000
  H   H144      1.0  0.05646  0.22073  0.82204  1.0000
  C   C189      1.0  0.02732  0.24180  0.80878  1.0000
  C   C190      1.0  0.16040  0.02759  0.84907  1.0000
  C   C191      1.0  0.20565  0.03824  0.94561  1.0000
  H   H145      1.0  0.02061  0.22182  0.57845  1.0000
  H   H146      1.0  0.03395  0.20560  0.69223  1.0000
  C   C192      1.0  0.00549  0.25219  0.54058  1.0000
  C   C193      1.0  0.01282  0.23757  0.67513  1.0000
  H   H147      1.0  0.01582  0.18473  0.52661  1.0000
  C   C194      1.0  0.01495  0.46353  0.49435  1.0000
  H   H148      1.0  0.14672  0.14058  0.94441  1.0000
  H   H149      1.0  0.18335  0.14589  0.91899  1.0000
  H   H150      1.0  0.20373  0.10652  0.89603  1.0000
  H   H151      1.0  0.15030  0.05553  0.92508  1.0000
  H   H152      1.0  0.19908  0.03202  0.80663  1.0000
  H   H153      1.0  0.22746  0.03975  0.75490  1.0000
  H   H154      1.0  0.25899  0.06663  0.77430  1.0000
  H   H155      1.0  0.26180  0.08618  0.84623  1.0000
  H   H156      1.0  0.23361  0.07870  0.89818  1.0000
  S   S25       1.0  0.00948  0.27831  0.57953  1.0000
  H   H157      1.0  0.28030  0.15641  0.93209  1.0000
  C   C195      1.0  0.01006  0.20466  0.51937  1.0000
  H   H158      1.0  0.01228  0.35323  0.87274  1.0000
  H   H159      1.0  0.15829  0.04790  0.83739  1.0000
  H   H160      1.0  0.00036  0.17274  0.83148  1.0000
  H   H161      1.0  0.13120  0.00077  0.95207  1.0000
  C   C196      1.0  0.17901  0.99524  0.89228  1.0000
  C   C197      1.0  0.00179  0.19639  0.70946  1.0000
  C   C198      1.0  0.02976  0.19445  0.82778  1.0000
  C   C199      1.0  0.03946  0.21922  0.81963  1.0000
  H   H162      1.0  0.16281  0.26364  0.96898  1.0000
  H   H163      1.0  0.04098  0.35563  0.92767  1.0000
  C   C200      1.0  0.09952  0.44717  0.76416  1.0000
  C   C201      1.0  0.05316  0.42243  0.61075  1.0000
  H   H164      1.0  0.12994  0.42878  0.75440  1.0000
  H   H165      1.0  0.24000  0.45591  0.89844  1.0000
  H   H166      1.0  0.00562  0.17697  0.72288  1.0000
  C   C202      1.0  0.00015  0.45703  0.83270  1.0000
  H   H167      1.0  0.23710  0.03091  0.92078  1.0000
  P   P7        1.0  0.04024  0.27352  0.79703  1.0000
  C   C203      1.0  0.02206  0.30114  0.80547  1.0000
  C   C204      1.0  0.06260  0.27724  0.83188  1.0000
  C   C205      1.0  0.06108  0.26929  0.87440  1.0000
  C   C206      1.0  0.07847  0.27192  0.90122  1.0000
  C   C207      1.0  0.09743  0.28245  0.88579  1.0000
  C   C208      1.0  0.09900  0.29056  0.84369  1.0000
  C   C209      1.0  0.08162  0.28827  0.81688  1.0000
  H   H168      1.0  0.07740  0.26583  0.93404  1.0000
  C   C210      1.0  0.06223  0.40878  0.64468  1.0000
  C   C211      1.0  0.06355  0.37573  0.96714  1.0000
  C   C212      1.0  0.30024  0.03418  0.85635  1.0000
  C   C213      1.0  0.29112  0.01549  0.88398  1.0000
  C   C214      1.0  0.05000  0.27219  0.74325  1.0000
  C   C215      1.0  0.06238  0.25036  0.73001  1.0000
  C   C216      1.0  0.07062  0.24958  0.68897  1.0000
  C   C217      1.0  0.06667  0.27067  0.66089  1.0000
  C   C218      1.0  0.99841  0.01098  0.51274  1.0000
  H   H169      1.0  0.23695  0.47939  0.82999  1.0000
  C   C219      1.0  0.28635  0.15627  0.96403  1.0000
  C   C220      1.0  0.00786  0.19194  0.82512  1.0000
  H   H170      1.0  0.00299  0.29223  0.75071  1.0000
  H   H171      1.0  0.32382  0.04090  0.80821  1.0000
  C   C221      1.0  0.01934  0.45839  0.85436  1.0000
  C   C222      1.0  0.27032  0.08865  0.98024  1.0000
  S   S26       1.0  0.00701  0.41981  0.54764  1.0000
  H   H172      1.0  0.30127  0.21790  0.96780  1.0000
  H   H173      1.0  0.06960  0.46322  0.78303  1.0000
  H   H174      1.0  0.25313  0.99541  0.86885  1.0000
  C   C223      1.0  0.99817  0.44061  0.79719  1.0000
  H   H175      1.0  0.18076  0.21966  0.97690  1.0000
  H   H176      1.0  0.99936  0.44822  0.63239  1.0000
  Fe  Fe16      1.0  0.00044  0.38486  0.59561  1.0000
  H   H177      1.0  0.17662  0.04230  0.98110  1.0000
  C   C224      1.0  0.30083  0.42493  0.94892  1.0000
  P   P8        1.0  0.25146  0.47392  0.98259  1.0000
  C   C225      1.0  0.19327  0.03788  0.98240  1.0000
  H   H178      1.0  0.02821  0.45173  0.48361  1.0000
  C   C226      1.0  0.00042  0.48109  0.67720  1.0000
  C   C227      1.0  0.99874  0.70336  0.19954  1.0000
  S   S27       1.0  0.28615  0.84655  0.08301  1.0000
  S   S28       1.0  0.16050  0.59851  0.99351  1.0000
  C   C228      1.0  0.23198  0.65918  0.00454  1.0000
  S   S29       1.0  0.15264  0.91839  0.02764  1.0000
  S   S30       1.0  0.13768  0.79046  0.00929  1.0000
  Fe  Fe17      1.0  0.16981  0.59891  0.06137  1.0000
  H   H179      1.0  0.29754  0.53331  0.06625  1.0000
  S   S31       1.0  0.20518  0.59777  0.07702  1.0000
  Fe  Fe18      1.0  0.12329  0.60348  0.09262  1.0000
  S   S32       1.0  0.11186  0.60363  0.02496  1.0000
  S   S33       1.0  0.09449  0.60628  0.13802  1.0000
  Fe  Fe19      1.0  0.13486  0.57011  0.01394  1.0000
  H   H180      1.0  0.07690  0.54292  0.26293  1.0000
  Fe  Fe20      1.0  0.13849  0.63202  0.01068  1.0000
  H   H181      1.0  0.22372  0.89609  0.03596  1.0000
  S   S34       1.0  0.14521  0.56810  0.08167  1.0000
  S   S35       1.0  0.14882  0.63430  0.07817  1.0000
  H   H182      1.0  0.24129  0.88817  0.15881  1.0000
  Fe  Fe21      1.0  0.02677  0.60517  0.36119  1.0000
  S   S36       1.0  0.05978  0.60331  0.32988  1.0000
  S   S37       1.0  0.02201  0.60493  0.43258  1.0000
  C   C229      1.0  0.08531  0.60528  0.19174  1.0000
  C   C230      1.0  0.09897  0.60348  0.22627  1.0000
  C   C231      1.0  0.09087  0.60305  0.26802  1.0000
  C   C232      1.0  0.06900  0.60419  0.27617  1.0000
  C   C233      1.0  0.05532  0.60559  0.24160  1.0000
  C   C234      1.0  0.06342  0.60633  0.19987  1.0000
  H   H183      1.0  0.11580  0.60257  0.22087  1.0000
  H   H184      1.0  0.10167  0.60179  0.29430  1.0000
  H   H185      1.0  0.03851  0.60573  0.24703  1.0000
  H   H186      1.0  0.05257  0.60758  0.17370  1.0000
  C   C235      1.0  0.22566  0.59542  0.03826  1.0000
  C   C236      1.0  0.24676  0.59949  0.05040  1.0000
  C   C237      1.0  0.26339  0.59813  0.02063  1.0000
  H   H187      1.0  0.20165  0.80828  0.06486  1.0000
  C   C238      1.0  0.28351  0.94459  0.15030  1.0000
  H   H188      1.0  0.25027  0.60384  0.08305  1.0000
  H   H189      1.0  0.27942  0.60160  0.03064  1.0000
  H   H190      1.0  0.09611  0.81513  0.99377  1.0000
  C   C239      1.0  0.14899  0.95341  0.02114  1.0000
  H   H191      1.0  0.27655  0.70359  0.04152  1.0000
  C   C240      1.0  0.13075  0.49342  0.02514  1.0000
  H   H192      1.0  0.09223  0.51947  0.03852  1.0000
  H   H193      1.0  0.13167  0.50829  0.04994  1.0000
  H   H194      1.0  0.15902  0.96196  0.08464  1.0000
  C   C241      1.0  0.23991  0.51034  0.04620  1.0000
  C   C242      1.0  0.04644  0.53209  0.28799  1.0000
  C   C243      1.0  0.13632  0.70900  0.01834  1.0000
  C   C244      1.0  0.13635  0.73665  0.02782  1.0000
  H   H195      1.0  0.13442  0.69431  0.04331  1.0000
  H   H196      1.0  0.13452  0.74307  0.06023  1.0000
  H   H197      1.0  0.23743  0.79034  0.07873  1.0000
  H   H198      1.0  0.02152  0.57474  0.07821  1.0000
  C   C245      1.0  0.24280  0.71112  0.17067  1.0000
  C   C246      1.0  0.15321  0.97043  0.05545  1.0000
  C   C247      1.0  0.26941  0.84777  0.03833  1.0000
  C   C248      1.0  0.24752  0.84623  0.04466  1.0000
  C   C249      1.0  0.23354  0.84724  0.01034  1.0000
  C   C250      1.0  0.01175  0.57037  0.14357  1.0000
  C   C251      1.0  0.13847  0.75600  0.99568  1.0000
  H   H199      1.0  0.24132  0.84419  0.07635  1.0000
  H   H200      1.0  0.21679  0.84584  0.01594  1.0000
  H   H201      1.0  0.23118  0.54079  0.09132  1.0000
  C   C252      1.0  0.01332  0.58381  0.10459  1.0000
  H   H202      1.0  0.22368  0.50479  0.04079  1.0000
  H   H203      1.0  0.00587  0.61968  0.06941  1.0000
  C   C253      1.0  0.02040  0.66364  0.20808  1.0000
  C   C254      1.0  0.01639  0.68815  0.18802  1.0000
  H   H204      1.0  0.06502  0.70355  0.98584  1.0000
  C   C255      1.0  0.00039  0.58245  0.17661  1.0000
  C   C256      1.0  0.18092  0.97636  0.17724  1.0000
  H   H205      1.0  0.06730  0.48228  0.05420  1.0000
  H   H206      1.0  0.29106  0.95404  0.17708  1.0000
  S   S38       1.0  0.00284  0.57231  0.35131  1.0000
  H   H207      1.0  0.26612  0.72061  0.21772  1.0000
  H   H208      1.0  0.00270  0.79914  0.23991  1.0000
  H   H209      1.0  0.29403  0.85159  0.99171  1.0000
  C   C257      1.0  0.07894  0.52274  0.05949  1.0000
  C   C258      1.0  0.18646  0.86467  0.11896  1.0000
  H   H210      1.0  0.03699  0.48972  0.10181  1.0000
  C   C259      1.0  0.21577  0.93670  0.05330  1.0000
  H   H211      1.0  0.16681  0.62728  0.17296  1.0000
  H   H212      1.0  0.26832  0.64030  0.16807  1.0000
  C   C260      1.0  0.28146  0.52667  0.06105  1.0000
  Fe  Fe22      1.0  0.32188  0.84203  0.07991  1.0000
  C   C261      1.0  0.19898  0.84742  0.14302  1.0000
  S   S39       1.0  0.00385  0.63923  0.35176  1.0000
  S   S40       1.0  0.17312  0.85138  0.99720  1.0000
  H   H213      1.0  0.00180  0.52475  0.23038  1.0000
  C   C262      1.0  0.22379  0.77730  0.08190  1.0000
  C   C263      1.0  0.25651  0.49791  0.02420  1.0000
  C   C264      1.0  0.21101  0.95891  0.13825  1.0000
  H   H214      1.0  0.02712  0.69544  0.16386  1.0000
  C   C265      1.0  0.06477  0.50188  0.06819  1.0000
  C   C266      1.0  0.00241  0.51278  0.14095  1.0000
  C   C267      1.0  0.16246  0.69398  0.19495  1.0000
  H   H215      1.0  0.24678  0.65248  0.99094  1.0000
  H   H216      1.0  0.00928  0.63483  0.25412  1.0000
  C   C268      1.0  0.22586  0.88203  0.14783  1.0000
  C   C269      1.0  0.27721  0.85043  0.99711  1.0000
  H   H217      1.0  0.30732  0.71139  0.98822  1.0000
  C   C270      1.0  0.19365  0.67537  0.04016  1.0000
  H   H218      1.0  0.14534  0.65876  0.21578  1.0000
  C   C271      1.0  0.20876  0.73323  0.09700  1.0000
  H   H219      1.0  0.02232  0.71574  0.45531  1.0000
  H   H220      1.0  0.19345  0.82729  0.15028  1.0000
  C   C272      1.0  0.19037  0.68618  0.14360  1.0000
  C   C273      1.0  0.17013  0.64868  0.17202  1.0000
  C   C274      1.0  0.21864  0.85612  0.15753  1.0000
  H   H221      1.0  0.17493  0.73035  0.08813  1.0000
  H   H222      1.0  0.31285  0.93145  0.12249  1.0000
  H   H223      1.0  0.27900  0.79032  0.03577  1.0000
  P   P9        1.0  0.22311  0.93223  0.10793  1.0000
  H   H224      1.0  0.17864  0.68157  0.05333  1.0000
  H   H225      1.0  0.18373  0.90360  0.09033  1.0000
  H   H226      1.0  0.05756  0.57169  0.12042  1.0000
  C   C275      1.0  0.26955  0.68006  0.19497  1.0000
  C   C276      1.0  0.15807  0.66642  0.19616  1.0000
  C   C277      1.0  0.21253  0.68034  0.06179  1.0000
  C   C278      1.0  0.27734  0.50636  0.03177  1.0000
  C   C279      1.0  0.18866  0.74336  0.08745  1.0000
  C   C280      1.0  0.25161  0.93231  0.11235  1.0000
  C   C281      1.0  0.26570  0.97042  0.99629  1.0000
  C   C282      1.0  0.28610  0.91898  0.08573  1.0000
  H   H227      1.0  0.26803  0.55501  0.10476  1.0000
  H   H228      1.0  0.08750  0.56374  0.07269  1.0000
  H   H229      1.0  0.22845  0.84269  0.17587  1.0000
  C   C283      1.0  0.05910  0.55224  0.10544  1.0000
  H   H230      1.0  0.16568  0.97314  0.19207  1.0000
  C   C284      1.0  0.18612  0.77043  0.07659  1.0000
  C   C285      1.0  0.04448  0.53163  0.11373  1.0000
  H   H231      1.0  0.20374  0.97736  0.06012  1.0000
  H   H232      1.0  0.18222  0.72513  0.16951  1.0000
  H   H233      1.0  0.24210  0.74264  0.09778  1.0000
  H   H234      1.0  0.15324  0.70767  0.21407  1.0000
  C   C286      1.0  0.26414  0.91906  0.08217  1.0000
  P   P10       1.0  0.21190  0.69823  0.11131  1.0000
  H   H235      1.0  0.06502  0.54453  0.18941  1.0000
  C   C287      1.0  0.05375  0.53904  0.21366  1.0000
  H   H236      1.0  0.17056  0.77811  0.06927  1.0000
  H   H237      1.0  0.25227  0.95388  0.17174  1.0000
  C   C288      1.0  0.02535  0.52668  0.27861  1.0000
  C   C289      1.0  0.20364  0.78744  0.07409  1.0000
  H   H238      1.0  0.28296  0.67563  0.21493  1.0000
  H   H239      1.0  0.19530  0.64445  0.12710  1.0000
  H   H240      1.0  0.03424  0.65205  0.19967  1.0000
  C   C290      1.0  0.18620  0.65850  0.14581  1.0000
  P   P11       1.0  0.02299  0.53724  0.15046  1.0000
  C   C291      1.0  0.26139  0.66021  0.16847  1.0000
  H   H241      1.0  0.24655  0.67639  0.05890  1.0000
  C   C292      1.0  0.21762  0.91510  0.02526  1.0000
  C   C293      1.0  0.22637  0.75024  0.09287  1.0000
  H   H242      1.0  0.02185  0.49686  0.45196  1.0000
  C   C294      1.0  0.20649  0.96069  0.03911  1.0000
  C   C295      1.0  0.19149  0.95481  0.15835  1.0000
  H   H243      1.0  0.29558  0.90829  0.06268  1.0000
  C   C296      1.0  0.00428  0.60923  0.09929  1.0000
  C   C297      1.0  0.23174  0.67242  0.04343  1.0000
  C   C298      1.0  0.17873  0.70383  0.16920  1.0000
  H   H244      1.0  0.19113  0.98083  0.98775  1.0000
  C   C299      1.0  0.28074  0.77157  0.05288  1.0000
  C   C300      1.0  0.28657  0.77228  0.09539  1.0000
  C   C301      1.0  0.28924  0.74838  0.11795  1.0000
  C   C302      1.0  0.28562  0.72370  0.09826  1.0000
  C   C303      1.0  0.27945  0.72291  0.05597  1.0000
  H   H245      1.0  0.05170  0.53234  0.32052  1.0000
  H   H246      1.0  0.18405  0.93521  0.15857  1.0000
  H   H247      1.0  0.25146  0.97512  0.05737  1.0000
  H   H248      1.0  0.01433  0.52232  0.30395  1.0000
  H   H249      1.0  0.17124  0.85799  0.10739  1.0000
  C   C304      1.0  0.26486  0.53886  0.08278  1.0000
  S   S41       1.0  0.32347  0.58626  0.02159  1.0000
  C   C305      1.0  0.23512  0.69167  0.14251  1.0000
  C   C306      1.0  0.24410  0.53075  0.07531  1.0000
  H   H250      1.0  0.23528  0.73057  0.17321  1.0000
  C   C307      1.0  0.29581  0.93186  0.11962  1.0000
  H   H251      1.0  0.23740  0.64982  0.12379  1.0000
  C   C308      1.0  0.00360  0.48704  0.15914  1.0000
  C   C309      1.0  0.26150  0.94461  0.14695  1.0000
  C   C310      1.0  0.24401  0.66581  0.14292  1.0000
  H   H252      1.0  0.99767  0.75151  0.25992  1.0000
  C   C311      1.0  0.21344  0.89939  0.12331  1.0000
  H   H253      1.0  0.28932  0.79145  0.11068  1.0000
  H   H254      1.0  0.29422  0.74904  0.15061  1.0000
  H   H255      1.0  0.28775  0.70512  0.11564  1.0000
  C   C312      1.0  0.01835  0.52790  0.23686  1.0000
  C   C313      1.0  0.26013  0.70543  0.19637  1.0000
  H   H256      1.0  0.99853  0.57264  0.20691  1.0000
  C   C314      1.0  0.27745  0.74684  0.03267  1.0000
  C   C315      1.0  0.19359  0.89058  0.10933  1.0000
  H   H257      1.0  0.25717  0.90838  0.05610  1.0000
  C   C316      1.0  0.03248  0.53413  0.20401  1.0000
  C   C317      1.0  0.19397  0.66227  0.00118  1.0000
  C   C318      1.0  0.07616  0.54780  0.07835  1.0000
  C   C319      1.0  0.06065  0.53804  0.25549  1.0000
  C   C320      1.0  0.04760  0.50625  0.09524  1.0000
  C   C321      1.0  0.00645  0.65399  0.23884  1.0000
  C   C322      1.0  0.01134  0.48926  0.47616  1.0000
  C   C323      1.0  0.01200  0.72205  0.48064  1.0000
  H   H258      1.0  0.06733  0.84880  0.99243  1.0000
  H   H259      1.0  0.29045  0.49767  0.01459  1.0000
  C   C324      1.0  0.22148  0.58979  0.99580  1.0000
  H   H260      1.0  0.04868  0.50959  0.98368  1.0000
  C   C325      1.0  0.19934  0.96289  0.99763  1.0000
  C   C326      1.0  0.21053  0.91738  0.98385  1.0000
  H   H261      1.0  0.25355  0.95673  0.98555  1.0000
  H   H262      1.0  0.31373  0.76624  0.98678  1.0000
  C   C327      1.0  0.26459  0.98054  0.03737  1.0000
  H   H263      1.0  0.01669  0.48176  0.17943  1.0000
  H   H264      1.0  0.20544  0.58642  0.98580  1.0000
  Fe  Fe23      1.0  0.99723  0.63708  0.42217  1.0000
  H   H265      1.0  0.17935  0.65812  0.98490  1.0000
  C   C328      1.0  0.14155  0.96455  0.98346  1.0000
  Fe  Fe24      1.0  0.18807  0.85308  0.93343  1.0000
  S   S42       1.0  0.22394  0.85118  0.92514  1.0000
  Fe  Fe25      1.0  0.14478  0.86107  0.89022  1.0000
  H   H266      1.0  0.25798  0.91533  0.92150  1.0000
  S   S43       1.0  0.13092  0.86900  0.82449  1.0000
  C   C329      1.0  0.08578  0.68840  0.93772  1.0000
  H   H267      1.0  0.07146  0.80582  0.71597  1.0000
  S   S44       1.0  0.16994  0.88984  0.91352  1.0000
  S   S45       1.0  0.16457  0.82431  0.90451  1.0000
  Fe  Fe26      1.0  0.31476  0.58922  0.95381  1.0000
  S   S46       1.0  0.27951  0.59208  0.93873  1.0000
  Fe  Fe27      1.0  0.02000  0.85380  0.68509  1.0000
  S   S47       1.0  0.03897  0.84887  0.74659  1.0000
  S   S48       1.0  0.02627  0.85598  0.61479  1.0000
  H   H268      1.0  0.26055  0.66734  0.88374  1.0000
  H   H269      1.0  0.03116  0.55314  0.51731  1.0000
  C   C330      1.0  0.08400  0.51840  0.90393  1.0000
  H   H270      1.0  0.04155  0.81177  0.88198  1.0000
  C   C331      1.0  0.05683  0.76907  0.69469  1.0000
  H   H271      1.0  0.23443  0.58495  0.93320  1.0000
  C   C332      1.0  0.10525  0.86309  0.80338  1.0000
  C   C333      1.0  0.08851  0.85359  0.82817  1.0000
  C   C334      1.0  0.06840  0.84970  0.81012  1.0000
  C   C335      1.0  0.06470  0.85500  0.76712  1.0000
  C   C336      1.0  0.08144  0.86437  0.74224  1.0000
  C   C337      1.0  0.10156  0.86841  0.76032  1.0000
  H   H272      1.0  0.09097  0.84953  0.86135  1.0000
  H   H273      1.0  0.05551  0.84282  0.82969  1.0000
  H   H274      1.0  0.07891  0.86858  0.70913  1.0000
  H   H275      1.0  0.11436  0.87579  0.74079  1.0000
  H   H276      1.0  0.03792  0.66311  0.51428  1.0000
  C   C338      1.0  0.28890  0.80285  0.89082  1.0000
  H   H277      1.0  0.10727  0.75768  0.72865  1.0000
  H   H278      1.0  0.05525  0.80306  0.58457  1.0000
  C   C339      1.0  0.20608  0.73664  0.97685  1.0000
  C   C340      1.0  0.28895  0.66421  0.92032  1.0000
  Fe  Fe28      1.0  0.15365  0.88657  0.97632  1.0000
  C   C341      1.0  0.05457  0.90244  0.92494  1.0000
  H   H279      1.0  0.26110  0.77943  0.90294  1.0000
  C   C342      1.0  0.02899  0.50992  0.61985  1.0000
  C   C343      1.0  0.02334  0.78201  0.78368  1.0000
  C   C344      1.0  0.24622  0.51794  0.85479  1.0000
  C   C345      1.0  0.30649  0.77646  0.96027  1.0000
  C   C346      1.0  0.03027  0.74840  0.85310  1.0000
  C   C347      1.0  0.04657  0.76536  0.83879  1.0000
  C   C348      1.0  0.04279  0.78248  0.80433  1.0000
  P   P12       1.0  0.07143  0.76730  0.86660  1.0000
  C   C349      1.0  0.07009  0.79336  0.90614  1.0000
  C   C350      1.0  0.07670  0.73595  0.89349  1.0000
  C   C351      1.0  0.09070  0.71697  0.87640  1.0000
  C   C352      1.0  0.25223  0.53222  0.89072  1.0000
  C   C353      1.0  0.06458  0.53913  0.73887  1.0000
  C   C354      1.0  0.00764  0.94515  0.80619  1.0000
  C   C355      1.0  0.06729  0.73079  0.93294  1.0000
  C   C356      1.0  0.06476  0.80710  0.64953  1.0000
  H   H280      1.0  0.31629  0.48746  0.95194  1.0000
  C   C357      1.0  0.03687  0.70333  0.61958  1.0000
  H   H281      1.0  0.24471  0.52829  0.82483  1.0000
  C   C358      1.0  0.08529  0.79444  0.93827  1.0000
  C   C359      1.0  0.09234  0.77406  0.82900  1.0000
  C   C360      1.0  0.10890  0.79179  0.83864  1.0000
  C   C361      1.0  0.12465  0.79719  0.80878  1.0000
  C   C362      1.0  0.12398  0.78508  0.76909  1.0000
  C   C363      1.0  0.10775  0.76710  0.75943  1.0000
  C   C364      1.0  0.09208  0.76147  0.78936  1.0000
  H   H282      1.0  0.06882  0.69086  0.53487  1.0000
  C   C365      1.0  0.05484  0.52663  0.70451  1.0000
  H   H283      1.0  0.00640  0.69205  0.72191  1.0000
  H   H284      1.0  0.03247  0.73556  0.88030  1.0000
  H   H285      1.0  0.05479  0.79641  0.79344  1.0000
  H   H286      1.0  0.09866  0.72056  0.84670  1.0000
  H   H287      1.0  0.02095  0.97566  0.76548  1.0000
  H   H288      1.0  0.05672  0.74530  0.94713  1.0000
  H   H289      1.0  0.08987  0.67043  0.95536  1.0000
  H   H290      1.0  0.28200  0.81314  0.86406  1.0000
  C   C366      1.0  0.03372  0.89992  0.86113  1.0000
  H   H291      1.0  0.13829  0.96533  0.84043  1.0000
  H   H292      1.0  0.09807  0.77998  0.93939  1.0000
  H   H293      1.0  0.10968  0.80191  0.86875  1.0000
  H   H294      1.0  0.13719  0.81125  0.81619  1.0000
  C   C367      1.0  0.24121  0.85030  0.96917  1.0000
  H   H295      1.0  0.05931  0.53271  0.67292  1.0000
  H   H296      1.0  0.07975  0.74733  0.78161  1.0000
  C   C368      1.0  0.01515  0.90342  0.88480  1.0000
  C   C369      1.0  0.30961  0.80852  0.90291  1.0000
  Fe  Fe29      1.0  0.14836  0.82528  0.96776  1.0000
  C   C370      1.0  0.09516  0.69328  0.89848  1.0000
  C   C371      1.0  0.26315  0.85180  0.96273  1.0000
  C   C372      1.0  0.25402  0.51908  0.92962  1.0000
  C   C373      1.0  0.08422  0.81435  0.96926  1.0000
  C   C374      1.0  0.07185  0.70713  0.95493  1.0000
  C   C375      1.0  0.21329  0.78422  0.97139  1.0000
  P   P13       1.0  0.27047  0.74609  0.97748  1.0000
  C   C376      1.0  0.14035  0.71987  0.94432  1.0000
  H   H297      1.0  0.06264  0.52730  0.53984  1.0000
  C   C377      1.0  0.22765  0.96860  0.85602  1.0000
  C   C378      1.0  0.21953  0.94265  0.86082  1.0000
  C   C379      1.0  0.23066  0.92360  0.88418  1.0000
  C   C380      1.0  0.24992  0.93038  0.90279  1.0000
  C   C381      1.0  0.25873  0.95606  0.89647  1.0000
  C   C382      1.0  0.04818  0.75508  0.66041  1.0000
  C   C383      1.0  0.00891  0.72770  0.68270  1.0000
  H   H298      1.0  0.03310  0.89751  0.82710  1.0000
  C   C384      1.0  0.30017  0.93373  0.92073  1.0000
  C   C385      1.0  0.27699  0.78389  0.91329  1.0000
  C   C386      1.0  0.26511  0.70216  0.92325  1.0000
  C   C387      1.0  0.03441  0.49901  0.75271  1.0000
  C   C388      1.0  0.32147  0.48929  0.91937  1.0000
  C   C389      1.0  0.29923  0.91450  0.88835  1.0000
  H   H299      1.0  0.07635  0.55462  0.73348  1.0000
  H   H300      1.0  0.07069  0.82742  0.64559  1.0000
  C   C390      1.0  0.16521  0.97501  0.87884  1.0000
  C   C391      1.0  0.05737  0.50547  0.95495  1.0000
  H   H301      1.0  0.05308  0.70121  0.81709  1.0000
  C   C392      1.0  0.28554  0.77099  0.94878  1.0000
  S   S49       1.0  0.13656  0.66609  0.96270  1.0000
  H   H302      1.0  0.01913  0.94863  0.83075  1.0000
  H   H303      1.0  0.22429  0.90348  0.88798  1.0000
  C   C393      1.0  0.27060  0.67705  0.90675  1.0000
  C   C394      1.0  0.04409  0.51165  0.78699  1.0000
  S   S50       1.0  0.00732  0.78874  0.55788  1.0000
  H   H304      1.0  0.20456  0.93726  0.84663  1.0000
  H   H305      1.0  0.06766  0.89803  0.86255  1.0000
  C   C395      1.0  0.07736  0.67344  0.73190  1.0000
  C   C396      1.0  0.01532  0.74730  0.50055  1.0000
  H   H306      1.0  0.25551  0.55359  0.88855  1.0000
  H   H307      1.0  0.03994  0.84661  0.93649  1.0000
  H   H308      1.0  0.07017  0.68192  0.66722  1.0000
  H   H309      1.0  0.02131  0.94998  0.49228  1.0000
  H   H310      1.0  0.28964  0.91800  0.86066  1.0000
  C   C397      1.0  0.23807  0.58883  0.96593  1.0000
  H   H311      1.0  0.10659  0.67910  0.88618  1.0000
  H   H312      1.0  0.02815  0.76002  0.48993  1.0000
  H   H313      1.0  0.13604  0.78977  0.74587  1.0000
  S   S51       1.0  0.12646  0.53597  0.96932  1.0000
  C   C398      1.0  0.05017  0.70477  0.70958  1.0000
  C   C399      1.0  0.01146  0.52516  0.60731  1.0000
  H   H314      1.0  0.30514  0.51318  0.82434  1.0000
  C   C400      1.0  0.31533  0.50391  0.84754  1.0000
  C   C401      1.0  0.04562  0.71010  0.75218  1.0000
  H   H315      1.0  0.00228  0.90620  0.94810  1.0000
  H   H316      1.0  0.19498  0.94248  0.93855  1.0000
  C   C402      1.0  0.13807  0.70051  0.97646  1.0000
  H   H317      1.0  0.31431  0.94314  0.98144  1.0000
  C   C403      1.0  0.01208  0.96484  0.50896  1.0000
  H   H318      1.0  0.14219  0.76221  0.92881  1.0000
  C   C404      1.0  0.06517  0.79490  0.68923  1.0000
  H   H319      1.0  0.13822  0.95162  0.95690  1.0000
  P   P14       1.0  0.03620  0.72237  0.66817  1.0000
  C   C405      1.0  0.05363  0.81222  0.90598  1.0000
  S   S52       1.0  0.00498  0.92373  0.56786  1.0000
  H   H320      1.0  0.03359  0.72452  0.76052  1.0000
  C   C406      1.0  0.05480  0.70415  0.59337  1.0000
  C   C407      1.0  0.29673  0.70189  0.96594  1.0000
  C   C408      1.0  0.06798  0.83327  0.96853  1.0000
  C   C409      1.0  0.04764  0.51129  0.59580  1.0000
  C   C410      1.0  0.08036  0.49470  0.88141  1.0000
  H   H321      1.0  0.29300  0.64452  0.90813  1.0000
  H   H322      1.0  0.26932  0.85393  0.93102  1.0000
  C   C411      1.0  0.03084  0.54165  0.54647  1.0000
  C   C412      1.0  0.07259  0.52375  0.94072  1.0000
  C   C413      1.0  0.05264  0.83210  0.93702  1.0000
  C   C414      1.0  0.24715  0.97531  0.87370  1.0000
  H   H323      1.0  0.02299  0.48322  0.75858  1.0000
  C   C415      1.0  0.02027  0.67241  0.57044  1.0000
  C   C416      1.0  0.04792  0.76748  0.62058  1.0000
  H   H324      1.0  0.16678  0.95467  0.89072  1.0000
  H   H325      1.0  0.18211  0.76712  0.97180  1.0000
  C   C417      1.0  0.27766  0.71419  0.95446  1.0000
  H   H326      1.0  0.99863  0.55187  0.56020  1.0000
  C   C418      1.0  0.14063  0.74751  0.95384  1.0000
  C   C419      1.0  0.04848  0.52693  0.55907  1.0000
  H   H327      1.0  0.14173  0.71344  0.91184  1.0000
  C   C420      1.0  0.28234  0.97813  0.96956  1.0000
  C   C421      1.0  0.01968  0.68708  0.60801  1.0000
  C   C422      1.0  0.05923  0.53164  0.78008  1.0000
  P   P15       1.0  0.28458  0.96411  0.91735  1.0000
  H   H328      1.0  0.25101  0.71197  0.91185  1.0000
  C   C423      1.0  0.03963  0.50646  0.71114  1.0000
  C   C424      1.0  0.31844  0.79516  0.93739  1.0000
  C   C425      1.0  0.19887  0.76301  0.97294  1.0000
  H   H329      1.0  0.04077  0.75756  0.59380  1.0000
  P   P16       1.0  0.02775  0.48924  0.66683  1.0000
  C   C426      1.0  0.05335  0.89991  0.88112  1.0000
  H   H330      1.0  0.31888  0.82310  0.88545  1.0000
  C   C427      1.0  0.25002  0.49132  0.93263  1.0000
  H   H331      1.0  0.31631  0.66689  0.96018  1.0000
  H   H332      1.0  0.08973  0.65928  0.72402  1.0000
  C   C428      1.0  0.05523  0.68961  0.55561  1.0000
  C   C429      1.0  0.05616  0.79337  0.61521  1.0000
  H   H333      1.0  0.00560  0.68605  0.62729  1.0000
  H   H334      1.0  0.08990  0.49078  0.85376  1.0000
  C   C430      1.0  0.30208  0.67676  0.94961  1.0000
  H   H335      1.0  0.20822  0.49334  0.97469  1.0000
  S   S53       1.0  0.12720  0.86038  0.95228  1.0000
  H   H336      1.0  0.06682  0.54131  0.80666  1.0000
  C   C431      1.0  0.25917  0.59285  0.97805  1.0000
  C   C432      1.0  0.31292  0.92870  0.95610  1.0000
  C   C433      1.0  0.32412  0.90461  0.95932  1.0000
  C   C434      1.0  0.01642  0.90485  0.92899  1.0000
  H   H337      1.0  0.09633  0.53220  0.89394  1.0000
  H   H338      1.0  0.29313  0.50870  0.89848  1.0000
  H   H339      1.0  0.06141  0.49986  0.60494  1.0000
  Fe  Fe30      1.0  0.00118  0.82374  0.60603  1.0000
  C   C435      1.0  0.03610  0.90462  0.94892  1.0000
  C   C436      1.0  0.01243  0.54094  0.57077  1.0000
  C   C437      1.0  0.05672  0.69706  0.78431  1.0000
  H   H340      1.0  0.05676  0.76040  0.72582  1.0000
  H   H341      1.0  0.00509  0.76293  0.64309  1.0000
  H   H342      1.0  0.21143  0.90025  0.96303  1.0000
  C   C438      1.0  0.01078  0.74805  0.83243  1.0000
  H   H343      1.0  0.06830  0.71637  0.60173  1.0000
  C   C439      1.0  0.00230  0.75626  0.53393  1.0000
  H   H344      1.0  0.00671  0.66059  0.56084  1.0000
  C   C440      1.0  0.06619  0.68634  0.69969  1.0000
  H   H345      1.0  0.02062  0.79532  0.75707  1.0000
  C   C441      1.0  0.07264  0.67879  0.77418  1.0000
  H   H346      1.0  0.08132  0.66878  0.79909  1.0000
  H   H347      1.0  0.21323  0.64353  0.95358  1.0000
  C   C442      1.0  0.00225  0.95760  0.54744  1.0000
  H   H348      1.0  0.01910  0.87544  0.48616  1.0000
  H   H349      1.0  0.03997  0.50588  0.81895  1.0000
  H   H350      1.0  0.12639  0.48826  0.91862  1.0000
  C   C443      1.0  0.12777  0.48206  0.95123  1.0000
  H   H351      1.0  0.06985  0.90238  0.94026  1.0000
  H   H352      1.0  0.07602  0.54176  0.95874  1.0000
  C   C444      1.0  0.20131  0.94123  0.97005  1.0000
  C   C445      1.0  0.30842  0.50118  0.88927  1.0000
  C   C446      1.0  0.31307  0.98042  0.85427  1.0000
  H   H353      1.0  0.32198  0.70784  0.85622  1.0000
  H   H354      1.0  0.20760  0.80465  0.96894  1.0000
  C   C447      1.0  0.03793  0.67384  0.54408  1.0000
  C   C448      1.0  0.24191  0.49043  0.85769  1.0000
  C   C449      1.0  0.23495  0.77911  0.97346  1.0000
  H   H355      1.0  0.25856  0.53077  0.95696  1.0000
  H   H356      1.0  0.24587  0.79582  0.97318  1.0000
  H   H357      1.0  0.19480  0.72025  0.97860  1.0000
  H   H358      1.0  0.99824  0.73498  0.84361  1.0000
  C   C450      1.0  0.31048  0.89043  0.89173  1.0000
  H   H359      1.0  0.99803  0.87113  0.78432  1.0000
  C   C451      1.0  0.00734  0.76480  0.79763  1.0000
  C   C452      1.0  0.22776  0.73150  0.97849  1.0000
  C   C453      1.0  0.32289  0.88547  0.92726  1.0000
  C   C454      1.0  0.24241  0.75263  0.97572  1.0000
  H   H360      1.0  0.23306  0.71107  0.98162  1.0000
  C   C455      1.0  0.05384  0.48158  0.93282  1.0000
  H   H361      1.0  0.01143  0.82645  0.48598  1.0000
  H   H362      1.0  0.03706  0.90616  0.98297  1.0000
  C   C456      1.0  0.99767  0.74930  0.66534  1.0000
  C   C457      1.0  0.00857  0.96081  0.76944  1.0000
  Fe  Fe31      1.0  0.99976  0.88658  0.61230  1.0000
  H   H363      1.0  0.30950  0.87557  0.86689  1.0000
  C   C458      1.0  0.00293  0.86837  0.48538  1.0000
  S   S54       1.0  0.99692  0.81978  0.67636  1.0000
  H   H364      1.0  0.31841  0.95982  0.85299  1.0000
  C   C459      1.0  0.99839  0.70958  0.70966  1.0000
  C   C460      1.0  0.12882  0.50164  0.98311  1.0000
  C   C461      1.0  0.99860  0.84083  0.48551  1.0000
  C   C462      1.0  0.14905  0.98104  0.85055  1.0000
  C   C463      1.0  0.21310  0.65418  0.98338  1.0000
  Fe  Fe32      1.0  0.36038  0.36351  0.03833  1.0000
  C   C464      1.0  0.55340  0.27572  0.27889  1.0000
  C   C465      1.0  0.64779  0.24520  0.99456  1.0000
  Fe  Fe33      1.0  0.35073  0.30334  0.03312  1.0000
  S   S55       1.0  0.66003  0.38312  0.08247  1.0000
  H   H365      1.0  0.51318  0.27652  0.22377  1.0000
  Fe  Fe34      1.0  0.36242  0.32938  0.11817  1.0000
  S   S56       1.0  0.37688  0.32072  0.18362  1.0000
  S   S57       1.0  0.37919  0.32654  0.05537  1.0000
  S   S58       1.0  0.35600  0.02180  0.03424  1.0000
  H   H366      1.0  0.40544  0.37493  0.07991  1.0000
  Fe  Fe35      1.0  0.65029  0.37573  0.01543  1.0000
  C   C466      1.0  0.37038  0.48135  0.23406  1.0000
  Fe  Fe36      1.0  0.64404  0.12357  0.98718  1.0000
  Fe  Fe37      1.0  0.65409  0.31437  0.02467  1.0000
  H   H367      1.0  0.65889  0.30753  0.18561  1.0000
  H   H368      1.0  0.55286  0.28893  0.46566  1.0000
  Fe  Fe38      1.0  0.63827  0.34840  0.09966  1.0000
  S   S59       1.0  0.60995  0.35090  0.14631  1.0000
  C   C467      1.0  0.37780  0.20025  0.02378  1.0000
  S   S60       1.0  0.62718  0.34318  0.03223  1.0000
  C   C468      1.0  0.50724  0.29405  0.20751  1.0000
  S   S61       1.0  0.64460  0.02733  0.03323  1.0000
  C   C469      1.0  0.60776  0.17014  0.13000  1.0000
  H   H369      1.0  0.42281  0.41252  0.04217  1.0000
  Fe  Fe39      1.0  0.48410  0.34633  0.33605  1.0000
  S   S62       1.0  0.50813  0.31293  0.34120  1.0000
  S   S63       1.0  0.46419  0.35159  0.27536  1.0000
  Fe  Fe40      1.0  0.50051  0.37495  0.41769  1.0000
  S   S64       1.0  0.52557  0.34305  0.42648  1.0000
  H   H370      1.0  0.47985  0.29034  0.27501  1.0000
  Fe  Fe41      1.0  0.53144  0.34587  0.35571  1.0000
  S   S65       1.0  0.56568  0.34423  0.33003  1.0000
  Fe  Fe42      1.0  0.50085  0.31161  0.41133  1.0000
  H   H371      1.0  0.33982  0.41734  0.05418  1.0000
  S   S66       1.0  0.50795  0.37953  0.34797  1.0000
  S   S67       1.0  0.47523  0.34337  0.40504  1.0000
  C   C470      1.0  0.39261  0.40000  0.12896  1.0000
  C   C471      1.0  0.63780  0.19130  0.01451  1.0000
  C   C472      1.0  0.59811  0.34966  0.19799  1.0000
  C   C473      1.0  0.57639  0.35513  0.20258  1.0000
  C   C474      1.0  0.56631  0.35410  0.24258  1.0000
  C   C475      1.0  0.57770  0.34714  0.27877  1.0000
  C   C476      1.0  0.59945  0.34194  0.27426  1.0000
  C   C477      1.0  0.60958  0.34334  0.23438  1.0000
  H   H372      1.0  0.56734  0.36057  0.17502  1.0000
  H   H373      1.0  0.54978  0.35901  0.24558  1.0000
  H   H374      1.0  0.60858  0.33682  0.30189  1.0000
  H   H375      1.0  0.62631  0.33970  0.23192  1.0000
  H   H376      1.0  0.33738  0.34769  0.22177  1.0000
  H   H377      1.0  0.53279  0.21377  0.26052  1.0000
  C   C478      1.0  0.63617  0.21154  0.04525  1.0000
  C   C479      1.0  0.64142  0.23837  0.03546  1.0000
  H   H378      1.0  0.63121  0.20644  0.07691  1.0000
  H   H379      1.0  0.64058  0.25380  0.05937  1.0000
  C   C480      1.0  0.40443  0.39509  0.09248  1.0000
  H   H380      1.0  0.52396  0.17222  0.17706  1.0000
  H   H381      1.0  0.62490  0.21441  0.20375  1.0000
  H   H382      1.0  0.60766  0.25621  0.09442  1.0000
  C   C481      1.0  0.63995  0.44890  0.01589  1.0000
  C   C482      1.0  0.40144  0.44731  0.12413  1.0000
  H   H383      1.0  0.40100  0.46757  0.13641  1.0000
  C   C483      1.0  0.40104  0.33024  0.20887  1.0000
  C   C484      1.0  0.40473  0.32186  0.25074  1.0000
  C   C485      1.0  0.42381  0.32817  0.27168  1.0000
  C   C486      1.0  0.43958  0.34299  0.25103  1.0000
  C   C487      1.0  0.43580  0.35150  0.20926  1.0000
  C   C488      1.0  0.41680  0.34508  0.18825  1.0000
  H   H384      1.0  0.39278  0.31029  0.26715  1.0000
  H   H385      1.0  0.42626  0.32163  0.30384  1.0000
  H   H386      1.0  0.44773  0.36316  0.19294  1.0000
  H   H387      1.0  0.41454  0.35130  0.15592  1.0000
  H   H388      1.0  0.53026  0.21270  0.13269  1.0000
  C   C489      1.0  0.37091  0.22714  0.02222  1.0000
  C   C490      1.0  0.57854  0.44124  0.98913  1.0000
  C   C491      1.0  0.43943  0.24956  0.08271  1.0000
  H   H389      1.0  0.41494  0.23576  0.29380  1.0000
  C   C492      1.0  0.36864  0.47989  0.00823  1.0000
  C   C493      1.0  0.46597  0.27788  0.27862  1.0000
  C   C494      1.0  0.63671  0.47631  0.02414  1.0000
  C   C495      1.0  0.34797  0.43463  0.04143  1.0000
  C   C496      1.0  0.51388  0.18967  0.18032  1.0000
  C   C497      1.0  0.36037  0.98741  0.02404  1.0000
  H   H390      1.0  0.48588  0.35864  0.15425  1.0000
  C   C498      1.0  0.42784  0.41057  0.26382  1.0000
  H   H391      1.0  0.58548  0.31565  0.47544  1.0000
  H   H392      1.0  0.53496  0.31737  0.22100  1.0000
  C   C499      1.0  0.51205  0.34047  0.18653  1.0000
  C   C500      1.0  0.41511  0.41942  0.23064  1.0000
  C   C501      1.0  0.56884  0.27630  0.24730  1.0000
  C   C502      1.0  0.36064  0.48005  0.16021  1.0000
  C   C503      1.0  0.36591  0.43113  0.01628  1.0000
  H   H393      1.0  0.35789  0.15104  0.08023  1.0000
  C   C504      1.0  0.49320  0.00892  0.23810  1.0000
  C   C505      1.0  0.35070  0.21115  0.14922  1.0000
  C   C506      1.0  0.61508  0.20631  0.17899  1.0000
  C   C507      1.0  0.42103  0.26464  0.08765  1.0000
  H   H394      1.0  0.62719  0.28988  0.15104  1.0000
  H   H395      1.0  0.46873  0.23744  0.11007  1.0000
  H   H396      1.0  0.42888  0.39742  0.32846  1.0000
  C   C508      1.0  0.48430  0.21192  0.21397  1.0000
  S   S68       1.0  0.38046  0.14811  0.99589  1.0000
  C   C509      1.0  0.33381  0.42030  0.17745  1.0000
  H   H397      1.0  0.57892  0.29383  0.24440  1.0000
  H   H398      1.0  0.33264  0.15164  0.01679  1.0000
  C   C510      1.0  0.35297  0.13116  0.09030  1.0000
  H   H399      1.0  0.37650  0.47188  0.26220  1.0000
  H   H400      1.0  0.57415  0.32298  0.04196  1.0000
  C   C511      1.0  0.63010  0.28453  0.18361  1.0000
  C   C512      1.0  0.33251  0.23090  0.08981  1.0000
  C   C513      1.0  0.64040  0.99388  0.01661  1.0000
  H   H401      1.0  0.38380  0.11453  0.07917  1.0000
  H   H402      1.0  0.63322  0.16978  0.17469  1.0000
  H   H403      1.0  0.38856  0.19399  0.04831  1.0000
  C   C514      1.0  0.59811  0.22112  0.16269  1.0000
  C   C515      1.0  0.49200  0.34042  0.16834  1.0000
  H   H404      1.0  0.51848  0.99383  0.19932  1.0000
  H   H405      1.0  0.64105  0.26850  0.30142  1.0000
  C   C516      1.0  0.61986  0.18091  0.16266  1.0000
  C   C517      1.0  0.64822  0.29459  0.20312  1.0000
  H   H406      1.0  0.46588  0.01824  0.27596  1.0000
  C   C518      1.0  0.43773  0.26156  0.32359  1.0000
  C   C519      1.0  0.37641  0.45388  0.00025  1.0000
  S   S69       1.0  0.49329  0.27115  0.44708  1.0000
  C   C520      1.0  0.56337  0.45987  0.00203  1.0000
  H   H407      1.0  0.44196  0.23829  0.05390  1.0000
  S   S70       1.0  0.33873  0.09017  0.00060  1.0000
  H   H408      1.0  0.62123  0.05373  0.20770  1.0000
  H   H409      1.0  0.43005  0.26095  0.35418  1.0000
  H   H410      1.0  0.50736  0.25246  0.13997  1.0000
  C   C521      1.0  0.36782  0.11042  0.08964  1.0000
  H   H411      1.0  0.42237  0.42308  0.20021  1.0000
  C   C522      1.0  0.34027  0.18675  0.14214  1.0000
  S   S71       1.0  0.37514  0.39866  0.00331  1.0000
  C   C523      1.0  0.39063  0.42623  0.14455  1.0000
  H   H412      1.0  0.46249  0.28808  0.34436  1.0000
  C   C524      1.0  0.49933  0.24214  0.47991  1.0000
  C   C525      1.0  0.41438  0.41630  0.07134  1.0000
  H   H413      1.0  0.55555  0.32962  0.11011  1.0000
  C   C526      1.0  0.55827  0.23176  0.22486  1.0000
  H   H414      1.0  0.52540  0.45232  0.46262  1.0000
  H   H415      1.0  0.33621  0.05828  0.11858  1.0000
  P   P17       1.0  0.37643  0.43204  0.19316  1.0000
  C   C527      1.0  0.59587  0.27172  0.09796  1.0000
  C   C528      1.0  0.45125  0.26355  0.15228  1.0000
  H   H416      1.0  0.37636  0.24148  0.04533  1.0000
  P   P18       1.0  0.47086  0.26401  0.19359  1.0000
  C   C529      1.0  0.45772  0.26347  0.24436  1.0000
  C   C530      1.0  0.48772  0.23486  0.18890  1.0000
  H   H417      1.0  0.50093  0.02795  0.24429  1.0000
  C   C531      1.0  0.63809  0.27277  0.26843  1.0000
  H   H418      1.0  0.58178  0.17647  0.08779  1.0000
  H   H419      1.0  0.38508  0.38328  0.14496  1.0000
  C   C532      1.0  0.50443  0.23497  0.15963  1.0000
  C   C533      1.0  0.43924  0.24822  0.25012  1.0000
  H   H420      1.0  0.49462  0.17182  0.22914  1.0000
  C   C534      1.0  0.37089  0.18146  0.99374  1.0000
  H   H421      1.0  0.36882  0.37658  0.22165  1.0000
  S   S72       1.0  0.33354  0.34022  0.01047  1.0000
  C   C535      1.0  0.48707  0.29382  0.18941  1.0000
  C   C536      1.0  0.33620  0.36816  0.21022  1.0000
  C   C537      1.0  0.47952  0.31718  0.16974  1.0000
  H   H422      1.0  0.52858  0.25278  0.30846  1.0000
  C   C538      1.0  0.38454  0.41747  0.27671  1.0000
  C   C539      1.0  0.43272  0.27862  0.15691  1.0000
  C   C540      1.0  0.36179  0.08422  0.10021  1.0000
  C   C541      1.0  0.57147  0.25430  0.22011  1.0000
  C   C542      1.0  0.35708  0.23542  0.99051  1.0000
  H   H423      1.0  0.43253  0.23700  0.22416  1.0000
  C   C543      1.0  0.42927  0.24736  0.28957  1.0000
  H   H424      1.0  0.44457  0.40732  0.25874  1.0000
  C   C544      1.0  0.45457  0.24910  0.11477  1.0000
  H   H425      1.0  0.60015  0.28604  0.03429  1.0000
  H   H426      1.0  0.63952  0.43446  0.04145  1.0000
  H   H427      1.0  0.46386  0.31783  0.15641  1.0000
  C   C545      1.0  0.41769  0.27914  0.12474  1.0000
  H   H428      1.0  0.34350  0.16973  0.16252  1.0000
  C   C546      1.0  0.60938  0.01647  0.23358  1.0000
  C   C547      1.0  0.58582  0.20994  0.13030  1.0000
  C   C548      1.0  0.61576  0.26855  0.20650  1.0000
  C   C549      1.0  0.62003  0.26251  0.24897  1.0000
  C   C550      1.0  0.54280  0.23127  0.25653  1.0000
  H   H429      1.0  0.39047  0.40400  0.34034  1.0000
  C   C551      1.0  0.50307  0.98968  0.21275  1.0000
  S   S73       1.0  0.34901  0.26928  0.98514  1.0000
  C   C552      1.0  0.35304  0.41100  0.19391  1.0000
  C   C553      1.0  0.39330  0.42273  0.23673  1.0000
  C   C554      1.0  0.62350  0.02138  0.16290  1.0000
  S   S74       1.0  0.49281  0.40904  0.46687  1.0000
  H   H430      1.0  0.42994  0.29008  0.18540  1.0000
  H   H431      1.0  0.60543  0.02513  0.26394  1.0000
  C   C555      1.0  0.41295  0.44240  0.08724  1.0000
  C   C556      1.0  0.45607  0.27678  0.31809  1.0000
  C   C557      1.0  0.51966  0.31724  0.20603  1.0000
  C   C558      1.0  0.58560  0.27550  0.13686  1.0000
  C   C559      1.0  0.57075  0.29623  0.14077  1.0000
  C   C560      1.0  0.56640  0.31300  0.10640  1.0000
  C   C561      1.0  0.57691  0.30929  0.06800  1.0000
  C   C562      1.0  0.59158  0.28855  0.06372  1.0000
  H   H432      1.0  0.57280  0.22111  0.11698  1.0000
  C   C563      1.0  0.39734  0.40854  0.30979  1.0000
  C   C564      1.0  0.35408  0.38470  0.21008  1.0000
  C   C565      1.0  0.47345  0.00346  0.25591  1.0000
  C   C566      1.0  0.36859  0.46695  0.19615  1.0000
  H   H433      1.0  0.60933  0.25005  0.26722  1.0000
  H   H434      1.0  0.47163  0.21127  0.23691  1.0000
  S   S75       1.0  0.34516  0.36760  0.10193  1.0000
  H   H435      1.0  0.42057  0.45887  0.07074  1.0000
  C   C567      1.0  0.65217  0.28883  0.24552  1.0000
  H   H436      1.0  0.40939  0.26524  0.06268  1.0000
  C   C568      1.0  0.51743  0.21245  0.15536  1.0000
  H   H437      1.0  0.36776  0.41974  0.28205  1.0000
  C   C569      1.0  0.49735  0.18944  0.20964  1.0000
  H   H438      1.0  0.56304  0.30021  0.17052  1.0000
  H   H439      1.0  0.35914  0.46946  0.13049  1.0000
  C   C570      1.0  0.34094  0.07880  0.11176  1.0000
  C   C571      1.0  0.59074  0.18462  0.11388  1.0000
  H   H440      1.0  0.37307  0.06792  0.09800  1.0000
  H   H441      1.0  0.52150  0.35867  0.18635  1.0000
  H   H442      1.0  0.35506  0.25206  0.12826  1.0000
  H   H443      1.0  0.56008  0.21439  0.20472  1.0000
  C   C572      1.0  0.34683  0.23322  0.12305  1.0000
  C   C573      1.0  0.54042  0.25319  0.28365  1.0000
  P   P19       1.0  0.59257  0.25468  0.18152  1.0000
  H   H444      1.0  0.55164  0.29272  0.29999  1.0000
  C   C574      1.0  0.41896  0.40493  0.30324  1.0000
  H   H445      1.0  0.61193  0.15086  0.11635  1.0000
  H   H446      1.0  0.36191  0.21293  0.17479  1.0000
  S   S76       1.0  0.63140  0.15770  0.02773  1.0000
  H   H447      1.0  0.40347  0.29093  0.12852  1.0000
  C   C575      1.0  0.34022  0.46058  0.04939  1.0000
  H   H448      1.0  0.58302  0.42483  0.00981  1.0000
  S   S77       1.0  0.33494  0.30354  0.09680  1.0000
  H   H449      1.0  0.55602  0.45784  0.03281  1.0000
  C   C576      1.0  0.61984  0.99409  0.15554  1.0000
  C   C577      1.0  0.33192  0.12595  0.10189  1.0000
  H   H450      1.0  0.33247  0.44012  0.16383  1.0000
  C   C578      1.0  0.61829  0.03259  0.20195  1.0000
  H   H451      1.0  0.62402  0.98580  0.12511  1.0000
  H   H452      1.0  0.63046  0.03374  0.13818  1.0000
  Fe  Fe43      1.0  0.64905  0.06251  0.98843  1.0000
  C   C579      1.0  0.60570  0.98911  0.22623  1.0000
  H   H453      1.0  0.46722  0.22781  0.48067  1.0000
  C   C580      1.0  0.57232  0.45380  0.52495  1.0000
  C   C581      1.0  0.59241  0.25231  0.91101  1.0000
  C   C582      1.0  0.51249  0.30996  0.61901  1.0000
  C   C583      1.0  0.64305  0.44020  0.97445  1.0000
  Fe  Fe44      1.0  0.36350  0.07347  0.89141  1.0000
  S   S78       1.0  0.37477  0.06124  0.82529  1.0000
  C   C584      1.0  0.36859  0.39243  0.88637  1.0000
  H   H454      1.0  0.56074  0.15024  0.83643  1.0000
  C   C585      1.0  0.48113  0.30647  0.53995  1.0000
  C   C586      1.0  0.48303  0.98498  0.52735  1.0000
  H   H455      1.0  0.64057  0.26733  0.86984  1.0000
  Fe  Fe45      1.0  0.64373  0.09187  0.90452  1.0000
  S   S79       1.0  0.63406  0.09066  0.83490  1.0000
  H   H456      1.0  0.36526  0.16401  0.84215  1.0000
  Fe  Fe46      1.0  0.47813  0.09688  0.66874  1.0000
  S   S80       1.0  0.50343  0.12866  0.67215  1.0000
  S   S81       1.0  0.45378  0.10706  0.72065  1.0000
  Fe  Fe47      1.0  0.50442  0.06308  0.60485  1.0000
  S   S82       1.0  0.53147  0.09333  0.60729  1.0000
  S   S83       1.0  0.50979  0.02214  0.56911  1.0000
  Fe  Fe48      1.0  0.52645  0.09467  0.67805  1.0000
  S   S84       1.0  0.54488  0.09443  0.74070  1.0000
  Fe  Fe49      1.0  0.50652  0.12612  0.60141  1.0000
  S   S85       1.0  0.51361  0.16626  0.56427  1.0000
  S   S86       1.0  0.50116  0.06292  0.67610  1.0000
  S   S87       1.0  0.47953  0.09594  0.59679  1.0000
  C   C587      1.0  0.59769  0.16377  0.91151  1.0000
  H   H457      1.0  0.54718  0.12139  0.89304  1.0000
  C   C588      1.0  0.61472  0.02460  0.78359  1.0000
  C   C589      1.0  0.36888  0.15345  0.81316  1.0000
  C   C590      1.0  0.60238  0.21938  0.85791  1.0000
  H   H458      1.0  0.37085  0.21258  0.78613  1.0000
  H   H459      1.0  0.42235  0.02348  0.79869  1.0000
  C   C591      1.0  0.52763  0.27063  0.65303  1.0000
  H   H460      1.0  0.50714  0.08836  0.78826  1.0000
  C   C592      1.0  0.62301  0.00591  0.85224  1.0000
  S   S88       1.0  0.34578  0.11195  0.90382  1.0000
  C   C593      1.0  0.43503  0.22655  0.71988  1.0000
  C   C594      1.0  0.50746  0.19542  0.53187  1.0000
  C   C595      1.0  0.48704  0.20107  0.51722  1.0000
  H   H461      1.0  0.64769  0.47282  0.67652  1.0000
  H   H462      1.0  0.50773  0.25031  0.69826  1.0000
  H   H463      1.0  0.35075  0.24939  0.81971  1.0000
  H   H464      1.0  0.47427  0.18757  0.52538  1.0000
  C   C596      1.0  0.60917  0.09257  0.80917  1.0000
  C   C597      1.0  0.59019  0.09226  0.83161  1.0000
  C   C598      1.0  0.57078  0.09269  0.80995  1.0000
  C   C599      1.0  0.57003  0.09386  0.76560  1.0000
  C   C600      1.0  0.58904  0.09434  0.74303  1.0000
  C   C601      1.0  0.60847  0.09376  0.76476  1.0000
  H   H465      1.0  0.59053  0.09157  0.86566  1.0000
  H   H466      1.0  0.55620  0.09202  0.82770  1.0000
  H   H467      1.0  0.58878  0.09516  0.70892  1.0000
  H   H468      1.0  0.62307  0.09408  0.74702  1.0000
  C   C602      1.0  0.48277  0.09104  0.83555  1.0000
  C   C603      1.0  0.47225  0.03827  0.81219  1.0000
  H   H469      1.0  0.60362  0.02965  0.75901  1.0000
  C   C604      1.0  0.63584  0.03214  0.77842  1.0000
  H   H470      1.0  0.54465  0.03692  0.70194  1.0000
  H   H471      1.0  0.56647  0.41131  0.53087  1.0000
  C   C605      1.0  0.48307  0.22409  0.49165  1.0000
  C   C606      1.0  0.39752  0.07290  0.79746  1.0000
  C   C607      1.0  0.40130  0.06389  0.75598  1.0000
  C   C608      1.0  0.41889  0.07319  0.73253  1.0000
  C   C609      1.0  0.43288  0.09180  0.75020  1.0000
  C   C610      1.0  0.42918  0.10051  0.79185  1.0000
  C   C611      1.0  0.41180  0.09093  0.81546  1.0000
  H   H472      1.0  0.39039  0.04990  0.74167  1.0000
  H   H473      1.0  0.42118  0.06663  0.70033  1.0000
  H   H474      1.0  0.43982  0.11482  0.80605  1.0000
  H   H475      1.0  0.40925  0.09771  0.84740  1.0000
  C   C612      1.0  0.54484  0.02707  0.85463  1.0000
  C   C613      1.0  0.65049  0.02675  0.81018  1.0000
  P   P20       1.0  0.51335  0.33566  0.57858  1.0000
  C   C614      1.0  0.35964  0.39572  0.81239  1.0000
  H   H476      1.0  0.56021  0.03969  0.77270  1.0000
  H   H477      1.0  0.48695  0.99158  0.87454  1.0000
  H   H478      1.0  0.43955  0.46243  0.93759  1.0000
  H   H479      1.0  0.44794  0.99972  0.61974  1.0000
  H   H480      1.0  0.51772  0.44181  0.64609  1.0000
  H   H481      1.0  0.44770  0.04177  0.85992  1.0000
  C   C615      1.0  0.50368  0.99194  0.53913  1.0000
  H   H482      1.0  0.57336  0.21828  0.89415  1.0000
  H   H483      1.0  0.56900  0.41144  0.60910  1.0000
  S   S89       1.0  0.33831  0.04756  0.92195  1.0000
  C   C616      1.0  0.56574  0.05574  0.91778  1.0000
  H   H484      1.0  0.33508  0.99332  0.80614  1.0000
  C   C617      1.0  0.51364  0.39967  0.66049  1.0000
  H   H485      1.0  0.37800  0.99358  0.96666  1.0000
  H   H486      1.0  0.39209  0.24716  0.92658  1.0000
  H   H487      1.0  0.53640  0.01594  0.83068  1.0000
  C   C618      1.0  0.52935  0.29197  0.62435  1.0000
  C   C619      1.0  0.57187  0.31933  0.49542  1.0000
  H   H488      1.0  0.50976  0.35697  0.66552  1.0000
  C   C620      1.0  0.56910  0.14977  0.86607  1.0000
  H   H489      1.0  0.59390  0.03639  0.89621  1.0000
  H   H490      1.0  0.46074  0.04656  0.72993  1.0000
  C   C621      1.0  0.35707  0.18975  0.96208  1.0000
  C   C622      1.0  0.55150  0.99479  0.69428  1.0000
  C   C623      1.0  0.56674  0.02403  0.85953  1.0000
  H   H491      1.0  0.41416  0.12447  0.94102  1.0000
  H   H492      1.0  0.39457  0.14539  0.88309  1.0000
  C   C624      1.0  0.56883  0.99762  0.77577  1.0000
  H   H493      1.0  0.35825  0.35898  0.84869  1.0000
  H   H494      1.0  0.47174  0.15978  0.89496  1.0000
  C   C625      1.0  0.38782  0.23987  0.89552  1.0000
  C   C626      1.0  0.58839  0.44414  0.94991  1.0000
  C   C627      1.0  0.48155  0.44937  0.52409  1.0000
  H   H495      1.0  0.43291  0.24623  0.70585  1.0000
  H   H496      1.0  0.45669  0.28348  0.50975  1.0000
  C   C628      1.0  0.37309  0.41995  0.88713  1.0000
  H   H497      1.0  0.61833  0.99587  0.88114  1.0000
  H   H498      1.0  0.54047  0.25640  0.65611  1.0000
  C   C629      1.0  0.49447  0.07788  0.80446  1.0000
  C   C630      1.0  0.54403  0.05900  0.91221  1.0000
  C   C631      1.0  0.45407  0.02561  0.67270  1.0000
  C   C632      1.0  0.56121  0.13334  0.89839  1.0000
  C   C633      1.0  0.45826  0.02700  0.71595  1.0000
  C   C634      1.0  0.39709  0.47092  0.77630  1.0000
  H   H499      1.0  0.57545  0.45398  0.64719  1.0000
  C   C635      1.0  0.60816  0.01130  0.82051  1.0000
  C   C636      1.0  0.42327  0.00582  0.81864  1.0000
  C   C637      1.0  0.55483  0.34440  0.55137  1.0000
  H   H500      1.0  0.65020  0.18368  0.71710  1.0000
  C   C638      1.0  0.44247  0.99221  0.82338  1.0000
  H   H501      1.0  0.64563  0.45241  0.90929  1.0000
  C   C639      1.0  0.34153  0.48040  0.90784  1.0000
  H   H502      1.0  0.48352  0.37500  0.54022  1.0000
  C   C640      1.0  0.44017  0.17552  0.75519  1.0000
  H   H503      1.0  0.56565  0.11911  0.96206  1.0000
  C   C641      1.0  0.51501  0.36919  0.60058  1.0000
  H   H504      1.0  0.51678  0.04725  0.87612  1.0000
  H   H505      1.0  0.55586  0.35961  0.57561  1.0000
  H   H506      1.0  0.52238  0.43434  0.56945  1.0000
  C   C642      1.0  0.42206  0.16412  0.85434  1.0000
  H   H507      1.0  0.43729  0.32367  0.48458  1.0000
  C   C643      1.0  0.37148  0.43547  0.85020  1.0000
  C   C644      1.0  0.35863  0.12065  0.76064  1.0000
  H   H508      1.0  0.57395  0.06685  0.94212  1.0000
  C   C645      1.0  0.45494  0.15640  0.89186  1.0000
  S   S90       1.0  0.38289  0.07561  0.95085  1.0000
  H   H509      1.0  0.35396  0.38642  0.78369  1.0000
  C   C646      1.0  0.45285  0.18362  0.72129  1.0000
  C   C647      1.0  0.36410  0.42329  0.81311  1.0000
  H   H510      1.0  0.53957  0.20970  0.53105  1.0000
  C   C648      1.0  0.51893  0.39131  0.57392  1.0000
  C   C649      1.0  0.39228  0.14349  0.75468  1.0000
  H   H511      1.0  0.48949  0.28856  0.54982  1.0000
  C   C650      1.0  0.57259  0.33931  0.52631  1.0000
  C   C651      1.0  0.51716  0.42155  0.63360  1.0000
  C   C652      1.0  0.35420  0.13501  0.79741  1.0000
  H   H512      1.0  0.44220  0.15551  0.76791  1.0000
  H   H513      1.0  0.46436  0.16975  0.70826  1.0000
  H   H514      1.0  0.36133  0.26660  0.89011  1.0000
  H   H515      1.0  0.52156  0.29764  0.50949  1.0000
  C   C653      1.0  0.64609  0.17689  0.74859  1.0000
  H   H516      1.0  0.58146  0.25938  0.93481  1.0000
  H   H517      1.0  0.46816  0.43654  0.53087  1.0000
  S   S91       1.0  0.64548  0.40579  0.96255  1.0000
  C   C654      1.0  0.55967  0.17079  0.73090  1.0000
  C   C655      1.0  0.54747  0.19397  0.72660  1.0000
  C   C656      1.0  0.55056  0.21567  0.75398  1.0000
  C   C657      1.0  0.56577  0.21412  0.78587  1.0000
  C   C658      1.0  0.57808  0.19087  0.79026  1.0000
  C   C659      1.0  0.57501  0.16930  0.76236  1.0000
  P   P21       1.0  0.59733  0.18768  0.83187  1.0000
  C   C660      1.0  0.62155  0.17612  0.80785  1.0000
  C   C661      1.0  0.51256  0.37356  0.64412  1.0000
  C   C662      1.0  0.39327  0.20892  0.83721  1.0000
  C   C663      1.0  0.42256  0.13642  0.91769  1.0000
  C   C664      1.0  0.42458  0.19267  0.77149  1.0000
  H   H518      1.0  0.45231  0.18162  0.83731  1.0000
  C   C665      1.0  0.57160  0.13200  0.93711  1.0000
  C   C666      1.0  0.62721  0.18526  0.76733  1.0000
  C   C667      1.0  0.37579  0.22016  0.81658  1.0000
  C   C668      1.0  0.51981  0.41735  0.59037  1.0000
  C   C669      1.0  0.65414  0.15062  0.81071  1.0000
  C   C670      1.0  0.63520  0.15880  0.82945  1.0000
  H   H519      1.0  0.40696  0.14581  0.73771  1.0000
  H   H520      1.0  0.37736  0.42908  0.91688  1.0000
  H   H521      1.0  0.53533  0.07264  0.93233  1.0000
  C   C671      1.0  0.64334  0.45910  0.94144  1.0000
  H   H522      1.0  0.58425  0.15109  0.76543  1.0000
  H   H523      1.0  0.64588  0.18274  0.95004  1.0000
  C   C672      1.0  0.55130  0.01904  0.71635  1.0000
  H   H524      1.0  0.53559  0.19496  0.70207  1.0000
  H   H525      1.0  0.54110  0.23363  0.75062  1.0000
  H   H526      1.0  0.56786  0.23103  0.80686  1.0000
  C   C673      1.0  0.39924  0.21900  0.87683  1.0000
  H   H527      1.0  0.55711  0.15376  0.71008  1.0000
  P   P22       1.0  0.40728  0.18111  0.81352  1.0000
  C   C674      1.0  0.53601  0.32996  0.54497  1.0000
  H   H528      1.0  0.61516  0.28371  0.92297  1.0000
  H   H529      1.0  0.40013  0.44988  0.78243  1.0000
  H   H530      1.0  0.61703  0.19881  0.75010  1.0000
  C   C675      1.0  0.36440  0.24102  0.83543  1.0000
  H   H531      1.0  0.52083  0.38850  0.54013  1.0000
  H   H532      1.0  0.58690  0.35088  0.53067  1.0000
  H   H533      1.0  0.63115  0.15099  0.86029  1.0000
  H   H534      1.0  0.61166  0.17571  0.91744  1.0000
  C   C676      1.0  0.51971  0.23655  0.49476  1.0000
  H   H535      1.0  0.41245  0.21057  0.89380  1.0000
  C   C677      1.0  0.57707  0.03835  0.89155  1.0000
  H   H536      1.0  0.45989  0.21512  0.67675  1.0000
  H   H537      1.0  0.48635  0.11174  0.84330  1.0000
  H   H538      1.0  0.45679  0.08801  0.87935  1.0000
  C   C678      1.0  0.46086  0.05141  0.84418  1.0000
  C   C679      1.0  0.38814  0.15777  0.79206  1.0000
  H   H539      1.0  0.36985  0.38066  0.91515  1.0000
  C   C680      1.0  0.45932  0.00342  0.74027  1.0000
  C   C681      1.0  0.56007  0.02052  0.75667  1.0000
  C   C682      1.0  0.49405  0.30642  0.64311  1.0000
  C   C683      1.0  0.49245  0.28515  0.67193  1.0000
  C   C684      1.0  0.50918  0.26717  0.67671  1.0000
  C   C685      1.0  0.57127  0.42995  0.59156  1.0000
  S   S92       1.0  0.65329  0.27873  0.97993  1.0000
  C   C686      1.0  0.46234  0.30345  0.51746  1.0000
  C   C687      1.0  0.45930  0.35174  0.51169  1.0000
  C   C688      1.0  0.45148  0.32606  0.50315  1.0000
  C   C689      1.0  0.44429  0.14032  0.92125  1.0000
  C   C690      1.0  0.37039  0.25083  0.87493  1.0000
  C   C691      1.0  0.36197  0.38027  0.84899  1.0000
  C   C692      1.0  0.44385  0.16856  0.85886  1.0000
  H   H540      1.0  0.48074  0.31977  0.63882  1.0000
  H   H541      1.0  0.47805  0.28230  0.68993  1.0000
  C   C693      1.0  0.53359  0.04468  0.88063  1.0000
  H   H542      1.0  0.63297  0.22648  0.82874  1.0000
  H   H543      1.0  0.51156  0.40297  0.69404  1.0000
  C   C694      1.0  0.64944  0.22497  0.96391  1.0000
  H   H544      1.0  0.65534  0.00985  0.87203  1.0000
  C   C695      1.0  0.61134  0.26610  0.90428  1.0000
  H   H545      1.0  0.49857  0.04172  0.76863  1.0000
  C   C696      1.0  0.58757  0.16495  0.87221  1.0000
  C   C697      1.0  0.62131  0.23355  0.85106  1.0000
  H   H546      1.0  0.41037  0.23211  0.76541  1.0000
  S   S93       1.0  0.62356  0.08967  0.96325  1.0000
  C   C698      1.0  0.48943  0.05149  0.79316  1.0000
  C   C699      1.0  0.46614  0.07769  0.85577  1.0000
  S   S94       1.0  0.66252  0.12762  0.92700  1.0000
  C   C700      1.0  0.51369  0.45814  0.48575  1.0000
  C   C701      1.0  0.48923  0.33222  0.54850  1.0000
  H   H547      1.0  0.35213  0.17565  0.93815  1.0000
  C   C702      1.0  0.58976  0.14731  0.94368  1.0000
  C   C703      1.0  0.37758  0.12505  0.73914  1.0000
  C   C704      1.0  0.56984  0.42984  0.54754  1.0000
  H   H548      1.0  0.45364  0.04389  0.65399  1.0000
  C   C705      1.0  0.41146  0.14837  0.88459  1.0000
  C   C706      1.0  0.42221  0.21840  0.75370  1.0000
  C   C707      1.0  0.45026  0.20911  0.70354  1.0000
  C   C708      1.0  0.35015  0.21657  0.96059  1.0000
  C   C709      1.0  0.48879  0.98477  0.80720  1.0000
  C   C710      1.0  0.49552  0.98187  0.84915  1.0000
  H   H549      1.0  0.33969  0.22289  0.93560  1.0000
  C   C711      1.0  0.58790  0.22907  0.88790  1.0000
  H   H550      1.0  0.54362  0.29386  0.60574  1.0000
  C   C712      1.0  0.47799  0.35484  0.53443  1.0000
  C   C713      1.0  0.53567  0.30941  0.51472  1.0000
  P   P23       1.0  0.46561  0.00451  0.79586  1.0000
  C   C714      1.0  0.57500  0.45405  0.61301  1.0000
  H   H551      1.0  0.47176  0.48019  0.56850  1.0000
  H   H552      1.0  0.59774  0.14640  0.97378  1.0000
  H   H553      1.0  0.60048  0.42996  0.94038  1.0000
  H   H554      1.0  0.41309  0.44653  0.88634  1.0000
  C   C715      1.0  0.57633  0.47788  0.54625  1.0000
  C   C716      1.0  0.48359  0.47427  0.54570  1.0000
  C   C717      1.0  0.65953  0.15951  0.77026  1.0000
  C   C718      1.0  0.49644  0.44100  0.49355  1.0000
  C   C719      1.0  0.52368  0.21359  0.52037  1.0000
  H   H555      1.0  0.45276  0.13116  0.94718  1.0000
  H   H556      1.0  0.45123  0.36936  0.49973  1.0000
  H   H557      1.0  0.65460  0.23009  0.93232  1.0000
  H   H558      1.0  0.59181  0.46804  0.89422  1.0000
  C   C720      1.0  0.55351  0.30420  0.48998  1.0000
  P   P24       1.0  0.58113  0.00041  0.82708  1.0000
  H   H559      1.0  0.64071  0.04308  0.75043  1.0000
  H   H560      1.0  0.38123  0.11353  0.71106  1.0000
  H   H561      1.0  0.62950  0.00377  0.95435  1.0000
  C   C721      1.0  0.62571  0.25682  0.87418  1.0000
  C   C722      1.0  0.64407  0.01365  0.84710  1.0000
  C   C723      1.0  0.58335  0.46586  0.92374  1.0000
  H   H562      1.0  0.41558  0.47119  0.71896  1.0000
  H   H563      1.0  0.57080  0.45379  0.49086  1.0000
  H   H564      1.0  0.33955  0.13140  0.81417  1.0000
  C   C724      1.0  0.41105  0.46594  0.90113  1.0000
  H   H565      1.0  0.36137  0.43518  0.78498  1.0000
  H   H566      1.0  0.47015  0.99800  0.53631  1.0000
  H   H567      1.0  0.54482  0.99383  0.66279  1.0000
  H   H568      1.0  0.61426  0.46939  0.63773  1.0000
  C   C725      1.0  0.40522  0.99704  0.84013  1.0000
  H   H569      1.0  0.34759  0.10570  0.74927  1.0000
  C   C726      1.0  0.42621  0.47502  0.92982  1.0000
  Fe  Fe50      1.0  0.36373  0.11278  0.96491  1.0000
  Fe  Fe51      1.0  0.35622  0.05288  0.98192  1.0000
  P   P25       1.0  0.37465  0.47151  0.85247  1.0000
  H   H570      1.0  0.39053  0.00795  0.83677  1.0000
  C   C727      1.0  0.64454  0.19812  0.97386  1.0000
  H   H571      1.0  0.35135  0.47096  0.93135  1.0000
  C   C728      1.0  0.63251  0.98774  0.97658  1.0000
  C   C729      1.0  0.45072  0.00074  0.65346  1.0000
  C   C730      1.0  0.57778  0.47818  0.59051  1.0000
  H   H572      1.0  0.39057  0.45140  0.98165  1.0000
  H   H573      1.0  0.53258  0.24968  0.48607  1.0000
  Fe  Fe52      1.0  0.36341  0.86661  0.05029  1.0000
  C   C731      1.0  0.35460  0.50701  0.16216  1.0000
  C   C732      1.0  0.46972  0.66915  0.41540  1.0000
  Fe  Fe53      1.0  0.35739  0.80557  0.04928  1.0000
  H   H574      1.0  0.43324  0.87248  0.02962  1.0000
  P   P26       1.0  0.60657  0.94221  0.17740  1.0000
  Fe  Fe54      1.0  0.36224  0.83556  0.13332  1.0000
  S   S95       1.0  0.37317  0.83307  0.20216  1.0000
  S   S96       1.0  0.38280  0.83237  0.07561  1.0000
  C   C733      1.0  0.35571  0.68996  0.99684  1.0000
  S   S97       1.0  0.35752  0.64692  0.05229  1.0000
  Fe  Fe55      1.0  0.63745  0.87265  0.02449  1.0000
  S   S98       1.0  0.33798  0.80604  0.10867  1.0000
  C   C734      1.0  0.41542  0.95494  0.13522  1.0000
  Fe  Fe56      1.0  0.64570  0.81133  0.02779  1.0000
  H   H575      1.0  0.37599  0.63692  0.40563  1.0000
  C   C735      1.0  0.44757  0.69201  0.46637  1.0000
  Fe  Fe57      1.0  0.62835  0.84113  0.10617  1.0000
  S   S99       1.0  0.59978  0.83967  0.15228  1.0000
  S   S100      1.0  0.33975  0.83968  0.01919  1.0000
  S   S101      1.0  0.61700  0.83684  0.03872  1.0000
  S   S102      1.0  0.34020  0.51543  0.04371  1.0000
  C   C736      1.0  0.46362  0.58446  0.47861  1.0000
  C   C737      1.0  0.43191  0.90534  0.15984  1.0000
  C   C738      1.0  0.37747  0.95160  0.98482  1.0000
  Fe  Fe58      1.0  0.48238  0.83947  0.34671  1.0000
  S   S103      1.0  0.50618  0.80677  0.35966  1.0000
  S   S104      1.0  0.46587  0.83715  0.28219  1.0000
  Fe  Fe59      1.0  0.49764  0.87451  0.42312  1.0000
  S   S105      1.0  0.52253  0.84367  0.43931  1.0000
  C   C739      1.0  0.55834  0.90556  0.27097  1.0000
  Fe  Fe60      1.0  0.52913  0.84091  0.36879  1.0000
  S   S106      1.0  0.56311  0.84029  0.34236  1.0000
  Fe  Fe61      1.0  0.49782  0.81121  0.42876  1.0000
  H   H576      1.0  0.52059  0.85071  0.15441  1.0000
  S   S107      1.0  0.50585  0.87352  0.35337  1.0000
  S   S108      1.0  0.47241  0.84226  0.41511  1.0000
  C   C740      1.0  0.48005  0.90289  0.19669  1.0000
  S   S109      1.0  0.34431  0.87174  0.10955  1.0000
  C   C741      1.0  0.59008  0.83899  0.20561  1.0000
  C   C742      1.0  0.60343  0.83915  0.24076  1.0000
  C   C743      1.0  0.59493  0.83943  0.28215  1.0000
  C   C744      1.0  0.57298  0.83914  0.28927  1.0000
  C   C745      1.0  0.55964  0.83837  0.25419  1.0000
  C   C746      1.0  0.56811  0.83852  0.21278  1.0000
  H   H577      1.0  0.62031  0.83905  0.23614  1.0000
  H   H578      1.0  0.60548  0.83984  0.30889  1.0000
  H   H579      1.0  0.54282  0.83774  0.25919  1.0000
  H   H580      1.0  0.55757  0.83824  0.18605  1.0000
  H   H581      1.0  0.48763  0.69488  0.37359  1.0000
  S   S110      1.0  0.37904  0.89888  0.01031  1.0000
  C   C747      1.0  0.62885  0.70848  0.03019  1.0000
  C   C748      1.0  0.63448  0.73571  0.02534  1.0000
  H   H582      1.0  0.62050  0.70201  0.05827  1.0000
  H   H583      1.0  0.63048  0.75014  0.04955  1.0000
  H   H584      1.0  0.40856  0.88600  0.31377  1.0000
  H   H585      1.0  0.36267  0.74302  0.08573  1.0000
  C   C749      1.0  0.41685  0.59830  0.37160  1.0000
  C   C750      1.0  0.64419  0.97301  0.04536  1.0000
  C   C751      1.0  0.63976  0.94622  0.03472  1.0000
  C   C752      1.0  0.47340  0.95928  0.22317  1.0000
  H   H586      1.0  0.40948  0.88804  0.11653  1.0000
  C   C753      1.0  0.39910  0.83414  0.22382  1.0000
  C   C754      1.0  0.41701  0.83842  0.19878  1.0000
  C   C755      1.0  0.43717  0.83944  0.21748  1.0000
  C   C756      1.0  0.43982  0.83596  0.26124  1.0000
  C   C757      1.0  0.42194  0.83146  0.28627  1.0000
  C   C758      1.0  0.40172  0.83068  0.26765  1.0000
  H   H587      1.0  0.41531  0.84100  0.16507  1.0000
  H   H588      1.0  0.45087  0.84319  0.19800  1.0000
  H   H589      1.0  0.42367  0.82871  0.31995  1.0000
  H   H590      1.0  0.38799  0.82732  0.28736  1.0000
  C   C759      1.0  0.35948  0.73680  0.01886  1.0000
  C   C760      1.0  0.36050  0.72837  0.06091  1.0000
  C   C761      1.0  0.35949  0.70077  0.07076  1.0000
  C   C762      1.0  0.35726  0.68144  0.03877  1.0000
  H   H591      1.0  0.64772  0.55961  0.07442  1.0000
  H   H592      1.0  0.40288  0.65095  0.45739  1.0000
  H   H593      1.0  0.66228  0.59586  0.11934  1.0000
  C   C763      1.0  0.37052  0.93256  0.01460  1.0000
  C   C764      1.0  0.35779  0.94088  0.04823  1.0000
  H   H594      1.0  0.65073  0.97755  0.07598  1.0000
  C   C765      1.0  0.63391  0.68962  0.99883  1.0000
  C   C766      1.0  0.43211  0.60607  0.40096  1.0000
  S   S111      1.0  0.63138  0.52899  0.00280  1.0000
  P   P27       1.0  0.44681  0.63581  0.46962  1.0000
  H   H595      1.0  0.57417  0.96924  0.04145  1.0000
  C   C767      1.0  0.49029  0.88532  0.22443  1.0000
  C   C768      1.0  0.46322  0.92055  0.30347  1.0000
  S   S112      1.0  0.64802  0.87812  0.09137  1.0000
  C   C769      1.0  0.59701  0.93674  0.12444  1.0000
  C   C770      1.0  0.50937  0.86539  0.16604  1.0000
  C   C771      1.0  0.65059  0.93739  0.17086  1.0000
  C   C772      1.0  0.35641  0.52118  0.19998  1.0000
  C   C773      1.0  0.56641  0.92474  0.20239  1.0000
  C   C774      1.0  0.50471  0.86653  0.20909  1.0000
  H   H596      1.0  0.61743  0.88714  0.20233  1.0000
  H   H597      1.0  0.51991  0.73276  0.45701  1.0000
  H   H598      1.0  0.59891  0.97701  0.25126  1.0000
  C   C775      1.0  0.58753  0.92850  0.21439  1.0000
  C   C776      1.0  0.58731  0.95745  0.10133  1.0000
  H   H599      1.0  0.58427  0.90265  0.31422  1.0000
  C   C777      1.0  0.35035  0.48326  0.03233  1.0000
  H   H600      1.0  0.58513  0.97720  0.11479  1.0000
  H   H601      1.0  0.50322  0.88232  0.10479  1.0000
  C   C778      1.0  0.58178  0.56504  0.00084  1.0000
  H   H602      1.0  0.41991  0.82849  0.00484  1.0000
  C   C779      1.0  0.39159  0.62811  0.40457  1.0000
  H   H603      1.0  0.45485  0.68902  0.00220  1.0000
  H   H604      1.0  0.44841  0.73539  0.46371  1.0000
  C   C780      1.0  0.45411  0.71681  0.44998  1.0000
  H   H605      1.0  0.59279  0.88661  0.05187  1.0000
  C   C781      1.0  0.49954  0.88316  0.13818  1.0000
  H   H606      1.0  0.43062  0.89305  0.37741  1.0000
  C   C782      1.0  0.59827  0.91099  0.10673  1.0000
  H   H607      1.0  0.44839  0.97466  0.26304  1.0000
  C   C783      1.0  0.57245  0.58948  0.98991  1.0000
  H   H608      1.0  0.56116  0.93017  0.17107  1.0000
  H   H609      1.0  0.41043  0.61433  0.02580  1.0000
  C   C784      1.0  0.57926  0.90938  0.28325  1.0000
  H   H610      1.0  0.48701  0.88563  0.25793  1.0000
  H   H611      1.0  0.59192  0.56380  0.02826  1.0000
  H   H612      1.0  0.47738  0.91550  0.13147  1.0000
  C   C785      1.0  0.46810  0.61199  0.47405  1.0000
  H   H613      1.0  0.49289  0.64207  0.47600  1.0000
  H   H614      1.0  0.57826  0.92391  0.00959  1.0000
  C   C786      1.0  0.39624  0.77277  0.17423  1.0000
  C   C787      1.0  0.40047  0.76129  0.21353  1.0000
  C   C788      1.0  0.42103  0.75366  0.22364  1.0000
  C   C789      1.0  0.43743  0.75792  0.19470  1.0000
  C   C790      1.0  0.43349  0.77087  0.15604  1.0000
  C   C791      1.0  0.41264  0.77758  0.14561  1.0000
  P   P28       1.0  0.45456  0.77648  0.11834  1.0000
  C   C792      1.0  0.44876  0.80686  0.08912  1.0000
  C   C793      1.0  0.47971  0.78077  0.14470  1.0000
  C   C794      1.0  0.49859  0.77291  0.12495  1.0000
  C   C795      1.0  0.51798  0.77676  0.14517  1.0000
  C   C796      1.0  0.51868  0.78829  0.18533  1.0000
  C   C797      1.0  0.49999  0.79614  0.20520  1.0000
  C   C798      1.0  0.48066  0.79272  0.18483  1.0000
  C   C799      1.0  0.43568  0.80580  0.05343  1.0000
  C   C800      1.0  0.43049  0.82934  0.03162  1.0000
  C   C801      1.0  0.43797  0.85417  0.04568  1.0000
  C   C802      1.0  0.45104  0.85542  0.08104  1.0000
  C   C803      1.0  0.45649  0.83189  0.10266  1.0000
  C   C804      1.0  0.45532  0.74839  0.08216  1.0000
  H   H615      1.0  0.44788  0.59792  0.39830  1.0000
  C   C805      1.0  0.44572  0.72379  0.09288  1.0000
  H   H616      1.0  0.61000  0.92349  0.26518  1.0000
  H   H617      1.0  0.34852  0.51692  0.13419  1.0000
  C   C806      1.0  0.46492  0.75121  0.04234  1.0000
  H   H618      1.0  0.38027  0.77870  0.16643  1.0000
  C   C807      1.0  0.35299  0.96826  0.05323  1.0000
  H   H619      1.0  0.42429  0.74467  0.25409  1.0000
  H   H620      1.0  0.45315  0.75134  0.20285  1.0000
  H   H621      1.0  0.40891  0.78678  0.11565  1.0000
  H   H622      1.0  0.49851  0.76380  0.09403  1.0000
  H   H623      1.0  0.53252  0.77065  0.12984  1.0000
  H   H624      1.0  0.53369  0.79107  0.20113  1.0000
  H   H625      1.0  0.50040  0.80488  0.23656  1.0000
  H   H626      1.0  0.46649  0.79926  0.20083  1.0000
  H   H627      1.0  0.42893  0.78689  0.04317  1.0000
  H   H628      1.0  0.43811  0.68363  0.07257  1.0000
  C   C808      1.0  0.61089  0.97768  0.18706  1.0000
  H   H629      1.0  0.45665  0.87471  0.09209  1.0000
  H   H630      1.0  0.46642  0.83339  0.13024  1.0000
  C   C809      1.0  0.44560  0.70251  0.06410  1.0000
  H   H631      1.0  0.43811  0.88601  0.16910  1.0000
  H   H632      1.0  0.47241  0.76999  0.03338  1.0000
  C   C810      1.0  0.58275  0.92741  0.04202  1.0000
  C   C811      1.0  0.46480  0.72984  0.01369  1.0000
  H   H633      1.0  0.35234  0.92640  0.07131  1.0000
  C   C812      1.0  0.63152  0.92474  0.18213  1.0000
  C   C813      1.0  0.55189  0.91333  0.23064  1.0000
  S   S113      1.0  0.66104  0.59435  0.99204  1.0000
  H   H634      1.0  0.39516  0.93202  0.09418  1.0000
  H   H635      1.0  0.42083  0.58399  0.34711  1.0000
  H   H636      1.0  0.65112  0.86287  0.20715  1.0000
  C   C814      1.0  0.55650  0.78422  0.42989  1.0000
  H   H637      1.0  0.38780  0.75855  0.23618  1.0000
  C   C815      1.0  0.43614  0.89988  0.34679  1.0000
  H   H638      1.0  0.54728  0.89597  0.29253  1.0000
  H   H639      1.0  0.64250  0.93049  0.05750  1.0000
  H   H640      1.0  0.54500  0.78398  0.40469  1.0000
  H   H641      1.0  0.58286  0.77844  0.38799  1.0000
  C   C816      1.0  0.42373  0.89597  0.31095  1.0000
  S   S114      1.0  0.48893  0.91393  0.46020  1.0000
  C   C817      1.0  0.48490  0.90185  0.15340  1.0000
  H   H642      1.0  0.35172  0.54210  0.20130  1.0000
  C   C818      1.0  0.45091  0.91653  0.26716  1.0000
  C   C819      1.0  0.43110  0.90405  0.27122  1.0000
  P   P29       1.0  0.46100  0.92688  0.21610  1.0000
  Fe  Fe62      1.0  0.35024  0.61385  0.00506  1.0000
  C   C820      1.0  0.42702  0.62441  0.43304  1.0000
  C   C821      1.0  0.40761  0.93123  0.11749  1.0000
  C   C822      1.0  0.47634  0.69401  0.39930  1.0000
  C   C823      1.0  0.57786  0.78094  0.42052  1.0000
  H   H643      1.0  0.40446  0.69605  0.98590  1.0000
  H   H644      1.0  0.42136  0.90010  0.24398  1.0000
  H   H645      1.0  0.50133  0.95023  0.18609  1.0000
  H   H646      1.0  0.53574  0.90998  0.22104  1.0000
  H   H647      1.0  0.51202  0.85267  0.23088  1.0000
  C   C824      1.0  0.39657  0.60922  0.37351  1.0000
  H   H648      1.0  0.57530  0.60720  0.00897  1.0000
  H   H649      1.0  0.60489  0.89443  0.12439  1.0000
  C   C825      1.0  0.43148  0.95390  0.16543  1.0000
  C   C826      1.0  0.45585  0.91224  0.34307  1.0000
  C   C827      1.0  0.63193  0.89775  0.19526  1.0000
  H   H650      1.0  0.46555  0.91505  0.37093  1.0000
  H   H651      1.0  0.38480  0.60328  0.35062  1.0000
  H   H652      1.0  0.47869  0.92973  0.30121  1.0000
  C   C828      1.0  0.45564  0.66798  0.44969  1.0000
  Fe  Fe63      1.0  0.34434  0.55218  0.00174  1.0000
  C   C829      1.0  0.46860  0.71782  0.41670  1.0000
  C   C830      1.0  0.63695  0.49519  0.99117  1.0000
  C   C831      1.0  0.40681  0.63588  0.43400  1.0000
  C   C832      1.0  0.50538  0.60239  0.48292  1.0000
  C   C833      1.0  0.64496  0.74420  0.98876  1.0000
  H   H653      1.0  0.36073  0.69432  0.10329  1.0000
  H   H654      1.0  0.40462  0.66232  0.04227  1.0000
  C   C834      1.0  0.36430  0.50836  0.23591  1.0000
  C   C835      1.0  0.45505  0.70554  0.02447  1.0000
  S   S115      1.0  0.48942  0.77658  0.47643  1.0000
  C   C836      1.0  0.41077  0.62914  0.00067  1.0000
  C   C837      1.0  0.59118  0.90638  0.06572  1.0000
  H   H655      1.0  0.36571  0.51938  0.26521  1.0000
  C   C838      1.0  0.48907  0.62085  0.47690  1.0000
  H   H656      1.0  0.65090  0.95784  0.15948  1.0000
  C   C839      1.0  0.58063  0.95291  0.05992  1.0000
  H   H657      1.0  0.47574  0.65086  0.40138  1.0000
  H   H658      1.0  0.43818  0.72096  0.12327  1.0000
  H   H659      1.0  0.60923  0.77807  0.44576  1.0000
  S   S116      1.0  0.62625  0.65577  0.00557  1.0000
  C   C840      1.0  0.43987  0.92901  0.17796  1.0000
  C   C841      1.0  0.41579  0.90643  0.12992  1.0000
  H   H660      1.0  0.47405  0.73715  0.40496  1.0000
  C   C842      1.0  0.59380  0.92096  0.25524  1.0000
  C   C843      1.0  0.40770  0.65626  0.01000  1.0000
  C   C844      1.0  0.54998  0.78839  0.47156  1.0000
  S   S117      1.0  0.65605  0.81297  0.09560  1.0000
  C   C845      1.0  0.59269  0.78101  0.45305  1.0000
  C   C846      1.0  0.37221  0.97894  0.98921  1.0000
  H   H661      1.0  0.43724  0.97250  0.17872  1.0000
  S   S118      1.0  0.36340  0.77081  0.00440  1.0000
  C   C847      1.0  0.46358  0.97875  0.24852  1.0000
  C   C848      1.0  0.65104  0.88386  0.19793  1.0000
  H   H662      1.0  0.63381  0.48289  0.05616  1.0000
  H   H663      1.0  0.54700  0.49639  0.98699  1.0000
  H   H664      1.0  0.33380  0.90077  0.98680  1.0000
  H   H665      1.0  0.40891  0.97412  0.12555  1.0000
  H   H666      1.0  0.53336  0.79078  0.47816  1.0000
  H   H667      1.0  0.37677  0.49734  0.99596  1.0000
  C   C849      1.0  0.63175  0.93991  0.99489  1.0000
  C   C850      1.0  0.35677  0.71752  0.98698  1.0000
  S   S119      1.0  0.37222  0.57936  0.99206  1.0000
  H   H668      1.0  0.34381  0.97471  0.08020  1.0000
  C   C851      1.0  0.49324  0.96494  0.20528  1.0000
  H   H669      1.0  0.44749  0.57729  0.47857  1.0000
  H   H670      1.0  0.58711  0.52409  0.98362  1.0000
  H   H671      1.0  0.47141  0.74858  0.54821  1.0000
  C   C852      1.0  0.56029  0.59131  0.95334  1.0000
  H   H672      1.0  0.44826  0.95798  0.66273  1.0000
  C   C853      1.0  0.58621  0.78515  0.49481  1.0000
  Fe  Fe64      1.0  0.36154  0.58318  0.92412  1.0000
  S   S120      1.0  0.38971  0.57779  0.87789  1.0000
  H   H673      1.0  0.52882  0.93777  0.49337  1.0000
  H   H674      1.0  0.51423  0.74380  0.66024  1.0000
  H   H675      1.0  0.64861  0.68375  0.93825  1.0000
  H   H676      1.0  0.59792  0.78481  0.51954  1.0000
  C   C854      1.0  0.42499  0.96017  0.87005  1.0000
  Fe  Fe65      1.0  0.63935  0.59451  0.87707  1.0000
  S   S121      1.0  0.62754  0.59277  0.80849  1.0000
  C   C855      1.0  0.45102  0.97723  0.67770  1.0000
  Fe  Fe66      1.0  0.46555  0.59406  0.66569  1.0000
  S   S122      1.0  0.48991  0.62645  0.67638  1.0000
  S   S123      1.0  0.43224  0.59891  0.69531  1.0000
  Fe  Fe67      1.0  0.49569  0.56054  0.60760  1.0000
  S   S124      1.0  0.52180  0.59129  0.61710  1.0000
  S   S125      1.0  0.50382  0.52375  0.56375  1.0000
  Fe  Fe68      1.0  0.51254  0.59188  0.68583  1.0000
  S   S126      1.0  0.53096  0.59006  0.74832  1.0000
  Fe  Fe69      1.0  0.49739  0.62403  0.60656  1.0000
  S   S127      1.0  0.50662  0.65903  0.55998  1.0000
  S   S128      1.0  0.48774  0.55957  0.67747  1.0000
  S   S129      1.0  0.47160  0.59326  0.59460  1.0000
  C   C856      1.0  0.60874  0.83895  0.59446  1.0000
  H   H677      1.0  0.45738  0.95727  0.85152  1.0000
  H   H678      1.0  0.62532  0.83715  0.65365  1.0000
  H   H679      1.0  0.57140  0.78550  0.64382  1.0000
  C   C857      1.0  0.52404  0.86818  0.54588  1.0000
  P   P30       1.0  0.55626  0.79686  0.55751  1.0000
  H   H680      1.0  0.41071  0.60999  0.51312  1.0000
  H   H681      1.0  0.60741  0.95256  0.81644  1.0000
  C   C858      1.0  0.60570  0.51121  0.64681  1.0000
  C   C859      1.0  0.64410  0.51489  0.69050  1.0000
  C   C860      1.0  0.48333  0.73542  0.53526  1.0000
  C   C861      1.0  0.48658  0.70979  0.55398  1.0000
  C   C862      1.0  0.50173  0.69205  0.53765  1.0000
  C   C863      1.0  0.57091  0.93983  0.91298  1.0000
  S   S130      1.0  0.62618  0.90619  0.98076  1.0000
  H   H682      1.0  0.39810  0.61225  0.58687  1.0000
  H   H683      1.0  0.47737  0.70384  0.58122  1.0000
  H   H684      1.0  0.61930  0.85378  0.58077  1.0000
  C   C864      1.0  0.60060  0.59204  0.79217  1.0000
  C   C865      1.0  0.59581  0.59044  0.74881  1.0000
  C   C866      1.0  0.57469  0.59004  0.73457  1.0000
  C   C867      1.0  0.55803  0.59138  0.76362  1.0000
  C   C868      1.0  0.56284  0.59302  0.80689  1.0000
  C   C869      1.0  0.58392  0.59316  0.82114  1.0000
  H   H685      1.0  0.60855  0.58983  0.72608  1.0000
  H   H686      1.0  0.57130  0.58885  0.70119  1.0000
  H   H687      1.0  0.55014  0.59447  0.82960  1.0000
  H   H688      1.0  0.58726  0.59450  0.85453  1.0000
  H   H689      1.0  0.60277  0.55375  0.66058  1.0000
  H   H690      1.0  0.52772  0.78601  0.62865  1.0000
  C   C870      1.0  0.34602  0.67917  0.87257  1.0000
  C   C871      1.0  0.61213  0.82959  0.63549  1.0000
  H   H691      1.0  0.35577  0.72391  0.95444  1.0000
  H   H692      1.0  0.55754  0.97841  0.90015  1.0000
  H   H693      1.0  0.64061  0.50106  0.92425  1.0000
  C   C872      1.0  0.40152  0.58517  0.82752  1.0000
  C   C873      1.0  0.39094  0.59918  0.79561  1.0000
  C   C874      1.0  0.40064  0.60331  0.75573  1.0000
  C   C875      1.0  0.42120  0.59392  0.74711  1.0000
  C   C876      1.0  0.43196  0.58044  0.77936  1.0000
  C   C877      1.0  0.42215  0.57599  0.81904  1.0000
  H   H694      1.0  0.37512  0.60644  0.80135  1.0000
  H   H695      1.0  0.39208  0.61377  0.73125  1.0000
  H   H696      1.0  0.44774  0.57307  0.77353  1.0000
  H   H697      1.0  0.43058  0.56515  0.84329  1.0000
  C   C878      1.0  0.57989  0.53733  0.58220  1.0000
  C   C879      1.0  0.56059  0.54923  0.57165  1.0000
  C   C880      1.0  0.40706  0.51674  0.93799  1.0000
  H   H698      1.0  0.41690  0.64039  0.63902  1.0000
  H   H699      1.0  0.50957  0.54730  0.80503  1.0000
  H   H700      1.0  0.40559  0.53664  0.95158  1.0000
  H   H701      1.0  0.39411  0.73483  0.94915  1.0000
  C   C881      1.0  0.41329  0.62103  0.95880  1.0000
  H   H702      1.0  0.54601  0.54231  0.58579  1.0000
  C   C882      1.0  0.58184  0.96844  0.85444  1.0000
  H   H703      1.0  0.51154  0.51587  0.73338  1.0000
  C   C883      1.0  0.56890  0.96365  0.88979  1.0000
  C   C884      1.0  0.52096  0.49862  0.89827  1.0000
  C   C885      1.0  0.44310  0.96890  0.84854  1.0000
  C   C886      1.0  0.52212  0.50301  0.67194  1.0000
  H   H704      1.0  0.38727  0.94524  0.95870  1.0000
  C   C887      1.0  0.45292  0.65485  0.81792  1.0000
  C   C888      1.0  0.44313  0.65424  0.77853  1.0000
  C   C889      1.0  0.42321  0.66572  0.77343  1.0000
  C   C890      1.0  0.41297  0.67771  0.80776  1.0000
  C   C891      1.0  0.42260  0.67814  0.84763  1.0000
  C   C892      1.0  0.44274  0.66677  0.85235  1.0000
  P   P31       1.0  0.40902  0.69190  0.89307  1.0000
  C   C893      1.0  0.38153  0.69698  0.88040  1.0000
  C   C894      1.0  0.41007  0.66744  0.93538  1.0000
  H   H705      1.0  0.54973  0.69785  0.57045  1.0000
  H   H706      1.0  0.54817  0.57083  0.89943  1.0000
  H   H707      1.0  0.54520  0.54493  0.83504  1.0000
  C   C895      1.0  0.58262  0.51632  0.86337  1.0000
  H   H708      1.0  0.39209  0.96773  0.88296  1.0000
  C   C896      1.0  0.37411  0.72249  0.86843  1.0000
  C   C897      1.0  0.36738  0.67523  0.88156  1.0000
  C   C898      1.0  0.42075  0.72333  0.91016  1.0000
  C   C899      1.0  0.41266  0.63998  0.92623  1.0000
  H   H709      1.0  0.37410  0.52649  0.81940  1.0000
  C   C900      1.0  0.54015  0.84932  0.55162  1.0000
  C   C901      1.0  0.43845  0.77228  0.93704  1.0000
  C   C902      1.0  0.44957  0.75574  0.90916  1.0000
  H   H710      1.0  0.46827  0.64562  0.82181  1.0000
  H   H711      1.0  0.45080  0.64443  0.75205  1.0000
  H   H712      1.0  0.41554  0.66470  0.74296  1.0000
  H   H713      1.0  0.39741  0.68606  0.80313  1.0000
  H   H714      1.0  0.45037  0.66660  0.88288  1.0000
  C   C903      1.0  0.38481  0.48620  0.80435  1.0000
  C   C904      1.0  0.35268  0.72641  0.86002  1.0000
  P   P32       1.0  0.56332  0.51472  0.90532  1.0000
  C   C905      1.0  0.51369  0.70089  0.50251  1.0000
  H   H715      1.0  0.41371  0.63290  0.89397  1.0000
  H   H716      1.0  0.38476  0.73946  0.86594  1.0000
  H   H717      1.0  0.37280  0.65521  0.88951  1.0000
  H   H718      1.0  0.44965  0.71908  0.87391  1.0000
  H   H719      1.0  0.65885  0.51633  0.70758  1.0000
  H   H720      1.0  0.58953  0.83637  0.53900  1.0000
  C   C906      1.0  0.41158  0.62415  0.57695  1.0000
  H   H721      1.0  0.52683  0.94731  0.75910  1.0000
  C   C907      1.0  0.58158  0.80048  0.62959  1.0000
  C   C908      1.0  0.51592  0.95064  0.50276  1.0000
  C   C909      1.0  0.42221  0.63996  0.60648  1.0000
  H   H722      1.0  0.52919  0.49585  0.50079  1.0000
  H   H723      1.0  0.47652  0.54481  0.48873  1.0000
  H   H724      1.0  0.62459  0.51901  0.77379  1.0000
  C   C910      1.0  0.44016  0.65443  0.59440  1.0000
  H   H725      1.0  0.45528  0.96019  0.73944  1.0000
  H   H726      1.0  0.50662  0.49649  0.66180  1.0000
  C   C911      1.0  0.57902  0.54247  0.97521  1.0000
  H   H727      1.0  0.46499  0.76187  0.89774  1.0000
  C   C912      1.0  0.47998  0.56602  0.48445  1.0000
  C   C913      1.0  0.52431  0.95343  0.82620  1.0000
  C   C914      1.0  0.51812  0.95696  0.78430  1.0000
  C   C915      1.0  0.56162  0.52266  0.69604  1.0000
  C   C916      1.0  0.49658  0.51732  0.84720  1.0000
  H   H728      1.0  0.37866  0.52063  0.90210  1.0000
  H   H729      1.0  0.46158  0.66392  0.54397  1.0000
  H   H730      1.0  0.63627  0.55661  0.69969  1.0000
  C   C917      1.0  0.40970  0.74022  0.93797  1.0000
  C   C918      1.0  0.50073  0.49980  0.88075  1.0000
  C   C919      1.0  0.59179  0.82908  0.57093  1.0000
  C   C920      1.0  0.54459  0.52381  0.72407  1.0000
  C   C921      1.0  0.50071  0.49153  0.53761  1.0000
  C   C922      1.0  0.39138  0.52581  0.76115  1.0000
  C   C923      1.0  0.61297  0.51776  0.79877  1.0000
  C   C924      1.0  0.51271  0.53349  0.83086  1.0000
  C   C925      1.0  0.45508  0.97857  0.72104  1.0000
  H   H731      1.0  0.53780  0.94092  0.83342  1.0000
  C   C926      1.0  0.49526  0.94377  0.49084  1.0000
  H   H732      1.0  0.43632  0.69176  0.49211  1.0000
  H   H733      1.0  0.44888  0.66589  0.61759  1.0000
  C   C927      1.0  0.40609  0.48298  0.74052  1.0000
  H   H734      1.0  0.54654  0.53328  0.75458  1.0000
  C   C928      1.0  0.64470  0.69809  0.96261  1.0000
  C   C929      1.0  0.44730  0.65336  0.55267  1.0000
  C   C930      1.0  0.55735  0.56869  0.92782  1.0000
  C   C931      1.0  0.53721  0.51501  0.88229  1.0000
  C   C932      1.0  0.54629  0.76603  0.58060  1.0000
  H   H735      1.0  0.57646  0.53114  0.70601  1.0000
  C   C933      1.0  0.57832  0.50475  0.82385  1.0000
  C   C934      1.0  0.53542  0.82171  0.55424  1.0000
  C   C935      1.0  0.56662  0.54398  0.93863  1.0000
  H   H736      1.0  0.46286  0.95652  0.49492  1.0000
  C   C936      1.0  0.50311  0.85970  0.54254  1.0000
  C   C937      1.0  0.49823  0.83236  0.54539  1.0000
  C   C938      1.0  0.51427  0.81349  0.55131  1.0000
  H   H737      1.0  0.57647  0.95560  0.76636  1.0000
  C   C939      1.0  0.53918  0.50153  0.64398  1.0000
  C   C940      1.0  0.59891  0.92533  0.86632  1.0000
  C   C941      1.0  0.33861  0.70479  0.86240  1.0000
  C   C942      1.0  0.64053  0.48661  0.94980  1.0000
  C   C943      1.0  0.63775  0.49038  0.67313  1.0000
  H   H738      1.0  0.49077  0.87428  0.53650  1.0000
  H   H739      1.0  0.48209  0.82561  0.54141  1.0000
  H   H740      1.0  0.51013  0.79237  0.55195  1.0000
  C   C944      1.0  0.53137  0.71824  0.61761  1.0000
  C   C945      1.0  0.56829  0.48490  0.93663  1.0000
  C   C946      1.0  0.42420  0.50041  0.94827  1.0000
  H   H741      1.0  0.62198  0.95608  0.93493  1.0000
  C   C947      1.0  0.54525  0.71720  0.58336  1.0000
  C   C948      1.0  0.40610  0.97435  0.86609  1.0000
  H   H742      1.0  0.33459  0.79923  0.94654  1.0000
  C   C949      1.0  0.44079  0.73136  0.89575  1.0000
  C   C950      1.0  0.43644  0.63813  0.52256  1.0000
  H   H743      1.0  0.61096  0.91078  0.85817  1.0000
  H   H744      1.0  0.56112  0.95334  0.69498  1.0000
  P   P33       1.0  0.58087  0.50949  0.61883  1.0000
  C   C951      1.0  0.55913  0.51119  0.65586  1.0000
  H   H745      1.0  0.44520  0.79119  0.94732  1.0000
  C   C952      1.0  0.57803  0.80977  0.58830  1.0000
  C   C953      1.0  0.41873  0.62305  0.53515  1.0000
  H   H746      1.0  0.38951  0.54717  0.75565  1.0000
  C   C954      1.0  0.49517  0.74417  0.49993  1.0000
  C   C955      1.0  0.61239  0.53586  0.66390  1.0000
  H   H747      1.0  0.55356  0.61046  0.94425  1.0000
  H   H748      1.0  0.57781  0.49621  0.52799  1.0000
  C   C956      1.0  0.59846  0.54648  0.56246  1.0000
  C   C957      1.0  0.62813  0.96079  0.96581  1.0000
  C   C958      1.0  0.59856  0.81037  0.65301  1.0000
  C   C959      1.0  0.57845  0.57965  0.52347  1.0000
  H   H749      1.0  0.51798  0.96349  0.89111  1.0000
  C   C960      1.0  0.39172  0.50753  0.90992  1.0000
  H   H750      1.0  0.41502  0.59988  0.95130  1.0000
  C   C961      1.0  0.55990  0.57034  0.54247  1.0000
  H   H751      1.0  0.55620  0.85645  0.55280  1.0000
  C   C962      1.0  0.39348  0.48196  0.89164  1.0000
  H   H752      1.0  0.35428  0.67527  0.97195  1.0000
  C   C963      1.0  0.63141  0.53761  0.68591  1.0000
  C   C964      1.0  0.38246  0.51390  0.79702  1.0000
  C   C965      1.0  0.40742  0.67536  0.97761  1.0000
  H   H753      1.0  0.33162  0.86686  0.93010  1.0000
  H   H754      1.0  0.52377  0.48501  0.92426  1.0000
  Fe  Fe70      1.0  0.64154  0.56300  0.95986  1.0000
  C   C966      1.0  0.59342  0.50568  0.79158  1.0000
  S   S131      1.0  0.61820  0.59258  0.93393  1.0000
  S   S132      1.0  0.65925  0.62859  0.90294  1.0000
  H   H755      1.0  0.48820  0.48729  0.89341  1.0000
  S   S133      1.0  0.34065  0.61913  0.93735  1.0000
  C   C967      1.0  0.52486  0.51402  0.71209  1.0000
  C   C968      1.0  0.61757  0.52844  0.83837  1.0000
  C   C969      1.0  0.60251  0.52777  0.87064  1.0000
  H   H756      1.0  0.56323  0.73958  0.53799  1.0000
  H   H757      1.0  0.34696  0.74626  0.85191  1.0000
  H   H758      1.0  0.58817  0.90276  0.92036  1.0000
  H   H759      1.0  0.58998  0.49709  0.76101  1.0000
  C   C970      1.0  0.59683  0.94901  0.84282  1.0000
  C   C971      1.0  0.58602  0.92078  0.90145  1.0000
  C   C972      1.0  0.53292  0.53223  0.84816  1.0000
  H   H760      1.0  0.60126  0.80300  0.68476  1.0000
  H   H761      1.0  0.40958  0.77732  0.97259  1.0000
  C   C973      1.0  0.65002  0.72533  0.95746  1.0000
  H   H762      1.0  0.63272  0.53784  0.84370  1.0000
  H   H763      1.0  0.60646  0.53617  0.90113  1.0000
  H   H764      1.0  0.42553  0.94236  0.88981  1.0000
  C   C974      1.0  0.40320  0.51042  0.73292  1.0000
  C   C975      1.0  0.55823  0.48159  0.97591  1.0000
  H   H765      1.0  0.56115  0.93638  0.94057  1.0000
  H   H766      1.0  0.52519  0.69971  0.63099  1.0000
  C   C976      1.0  0.53267  0.76691  0.61566  1.0000
  H   H767      1.0  0.52777  0.88938  0.54259  1.0000
  C   C977      1.0  0.41849  0.76451  0.95135  1.0000
  C   C978      1.0  0.55271  0.74096  0.56486  1.0000
  H   H768      1.0  0.41041  0.51996  0.70560  1.0000
  C   C979      1.0  0.52511  0.74308  0.63384  1.0000
  C   C980      1.0  0.50062  0.97285  0.77470  1.0000
  S   S134      1.0  0.66166  0.56259  0.90149  1.0000
  C   C981      1.0  0.56934  0.97339  0.75308  1.0000
  Fe  Fe71      1.0  0.63944  0.62416  0.96160  1.0000
  C   C982      1.0  0.51311  0.96607  0.85862  1.0000
  C   C983      1.0  0.52003  0.97434  0.52659  1.0000
  H   H769      1.0  0.61351  0.53724  0.56938  1.0000
  C   C984      1.0  0.59773  0.56766  0.53337  1.0000
  H   H770      1.0  0.48086  0.51852  0.83397  1.0000
  H   H771      1.0  0.53659  0.49349  0.61264  1.0000
  H   H772      1.0  0.43596  0.50756  0.97030  1.0000
  H   H773      1.0  0.61211  0.57480  0.51847  1.0000
  H   H774      1.0  0.49652  0.97573  0.74188  1.0000
  H   H775      1.0  0.65782  0.73184  0.92882  1.0000
  H   H776      1.0  0.54493  0.57956  0.53485  1.0000
  H   H777      1.0  0.56337  0.49498  0.81791  1.0000
  C   C985      1.0  0.56066  0.97201  0.71251  1.0000
  S   S135      1.0  0.33461  0.55373  0.93380  1.0000
  C   C986      1.0  0.34885  0.48376  0.86635  1.0000
  H   H778      1.0  0.34045  0.49702  0.80340  1.0000
  C   C987      1.0  0.56484  0.78981  0.50416  1.0000
  C   C988      1.0  0.61865  0.48850  0.65127  1.0000
  H   H779      1.0  0.53609  0.97922  0.53505  1.0000
  H   H780      1.0  0.57786  0.59614  0.50109  1.0000
  C   C989      1.0  0.47892  0.96126  0.50365  1.0000
  S   S136      1.0  0.65175  0.77818  0.98035  1.0000
  C   C990      1.0  0.51582  0.48299  0.50763  1.0000
  H   H781      1.0  0.33514  0.66235  0.87368  1.0000
  C   C991      1.0  0.33545  0.49504  0.83594  1.0000
  H   H782      1.0  0.51341  0.56064  0.49190  1.0000
  C   C992      1.0  0.50085  0.57497  0.48645  1.0000
  H   H783      1.0  0.52144  0.60955  0.48610  1.0000
  C   C993      1.0  0.51058  0.72665  0.48402  1.0000
  H   H784      1.0  0.52554  0.68768  0.48941  1.0000
  H   H785      1.0  0.47225  0.73210  0.98306  1.0000
  C   C994      1.0  0.96811  0.01175  0.28939  1.0000
  S   S137      1.0  0.99606  0.18324  0.44146  1.0000
  S   S138      1.0  0.97470  0.10700  0.42830  1.0000
  C   C995      1.0  0.91695  0.42811  0.11759  1.0000
  H   H786      1.0  0.69929  0.46442  0.01240  1.0000
  C   C996      1.0  0.93926  0.99973  0.24250  1.0000
  Fe  Fe72      1.0  0.97851  0.09894  0.35862  1.0000
  S   S139      1.0  0.95679  0.08795  0.30342  1.0000
  C   C997      1.0  0.82033  0.27277  0.13101  1.0000
  H   H787      1.0  0.87500  0.01995  0.18300  1.0000
  S   S140      1.0  0.86627  0.41971  0.06424  1.0000
  S   S141      1.0  0.87800  0.29109  0.05098  1.0000
  S   S142      1.0  0.72010  0.35785  0.08511  1.0000
  Fe  Fe73      1.0  0.85892  0.11280  0.15422  1.0000
  S   S143      1.0  0.87948  0.11509  0.09620  1.0000
  S   S144      1.0  0.86930  0.12269  0.22127  1.0000
  Fe  Fe74      1.0  0.81901  0.09958  0.10287  1.0000
  S   S145      1.0  0.83699  0.09991  0.04243  1.0000
  S   S146      1.0  0.78343  0.09279  0.10496  1.0000
  Fe  Fe75      1.0  0.86220  0.07743  0.07686  1.0000
  C   C998      1.0  0.84938  0.26164  0.17762  1.0000
  Fe  Fe76      1.0  0.85246  0.13737  0.06650  1.0000
  C   C999      1.0  0.85913  0.28609  0.16770  1.0000
  S   S147      1.0  0.84306  0.07383  0.13647  1.0000
  S   S148      1.0  0.83313  0.13827  0.12594  1.0000
  C   C1000     1.0  0.74766  0.30607  0.19899  1.0000
  C   C1001     1.0  0.73084  0.09157  0.03195  1.0000
  C   C1002     1.0  0.74507  0.08882  0.06574  1.0000
  C   C1003     1.0  0.76668  0.09404  0.06021  1.0000
  H   H788      1.0  0.74705  0.33828  0.15343  1.0000
  H   H789      1.0  0.71414  0.08866  0.03712  1.0000
  H   H790      1.0  0.73917  0.08341  0.09671  1.0000
  C   C1004     1.0  0.85923  0.20342  0.02666  1.0000
  C   C1005     1.0  0.86252  0.45366  0.04930  1.0000
  C   C1006     1.0  0.79989  0.45940  0.08976  1.0000
  C   C1007     1.0  0.85904  0.00292  0.08135  1.0000
  C   C1008     1.0  0.69940  0.42745  0.12387  1.0000
  C   C1009     1.0  0.91817  0.45833  0.17740  1.0000
  H   H791      1.0  0.85735  0.46697  0.11310  1.0000
  H   H792      1.0  0.85395  0.01741  0.10458  1.0000
  C   C1010     1.0  0.87013  0.25762  0.04129  1.0000
  C   C1011     1.0  0.71922  0.02365  0.04225  1.0000
  H   H793      1.0  0.82151  0.22157  0.07898  1.0000
  C   C1012     1.0  0.86614  0.21143  0.06653  1.0000
  C   C1013     1.0  0.87167  0.23844  0.07377  1.0000
  H   H794      1.0  0.86739  0.19667  0.09142  1.0000
  H   H795      1.0  0.87718  0.24451  0.10456  1.0000
  H   H796      1.0  0.75958  0.28295  0.05623  1.0000
  C   C1014     1.0  0.96073  0.04898  0.12645  1.0000
  C   C1015     1.0  0.74104  0.35706  0.04707  1.0000
  C   C1016     1.0  0.76191  0.36176  0.06025  1.0000
  C   C1017     1.0  0.77897  0.36027  0.03151  1.0000
  C   C1018     1.0  0.77619  0.28108  0.14374  1.0000
  H   H797      1.0  0.76498  0.36629  0.09301  1.0000
  H   H798      1.0  0.79491  0.36320  0.04246  1.0000
  C   C1019     1.0  0.93288  0.09960  0.28094  1.0000
  C   C1020     1.0  0.92821  0.09234  0.23907  1.0000
  C   C1021     1.0  0.90887  0.09934  0.22050  1.0000
  C   C1022     1.0  0.89399  0.11399  0.24339  1.0000
  C   C1023     1.0  0.89874  0.12174  0.28499  1.0000
  C   C1024     1.0  0.91806  0.11449  0.30381  1.0000
  H   H799      1.0  0.93943  0.08082  0.22094  1.0000
  H   H800      1.0  0.90527  0.09303  0.18873  1.0000
  H   H801      1.0  0.88726  0.13303  0.30298  1.0000
  H   H802      1.0  0.92133  0.12000  0.33615  1.0000
  C   C1025     1.0  0.70714  0.00989  0.01251  1.0000
  C   C1026     1.0  0.90116  0.03925  0.27193  1.0000
  C   C1027     1.0  0.80246  0.18589  0.08025  1.0000
  C   C1028     1.0  0.97129  0.47403  0.12395  1.0000
  C   C1029     1.0  0.83001  0.25493  0.15934  1.0000
  C   C1030     1.0  0.91400  0.44999  0.09063  1.0000
  C   C1031     1.0  0.81319  0.41733  0.06264  1.0000
  C   C1032     1.0  0.96312  0.16581  0.12298  1.0000
  C   C1033     1.0  0.95264  0.14140  0.11673  1.0000
  C   C1034     1.0  0.93345  0.13644  0.13712  1.0000
  C   C1035     1.0  0.92465  0.15585  0.16365  1.0000
  C   C1036     1.0  0.93496  0.18053  0.16969  1.0000
  C   C1037     1.0  0.95440  0.18524  0.14965  1.0000
  P   P34       1.0  0.92487  0.20494  0.20652  1.0000
  C   C1038     1.0  0.92418  0.23794  0.18267  1.0000
  C   C1039     1.0  0.89757  0.19790  0.21841  1.0000
  C   C1040     1.0  0.89043  0.19488  0.26016  1.0000
  C   C1041     1.0  0.86909  0.18982  0.26837  1.0000
  C   C1042     1.0  0.85475  0.18800  0.23507  1.0000
  C   C1043     1.0  0.86170  0.19140  0.19351  1.0000
  C   C1044     1.0  0.88301  0.19646  0.18522  1.0000
  C   C1045     1.0  0.92135  0.26083  0.20792  1.0000
  C   C1046     1.0  0.91890  0.28618  0.18929  1.0000
  C   C1047     1.0  0.91846  0.28869  0.14534  1.0000
  C   C1048     1.0  0.92067  0.26594  0.12003  1.0000
  C   C1049     1.0  0.92348  0.24065  0.13851  1.0000
  C   C1050     1.0  0.94138  0.20147  0.25258  1.0000
  C   C1051     1.0  0.95471  0.22227  0.26631  1.0000
  C   C1052     1.0  0.96744  0.21856  0.30190  1.0000
  C   C1053     1.0  0.96753  0.19384  0.32304  1.0000
  C   C1054     1.0  0.95490  0.17278  0.30855  1.0000
  C   C1055     1.0  0.94187  0.17660  0.27357  1.0000
  H   H803      1.0  0.97804  0.16953  0.10729  1.0000
  C   C1056     1.0  0.86280  0.24968  0.00166  1.0000
  H   H804      1.0  0.92537  0.11746  0.13265  1.0000
  H   H805      1.0  0.90992  0.15134  0.17963  1.0000
  H   H806      1.0  0.96277  0.20391  0.15491  1.0000
  H   H807      1.0  0.90122  0.19614  0.28645  1.0000
  H   H808      1.0  0.86373  0.18663  0.30049  1.0000
  H   H809      1.0  0.83837  0.18314  0.24138  1.0000
  H   H810      1.0  0.85066  0.18957  0.16767  1.0000
  H   H811      1.0  0.88824  0.19884  0.15288  1.0000
  H   H812      1.0  0.92046  0.25903  0.24197  1.0000
  H   H813      1.0  0.91666  0.30378  0.20888  1.0000
  H   H814      1.0  0.91573  0.30812  0.13070  1.0000
  H   H815      1.0  0.91937  0.26783  0.08598  1.0000
  H   H816      1.0  0.92418  0.22321  0.11816  1.0000
  H   H817      1.0  0.95546  0.24124  0.24973  1.0000
  H   H818      1.0  0.97729  0.23483  0.31326  1.0000
  H   H819      1.0  0.97740  0.19088  0.35063  1.0000
  H   H820      1.0  0.95524  0.15342  0.32445  1.0000
  H   H821      1.0  0.93221  0.16007  0.26262  1.0000
  C   C1057     1.0  0.75359  0.31880  0.16143  1.0000
  C   C1058     1.0  0.97084  0.98473  0.29996  1.0000
  C   C1059     1.0  0.93033  0.03189  0.16536  1.0000
  C   C1060     1.0  0.91917  0.43228  0.16095  1.0000
  H   H822      1.0  0.73950  0.46115  0.07601  1.0000
  H   H823      1.0  0.77287  0.31703  0.10584  1.0000
  C   C1061     1.0  0.80734  0.99016  0.00714  1.0000
  H   H824      1.0  0.79826  0.47356  0.11542  1.0000
  H   H825      1.0  0.95073  0.04020  0.25282  1.0000
  H   H826      1.0  0.96667  0.00673  0.43645  1.0000
  S   S149      1.0  0.88037  0.04470  0.04281  1.0000
  C   C1062     1.0  0.75636  0.28116  0.20957  1.0000
  H   H827      1.0  0.82194  0.39896  0.06746  1.0000
  C   C1063     1.0  0.77065  0.21820  0.11395  1.0000
  C   C1064     1.0  0.89794  0.02710  0.23244  1.0000
  C   C1065     1.0  0.79118  0.20869  0.98686  1.0000
  C   C1066     1.0  0.80697  0.03678  0.02888  1.0000
  H   H828      1.0  0.97803  0.02711  0.30351  1.0000
  C   C1067     1.0  0.68425  0.17233  0.07075  1.0000
  H   H829      1.0  0.95940  0.12626  0.09628  1.0000
  H   H830      1.0  0.81807  0.43109  0.12611  1.0000
  C   C1068     1.0  0.75992  0.10270  0.98579  1.0000
  C   C1069     1.0  0.71938  0.43251  0.10696  1.0000
  C   C1070     1.0  0.71427  0.18148  0.02481  1.0000
  C   C1071     1.0  0.71447  0.98572  0.99553  1.0000
  C   C1072     1.0  0.79057  0.22942  0.10526  1.0000
  C   C1073     1.0  0.79127  0.46525  0.05026  1.0000
  C   C1074     1.0  0.76802  0.30653  0.13418  1.0000
  H   H831      1.0  0.72899  0.22740  0.06891  1.0000
  P   P35       1.0  0.79490  0.26517  0.10883  1.0000
  C   C1075     1.0  0.87214  0.01095  0.04810  1.0000
  C   C1076     1.0  0.79410  0.44746  0.01634  1.0000
  C   C1077     1.0  0.94845  0.98369  0.48127  1.0000
  Fe  Fe77      1.0  0.86361  0.38673  0.01501  1.0000
  C   C1078     1.0  0.77411  0.10082  0.01988  1.0000
  C   C1079     1.0  0.70885  0.47824  0.08973  1.0000
  H   H832      1.0  0.96283  0.13639  0.22017  1.0000
  C   C1080     1.0  0.83002  0.29752  0.12192  1.0000
  C   C1081     1.0  0.77367  0.28281  0.03711  1.0000
  C   C1082     1.0  0.78290  0.17460  0.09045  1.0000
  C   C1083     1.0  0.86429  0.46174  0.00717  1.0000
  C   C1084     1.0  0.71656  0.14743  0.07971  1.0000
  H   H833      1.0  0.80355  0.04354  0.09569  1.0000
  C   C1085     1.0  0.69354  0.18706  0.03796  1.0000
  H   H834      1.0  0.74837  0.02464  0.07694  1.0000
  C   C1086     1.0  0.81093  0.43547  0.09588  1.0000
  H   H835      1.0  0.92374  0.98698  0.11962  1.0000
  H   H836      1.0  0.75783  0.23057  0.12524  1.0000
  H   H837      1.0  0.81446  0.17368  0.06532  1.0000
  C   C1087     1.0  0.72210  0.23681  0.00369  1.0000
  H   H838      1.0  0.73649  0.31570  0.22004  1.0000
  C   C1088     1.0  0.72408  0.45775  0.08982  1.0000
  C   C1089     1.0  0.71892  0.26832  0.06197  1.0000
  H   H839      1.0  0.82657  0.27143  0.04204  1.0000
  H   H840      1.0  0.80729  0.05800  0.02154  1.0000
  C   C1090     1.0  0.81130  0.27641  0.02914  1.0000
  H   H841      1.0  0.82271  0.31171  0.10052  1.0000
  H   H842      1.0  0.85717  0.32277  0.13155  1.0000
  C   C1091     1.0  0.68876  0.47295  0.10665  1.0000
  C   C1092     1.0  0.97972  0.13332  0.22124  1.0000
  C   C1093     1.0  0.84943  0.30403  0.13996  1.0000
  C   C1094     1.0  0.87898  0.99176  0.01862  1.0000
  C   C1095     1.0  0.73884  0.01359  0.05447  1.0000
  H   H843      1.0  0.72018  0.27285  0.09531  1.0000
  H   H844      1.0  0.85691  0.24790  0.19935  1.0000
  C   C1096     1.0  0.80458  0.02869  0.07090  1.0000
  C   C1097     1.0  0.79328  0.27671  0.05499  1.0000
  C   C1098     1.0  0.95227  0.03297  0.15869  1.0000
  H   H845      1.0  0.87424  0.29112  0.18128  1.0000
  C   C1099     1.0  0.71222  0.28825  0.03401  1.0000
  C   C1100     1.0  0.99267  0.23553  0.47240  1.0000
  C   C1101     1.0  0.76701  0.19076  0.10740  1.0000
  H   H846      1.0  0.88936  0.99780  0.99313  1.0000
  C   C1102     1.0  0.94738  0.06350  0.09991  1.0000
  C   C1103     1.0  0.80492  0.42327  0.02287  1.0000
  C   C1104     1.0  0.80638  0.21310  0.08795  1.0000
  H   H847      1.0  0.82262  0.23596  0.16744  1.0000
  H   H848      1.0  0.78003  0.15339  0.08468  1.0000
  C   C1105     1.0  0.77073  0.26880  0.18223  1.0000
  Fe  Fe78      1.0  0.68503  0.35168  0.06967  1.0000
  H   H849      1.0  0.73106  0.41661  0.10640  1.0000
  H   H850      1.0  0.77761  0.24970  0.19112  1.0000
  H   H851      1.0  0.87687  0.47449  0.18651  1.0000
  S   S150      1.0  0.89031  0.35960  0.99685  1.0000
  H   H852      1.0  0.90008  0.04535  0.14151  1.0000
  C   C1106     1.0  0.77206  0.28833  0.99401  1.0000
  H   H853      1.0  0.91515  0.07283  0.08455  1.0000
  P   P36       1.0  0.91915  0.00992  0.20523  1.0000
  C   C1107     1.0  0.86169  0.04305  0.23346  1.0000
  C   C1108     1.0  0.80882  0.01758  0.99673  1.0000
  H   H854      1.0  0.76523  0.23280  0.00762  1.0000
  C   C1109     1.0  0.91706  0.04647  0.13834  1.0000
  H   H855      1.0  0.92094  0.41522  0.18193  1.0000
  H   H856      1.0  0.68851  0.14105  0.11694  1.0000
  H   H857      1.0  0.72559  0.13251  0.09665  1.0000
  C   C1110     1.0  0.92558  0.06215  0.10579  1.0000
  C   C1111     1.0  0.72574  0.16149  0.04602  1.0000
  H   H858      1.0  0.75178  0.18205  0.11490  1.0000
  S   S151      1.0  0.84227  0.35222  0.03185  1.0000
  Fe  Fe79      1.0  0.86789  0.32529  0.00784  1.0000
  C   C1112     1.0  0.80393  0.00144  0.08116  1.0000
  H   H859      1.0  0.69572  0.40770  0.13651  1.0000
  H   H860      1.0  0.96292  0.02113  0.17769  1.0000
  C   C1113     1.0  0.95250  0.01917  0.26068  1.0000
  C   C1114     1.0  0.80546  0.98221  0.04931  1.0000
  C   C1115     1.0  0.87799  0.02905  0.21345  1.0000
  C   C1116     1.0  0.68409  0.44762  0.12366  1.0000
  H   H861      1.0  0.75207  0.27152  0.23908  1.0000
  C   C1117     1.0  0.86517  0.05542  0.27232  1.0000
  H   H862      1.0  0.95387  0.07537  0.07426  1.0000
  C   C1118     1.0  0.72401  0.24274  0.04686  1.0000
  H   H863      1.0  0.85276  0.06712  0.28699  1.0000
  C   C1119     1.0  0.69573  0.15248  0.09158  1.0000
  S   S152      1.0  0.67624  0.34659  0.00221  1.0000
  C   C1120     1.0  0.74600  0.98912  0.03823  1.0000
  C   C1121     1.0  0.73815  0.09875  0.99187  1.0000
  H   H864      1.0  0.74184  0.15689  0.03731  1.0000
  H   H865      1.0  0.98483  0.23959  0.44283  1.0000
  H   H866      1.0  0.91626  0.03861  0.28748  1.0000
  H   H867      1.0  0.97765  0.04970  0.12157  1.0000
  H   H868      1.0  0.72007  0.40742  0.02118  1.0000
  H   H869      1.0  0.80302  0.22316  0.99635  1.0000
  S   S153      1.0  0.85316  0.16955  0.01568  1.0000
  C   C1122     1.0  0.88484  0.05335  0.29167  1.0000
  H   H870      1.0  0.88769  0.06341  0.32142  1.0000
  C   C1123     1.0  0.98807  0.46778  0.15068  1.0000
  H   H871      1.0  0.95932  0.45905  0.11723  1.0000
  H   H872      1.0  0.79069  0.10486  0.01502  1.0000
  H   H873      1.0  0.69192  0.01782  0.00303  1.0000
  C   C1124     1.0  0.96179  0.98675  0.44641  1.0000
  H   H874      1.0  0.91676  0.40789  0.10485  1.0000
  H   H875      1.0  0.91138  0.44661  0.05722  1.0000
  H   H876      1.0  0.70826  0.30803  0.04568  1.0000
  H   H877      1.0  0.84643  0.04479  0.21849  1.0000
  H   H878      1.0  0.83944  0.48006  0.20419  1.0000
  H   H879      1.0  0.68461  0.20302  0.02312  1.0000
  C   C1125     1.0  0.80968  0.28214  0.98609  1.0000
  H   H880      1.0  0.91893  0.46105  0.21127  1.0000
  C   C1126     1.0  0.91302  0.47605  0.10690  1.0000
  S   S154      1.0  0.66777  0.09625  0.01720  1.0000
  H   H881      1.0  0.97701  0.09012  0.22006  1.0000
  C   C1127     1.0  0.71037  0.28258  0.99105  1.0000
  H   H882      1.0  0.75524  0.42798  0.02739  1.0000
  C   C1128     1.0  0.85884  0.47316  0.08052  1.0000
  C   C1129     1.0  0.85738  0.22265  0.99440  1.0000
  S   S155      1.0  0.66427  0.31723  0.09255  1.0000
  C   C1130     1.0  0.98767  0.10714  0.22118  1.0000
  C   C1131     1.0  0.76976  0.21408  0.99323  1.0000
  C   C1132     1.0  0.74719  0.42905  0.99742  1.0000
  C   C1133     1.0  0.73745  0.35183  0.00428  1.0000
  H   H883      1.0  0.80268  0.99520  0.11385  1.0000
  C   C1134     1.0  0.77536  0.35501  0.98874  1.0000
  H   H884      1.0  0.98911  0.44793  0.16468  1.0000
  H   H885      1.0  0.71328  0.04205  0.05595  1.0000
  H   H886      1.0  0.66812  0.17635  0.08012  1.0000
  H   H887      1.0  0.66845  0.44348  0.13606  1.0000
  H   H888      1.0  0.72160  0.34851  0.99321  1.0000
  H   H889      1.0  0.98702  0.17535  0.22628  1.0000
  H   H890      1.0  0.66600  0.29714  0.26072  1.0000
  C   C1135     1.0  0.72730  0.41702  0.99396  1.0000
  H   H891      1.0  0.99554  0.22809  0.11909  1.0000
  C   C1136     1.0  0.99348  0.15527  0.22450  1.0000
  H   H892      1.0  0.80706  0.40901  0.99739  1.0000
  C   C1137     1.0  0.91516  0.48050  0.15048  1.0000
  P   P37       1.0  0.72666  0.20286  0.98564  1.0000
  C   C1138     1.0  0.99369  0.34376  0.81831  1.0000
  H   H893      1.0  0.76418  0.06824  0.83654  1.0000
  S   S156      1.0  0.97628  0.35118  0.58893  1.0000
  H   H894      1.0  0.82566  0.12661  0.93483  1.0000
  C   C1139     1.0  0.74608  0.44105  0.92333  1.0000
  H   H895      1.0  0.85202  0.21657  0.96348  1.0000
  Fe  Fe80      1.0  0.97174  0.35492  0.66000  1.0000
  S   S157      1.0  0.93964  0.34974  0.69369  1.0000
  C   C1140     1.0  0.79911  0.44007  0.92444  1.0000
  Fe  Fe81      1.0  0.87746  0.36107  0.93036  1.0000
  H   H896      1.0  0.98859  0.26604  0.66131  1.0000
  S   S158      1.0  0.90441  0.36923  0.88218  1.0000
  C   C1141     1.0  0.84118  0.98686  0.93117  1.0000
  S   S159      1.0  0.79627  0.35251  0.95099  1.0000
  H   H897      1.0  0.91457  0.32047  0.62401  1.0000
  H   H898      1.0  0.77991  0.40404  0.91960  1.0000
  S   S160      1.0  0.85187  0.39081  0.94865  1.0000
  S   S161      1.0  0.85618  0.32488  0.94082  1.0000
  Fe  Fe82      1.0  0.68502  0.09779  0.95563  1.0000
  S   S162      1.0  0.72060  0.10358  0.94901  1.0000
  H   H899      1.0  0.86171  0.26426  0.97640  1.0000
  H   H900      1.0  0.76573  0.10756  0.95461  1.0000
  H   H901      1.0  0.76882  0.02503  0.97737  1.0000
  H   H902      1.0  0.98290  0.36036  0.82293  1.0000
  H   H903      1.0  0.88089  0.19180  0.68492  1.0000
  H   H904      1.0  0.86420  0.12206  0.94343  1.0000
  H   H905      1.0  0.67004  0.18015  0.88442  1.0000
  H   H906      1.0  0.85769  0.03652  0.95306  1.0000
  C   C1142     1.0  0.78489  0.04964  0.88183  1.0000
  H   H907      1.0  0.75135  0.34728  0.94235  1.0000
  C   C1143     1.0  0.93033  0.35520  0.74643  1.0000
  C   C1144     1.0  0.91045  0.34487  0.75843  1.0000
  C   C1145     1.0  0.90234  0.34865  0.79970  1.0000
  C   C1146     1.0  0.91392  0.36309  0.82967  1.0000
  C   C1147     1.0  0.93384  0.37335  0.81765  1.0000
  C   C1148     1.0  0.94200  0.36944  0.77646  1.0000
  H   H908      1.0  0.90122  0.33385  0.73560  1.0000
  H   H909      1.0  0.88703  0.34063  0.80817  1.0000
  H   H910      1.0  0.94294  0.38464  0.84036  1.0000
  H   H911      1.0  0.95717  0.37780  0.76773  1.0000
  H   H912      1.0  0.68901  0.46124  0.93833  1.0000
  C   C1149     1.0  0.74719  0.05455  0.89140  1.0000
  H   H913      1.0  0.70162  0.40694  0.95260  1.0000
  C   C1150     1.0  0.82428  0.41559  0.86219  1.0000
  H   H914      1.0  0.74661  0.98542  0.92796  1.0000
  Fe  Fe83      1.0  0.83170  0.35461  0.96484  1.0000
  C   C1151     1.0  0.99199  0.24652  0.67476  1.0000
  C   C1152     1.0  0.98083  0.20514  0.70856  1.0000
  C   C1153     1.0  0.79357  0.41486  0.90788  1.0000
  C   C1154     1.0  0.78648  0.03704  0.92145  1.0000
  H   H915      1.0  0.71834  0.42809  0.88972  1.0000
  H   H916      1.0  0.73207  0.06197  0.88051  1.0000
  H   H917      1.0  0.93163  0.15634  0.61417  1.0000
  H   H918      1.0  0.76724  0.98942  0.86224  1.0000
  H   H919      1.0  0.95909  0.27897  0.54532  1.0000
  H   H920      1.0  0.80184  0.38304  0.86503  1.0000
  H   H921      1.0  0.75331  0.44989  0.89553  1.0000
  C   C1155     1.0  0.98457  0.46877  0.53940  1.0000
  H   H922      1.0  0.73469  0.04065  0.95075  1.0000
  H   H923      1.0  0.74241  0.21628  0.90163  1.0000
  C   C1156     1.0  0.92584  0.17188  0.63516  1.0000
  C   C1157     1.0  0.82535  0.00238  0.91211  1.0000
  C   C1158     1.0  0.91063  0.21284  0.68735  1.0000
  C   C1159     1.0  0.93188  0.21299  0.67473  1.0000
  C   C1160     1.0  0.93924  0.19278  0.64754  1.0000
  P   P38       1.0  0.94870  0.24095  0.68807  1.0000
  H   H924      1.0  0.98670  0.46853  0.84363  1.0000
  C   C1161     1.0  0.94425  0.26524  0.64666  1.0000
  C   C1162     1.0  0.95448  0.26245  0.60750  1.0000
  C   C1163     1.0  0.92932  0.28578  0.65186  1.0000
  C   C1164     1.0  0.82054  0.99770  0.86947  1.0000
  C   C1165     1.0  0.71695  0.41659  0.95518  1.0000
  C   C1166     1.0  0.83020  0.44039  0.87905  1.0000
  H   H925      1.0  0.75692  0.29336  0.98047  1.0000
  H   H926      1.0  0.80854  0.00912  0.85354  1.0000
  C   C1167     1.0  0.94308  0.25374  0.74020  1.0000
  C   C1168     1.0  0.93554  0.23645  0.77201  1.0000
  C   C1169     1.0  0.93124  0.24636  0.81243  1.0000
  C   C1170     1.0  0.93477  0.27347  0.82156  1.0000
  C   C1171     1.0  0.94296  0.29055  0.79052  1.0000
  C   C1172     1.0  0.94730  0.28073  0.75007  1.0000
  H   H927      1.0  0.89449  0.15524  0.63912  1.0000
  H   H928      1.0  0.90432  0.22907  0.70631  1.0000
  H   H929      1.0  0.95522  0.19333  0.63531  1.0000
  H   H930      1.0  0.96565  0.24634  0.60207  1.0000
  H   H931      1.0  0.92076  0.28810  0.68124  1.0000
  H   H932      1.0  0.80277  0.08655  0.93577  1.0000
  H   H933      1.0  0.78714  0.14681  0.94247  1.0000
  H   H934      1.0  0.78889  0.29293  0.93526  1.0000
  C   C1173     1.0  0.97577  0.23006  0.69034  1.0000
  C   C1174     1.0  0.99070  0.45988  0.65547  1.0000
  H   H935      1.0  0.93285  0.21535  0.76558  1.0000
  H   H936      1.0  0.92496  0.23313  0.83665  1.0000
  H   H937      1.0  0.93108  0.28138  0.85261  1.0000
  H   H938      1.0  0.94562  0.31156  0.79775  1.0000
  H   H939      1.0  0.95367  0.29434  0.72643  1.0000
  C   C1175     1.0  0.68594  0.18768  0.88818  1.0000
  C   C1176     1.0  0.69725  0.19679  0.85304  1.0000
  C   C1177     1.0  0.71769  0.20679  0.85802  1.0000
  C   C1178     1.0  0.79746  0.18435  0.96894  1.0000
  C   C1179     1.0  0.74865  0.04245  0.93105  1.0000
  C   C1180     1.0  0.69506  0.18834  0.92830  1.0000
  C   C1181     1.0  0.72673  0.20789  0.89819  1.0000
  C   C1182     1.0  0.81779  0.45250  0.91023  1.0000
  H   H940      1.0  0.68611  0.18081  0.95487  1.0000
  H   H941      1.0  0.96211  0.43727  0.64579  1.0000
  H   H942      1.0  0.83419  0.40592  0.83879  1.0000
  C   C1183     1.0  0.95064  0.28077  0.57493  1.0000
  H   H943      1.0  0.93361  0.31615  0.55583  1.0000
  S   S163      1.0  0.99503  0.04480  0.49252  1.0000
  C   C1184     1.0  0.93624  0.30163  0.58079  1.0000
  H   H944      1.0  0.97865  0.21233  0.81201  1.0000
  C   C1185     1.0  0.76817  0.03376  0.94612  1.0000
  H   H945      1.0  0.94125  0.46391  0.69709  1.0000
  H   H946      1.0  0.96858  0.19235  0.72155  1.0000
  C   C1186     1.0  0.76529  0.05815  0.86677  1.0000
  C   C1187     1.0  0.96947  0.45371  0.66278  1.0000
  C   C1188     1.0  0.98855  0.00366  0.55115  1.0000
  H   H947      1.0  0.79890  0.05374  0.86322  1.0000
  H   H948      1.0  0.84469  0.44996  0.86865  1.0000
  C   C1189     1.0  0.71546  0.19867  0.93370  1.0000
  H   H949      1.0  0.88002  0.07683  0.95320  1.0000
  H   H950      1.0  0.69014  0.19615  0.82203  1.0000
  H   H951      1.0  0.72649  0.21394  0.83084  1.0000
  H   H952      1.0  0.97403  0.46119  0.56354  1.0000
  P   P39       1.0  0.78309  0.45525  0.96543  1.0000
  H   H953      1.0  0.98329  0.43940  0.78045  1.0000
  C   C1190     1.0  0.89726  0.19189  0.67497  1.0000
  C   C1191     1.0  0.92549  0.30402  0.61913  1.0000
  H   H954      1.0  0.66433  0.13664  0.82718  1.0000
  H   H955      1.0  0.67399  0.15261  0.75558  1.0000
  H   H956      1.0  0.84541  0.99024  0.96374  1.0000
  C   C1192     1.0  0.69575  0.47980  0.95002  1.0000
  C   C1193     1.0  0.75443  0.35119  0.97532  1.0000
  C   C1194     1.0  0.80603  0.40279  0.87676  1.0000
  H   H957      1.0  0.97936  0.01854  0.56787  1.0000
  C   C1195     1.0  0.90489  0.17134  0.64906  1.0000
  H   H958      1.0  0.97849  0.33016  0.76170  1.0000
  C   C1196     1.0  0.95772  0.46878  0.69158  1.0000
  C   C1197     1.0  0.75667  0.44144  0.96220  1.0000
  C   C1198     1.0  0.72635  0.42856  0.91984  1.0000
  C   C1199     1.0  0.86325  0.07879  0.94742  1.0000
  C   C1200     1.0  0.85435  0.10422  0.94199  1.0000
  C   C1201     1.0  0.83256  0.10677  0.93717  1.0000
  C   C1202     1.0  0.81966  0.08389  0.93761  1.0000
  C   C1203     1.0  0.82857  0.05811  0.94166  1.0000
  C   C1204     1.0  0.85044  0.05585  0.94740  1.0000
  P   P40       1.0  0.81209  0.02831  0.94254  1.0000
  C   C1205     1.0  0.99540  0.25675  0.50187  1.0000
  C   C1206     1.0  0.79005  0.28789  0.96846  1.0000
  H   H959      1.0  0.82311  0.47133  0.92327  1.0000
  H   H960      1.0  0.82366  0.28225  0.96637  1.0000
  S   S164      1.0  0.66794  0.06214  0.92831  1.0000
  H   H961      1.0  0.66666  0.03347  0.80670  1.0000
  H   H962      1.0  0.98982  0.27672  0.49442  1.0000
  H   H963      1.0  0.81411  0.18001  0.96495  1.0000
  S   S165      1.0  0.99399  0.39003  0.66541  1.0000
  C   C1207     1.0  0.99115  0.32660  0.78392  1.0000
  H   H964      1.0  0.74914  0.15657  0.95190  1.0000
  C   C1208     1.0  0.78227  0.16562  0.95648  1.0000
  H   H965      1.0  0.86720  0.44694  0.98289  1.0000
  C   C1209     1.0  0.76081  0.17117  0.96206  1.0000
  H   H966      1.0  0.94293  0.00135  0.49791  1.0000
  H   H967      1.0  0.99534  0.25565  0.79722  1.0000
  C   C1210     1.0  0.99564  0.21421  0.81422  1.0000
  S   S166      1.0  0.99658  0.32419  0.67332  1.0000
  H   H968      1.0  0.71301  0.25295  0.94266  1.0000
  C   C1211     1.0  0.75442  0.19540  0.98080  1.0000
  C   C1212     1.0  0.71520  0.25695  0.97587  1.0000
  H   H969      1.0  0.70462  0.29792  0.96965  1.0000
  C   C1213     1.0  0.93825  0.55326  0.13868  1.0000
  P   P41       1.0  0.91147  0.51376  0.17236  1.0000
  S   S167      1.0  0.97124  0.60597  0.41294  1.0000
  H   H970      1.0  0.97996  0.96656  0.39877  1.0000
  C   C1214     1.0  0.68408  0.66371  0.02047  1.0000
  Fe  Fe84      1.0  0.67458  0.84963  0.07435  1.0000
  Fe  Fe85      1.0  0.97953  0.60625  0.34336  1.0000
  S   S168      1.0  0.96204  0.60463  0.27936  1.0000
  H   H971      1.0  0.93970  0.87122  0.41490  1.0000
  H   H972      1.0  0.79722  0.71752  0.01880  1.0000
  S   S169      1.0  0.84821  0.92413  0.05791  1.0000
  C   C1215     1.0  0.77059  0.52062  0.12669  1.0000
  S   S170      1.0  0.70993  0.85544  0.08710  1.0000
  Fe  Fe86      1.0  0.85595  0.61305  0.13240  1.0000
  S   S171      1.0  0.87440  0.61188  0.07149  1.0000
  S   S172      1.0  0.86938  0.61652  0.19975  1.0000
  Fe  Fe87      1.0  0.81302  0.60957  0.08523  1.0000
  H   H973      1.0  0.84723  0.56585  0.20497  1.0000
  S   S173      1.0  0.77703  0.60938  0.09076  1.0000
  Fe  Fe88      1.0  0.85163  0.57899  0.05304  1.0000
  C   C1216     1.0  0.86321  0.48917  0.99658  1.0000
  Fe  Fe89      1.0  0.84991  0.64059  0.04656  1.0000
  C   C1217     1.0  0.94313  0.72401  0.32605  1.0000
  S   S174      1.0  0.83430  0.57854  0.11487  1.0000
  S   S175      1.0  0.83285  0.64421  0.10838  1.0000
  H   H974      1.0  0.97348  0.49922  0.26434  1.0000
  C   C1218     1.0  0.72407  0.60379  0.01804  1.0000
  C   C1219     1.0  0.73799  0.60625  0.05254  1.0000
  C   C1220     1.0  0.75998  0.60637  0.04642  1.0000
  H   H975      1.0  0.88452  0.56079  0.18461  1.0000
  H   H976      1.0  0.70721  0.60343  0.02334  1.0000
  H   H977      1.0  0.73169  0.60804  0.08415  1.0000
  H   H978      1.0  0.67486  0.64542  0.02127  1.0000
  C   C1221     1.0  0.85826  0.95714  0.05380  1.0000
  S   S176      1.0  0.83059  0.85608  0.02233  1.0000
  C   C1222     1.0  0.96371  0.93834  0.43922  1.0000
  H   H979      1.0  0.66940  0.67968  0.07627  1.0000
  C   C1223     1.0  0.90125  0.90026  0.47490  1.0000
  H   H980      1.0  0.84240  0.96989  0.11052  1.0000
  H   H981      1.0  0.85461  0.51546  0.09414  1.0000
  C   C1224     1.0  0.86225  0.76373  0.02748  1.0000
  H   H982      1.0  0.96162  0.53163  0.31888  1.0000
  H   H983      1.0  0.94845  0.54985  0.16545  1.0000
  C   C1225     1.0  0.85820  0.71737  0.05236  1.0000
  C   C1226     1.0  0.86098  0.74497  0.06068  1.0000
  H   H984      1.0  0.85727  0.70308  0.07808  1.0000
  H   H985      1.0  0.86227  0.75181  0.09295  1.0000
  C   C1227     1.0  0.84091  0.52330  0.20573  1.0000
  C   C1228     1.0  0.78302  0.53461  0.09756  1.0000
  C   C1229     1.0  0.72994  0.85354  0.04711  1.0000
  C   C1230     1.0  0.75119  0.85102  0.05904  1.0000
  C   C1231     1.0  0.76760  0.85094  0.02869  1.0000
  H   H986      1.0  0.75118  0.78965  0.00419  1.0000
  H   H987      1.0  0.75499  0.84960  0.09213  1.0000
  C   C1232     1.0  0.75422  0.90769  0.10583  1.0000
  C   C1233     1.0  0.93597  0.60740  0.25832  1.0000
  C   C1234     1.0  0.93310  0.60516  0.21436  1.0000
  C   C1235     1.0  0.91291  0.60738  0.19592  1.0000
  C   C1236     1.0  0.89515  0.61174  0.22130  1.0000
  C   C1237     1.0  0.89792  0.61336  0.26537  1.0000
  C   C1238     1.0  0.91817  0.61143  0.28376  1.0000
  H   H988      1.0  0.94659  0.60182  0.19426  1.0000
  H   H989      1.0  0.91113  0.60607  0.16205  1.0000
  H   H990      1.0  0.88434  0.61669  0.28542  1.0000
  H   H991      1.0  0.91998  0.61308  0.31759  1.0000
  H   H992      1.0  0.74499  0.90144  0.13300  1.0000
  C   C1239     1.0  0.85247  0.97600  0.08458  1.0000
  H   H993      1.0  0.90976  0.49233  0.08532  1.0000
  H   H994      1.0  0.87275  0.87217  0.39543  1.0000
  S   S177      1.0  0.82898  0.60758  0.02254  1.0000
  H   H995      1.0  0.97424  0.82386  0.20289  1.0000
  C   C1240     1.0  0.98804  0.78902  0.23233  1.0000
  C   C1241     1.0  0.80262  0.70116  0.13921  1.0000
  C   C1242     1.0  0.78781  0.68057  0.13383  1.0000
  C   C1243     1.0  0.77018  0.68477  0.10846  1.0000
  C   C1244     1.0  0.76722  0.70962  0.08870  1.0000
  C   C1245     1.0  0.78176  0.73063  0.09468  1.0000
  C   C1246     1.0  0.79971  0.72606  0.11946  1.0000
  P   P42       1.0  0.77822  0.76218  0.06725  1.0000
  C   C1247     1.0  0.75029  0.76946  0.06496  1.0000
  C   C1248     1.0  0.79122  0.78900  0.09551  1.0000
  C   C1249     1.0  0.77991  0.80568  0.12318  1.0000
  C   C1250     1.0  0.79005  0.82692  0.14379  1.0000
  C   C1251     1.0  0.81156  0.83151  0.13722  1.0000
  C   C1252     1.0  0.82298  0.81474  0.11027  1.0000
  C   C1253     1.0  0.81287  0.79367  0.08932  1.0000
  C   C1254     1.0  0.73712  0.76224  0.09902  1.0000
  C   C1255     1.0  0.71552  0.76769  0.09771  1.0000
  C   C1256     1.0  0.70692  0.78050  0.06256  1.0000
  C   C1257     1.0  0.71994  0.78847  0.02930  1.0000
  C   C1258     1.0  0.74153  0.78293  0.03026  1.0000
  H   H996      1.0  0.95213  0.49190  0.20039  1.0000
  H   H997      1.0  0.82442  0.52575  0.21392  1.0000
  H   H998      1.0  0.94045  0.80085  0.18665  1.0000
  Fe  Fe90      1.0  0.84981  0.89261  0.00619  1.0000
  C   C1259     1.0  0.67700  0.53789  0.07077  1.0000
  H   H999      1.0  0.78749  0.80278  0.00286  1.0000
  H   H1000     1.0  0.81657  0.69761  0.15807  1.0000
  H   H1001     1.0  0.79021  0.66110  0.14854  1.0000
  H   H1002     1.0  0.75906  0.66846  0.10348  1.0000
  H   H1003     1.0  0.75366  0.71238  0.06851  1.0000
  H   H1004     1.0  0.81161  0.74150  0.12323  1.0000
  H   H1005     1.0  0.76319  0.80280  0.12836  1.0000
  H   H1006     1.0  0.81941  0.84813  0.15269  1.0000
  H   H1007     1.0  0.83965  0.81833  0.10488  1.0000
  H   H1008     1.0  0.82198  0.78119  0.06801  1.0000
  H   H1009     1.0  0.74357  0.75260  0.12677  1.0000
  H   H1010     1.0  0.70542  0.76216  0.12399  1.0000
  H   H1011     1.0  0.69019  0.78451  0.06099  1.0000
  H   H1012     1.0  0.68426  0.93307  0.16376  1.0000
  C   C1260     1.0  0.72533  0.85526  0.00400  1.0000
  H   H1013     1.0  0.92958  0.73027  0.30781  1.0000
  C   C1261     1.0  0.91915  0.53914  0.13437  1.0000
  H   H1014     1.0  0.72274  0.55760  0.11810  1.0000
  C   C1262     1.0  0.75018  0.51259  0.11586  1.0000
  C   C1263     1.0  0.95005  0.76301  0.21360  1.0000
  H   H1015     1.0  0.68462  0.88556  0.18757  1.0000
  C   C1264     1.0  0.85730  0.50060  0.06983  1.0000
  H   H1016     1.0  0.96967  0.92101  0.42240  1.0000
  H   H1017     1.0  0.93502  0.75358  0.20694  1.0000
  H   H1018     1.0  0.78112  0.83998  0.16446  1.0000
  S   S178      1.0  0.86056  0.54301  0.01275  1.0000
  H   H1019     1.0  0.70093  0.93266  0.03000  1.0000
  C   C1265     1.0  0.91244  0.56335  0.06911  1.0000
  C   C1266     1.0  0.68107  0.68305  0.05173  1.0000
  C   C1267     1.0  0.92032  0.53664  0.25101  1.0000
  C   C1268     1.0  0.85374  0.54591  0.20052  1.0000
  C   C1269     1.0  0.90656  0.86993  0.40139  1.0000
  C   C1270     1.0  0.77759  0.92224  0.03446  1.0000
  C   C1271     1.0  0.78762  0.91061  0.06924  1.0000
  C   C1272     1.0  0.69340  0.57854  0.12191  1.0000
  H   H1020     1.0  0.90862  0.85829  0.37281  1.0000
  H   H1021     1.0  0.88113  0.92006  0.12379  1.0000
  H   H1022     1.0  0.69988  0.59459  0.14099  1.0000
  H   H1023     1.0  0.95879  0.58355  0.11238  1.0000
  H   H1024     1.0  0.88990  0.67079  0.16869  1.0000
  C   C1273     1.0  0.95192  0.52770  0.29141  1.0000
  C   C1274     1.0  0.90776  0.98088  0.17964  1.0000
  C   C1275     1.0  0.94209  0.72493  0.37018  1.0000
  C   C1276     1.0  0.69820  0.53679  0.08320  1.0000
  C   C1277     1.0  0.76786  0.60422  0.00528  1.0000
  C   C1278     1.0  0.96993  0.49961  0.10588  1.0000
  C   C1279     1.0  0.94426  0.57240  0.10849  1.0000
  H   H1025     1.0  0.79866  0.54136  0.10609  1.0000
  C   C1280     1.0  0.98517  0.76203  0.24349  1.0000
  C   C1281     1.0  0.97812  0.70937  0.37425  1.0000
  C   C1282     1.0  0.69826  0.66843  0.98738  1.0000
  H   H1026     1.0  0.92788  0.55569  0.31015  1.0000
  H   H1027     1.0  0.78380  0.84930  0.03879  1.0000
  C   C1283     1.0  0.96630  0.74868  0.23351  1.0000
  C   C1284     1.0  0.88370  0.94274  0.18151  1.0000
  P   P43       1.0  0.96286  0.71395  0.24871  1.0000
  C   C1285     1.0  0.89316  0.96470  0.20151  1.0000
  C   C1286     1.0  0.70937  0.50623  0.00851  1.0000
  H   H1028     1.0  0.99395  0.70242  0.31579  1.0000
  H   H1029     1.0  0.71583  0.73031  0.01735  1.0000
  C   C1287     1.0  0.79007  0.76013  0.01540  1.0000
  H   H1030     1.0  0.67653  0.48805  0.10616  1.0000
  C   C1288     1.0  0.77597  0.90344  0.10496  1.0000
  C   C1289     1.0  0.92411  0.68657  0.24750  1.0000
  S   S179      1.0  0.86728  0.79789  0.03913  1.0000
  C   C1290     1.0  0.96933  0.96409  0.42529  1.0000
  C   C1291     1.0  0.88372  0.89304  0.45073  1.0000
  H   H1031     1.0  0.90239  0.56710  0.04206  1.0000
  H   H1032     1.0  0.68999  0.72208  0.07446  1.0000
  C   C1292     1.0  0.77501  0.54069  0.05774  1.0000
  C   C1293     1.0  0.91279  0.97471  0.13753  1.0000
  C   C1294     1.0  0.66405  0.55886  0.08444  1.0000
  C   C1295     1.0  0.75462  0.53263  0.04667  1.0000
  C   C1296     1.0  0.69263  0.70696  0.05056  1.0000
  H   H1033     1.0  0.90674  0.94840  0.08486  1.0000
  C   C1297     1.0  0.88876  0.93676  0.13962  1.0000
  C   C1298     1.0  0.70160  0.48181  0.99238  1.0000
  H   H1034     1.0  0.78376  0.89419  0.13163  1.0000
  H   H1035     1.0  0.93595  0.59227  0.05030  1.0000
  H   H1036     1.0  0.74873  0.53837  0.01611  1.0000
  H   H1037     1.0  0.90590  0.54798  0.24769  1.0000
  C   C1299     1.0  0.92680  0.51825  0.21998  1.0000
  C   C1300     1.0  0.90593  0.67697  0.22766  1.0000
  C   C1301     1.0  0.90328  0.95274  0.11767  1.0000
  H   H1038     1.0  0.87220  0.93053  0.19817  1.0000
  C   C1302     1.0  0.93140  0.57737  0.07363  1.0000
  C   C1303     1.0  0.93280  0.54117  0.28662  1.0000
  P   P44       1.0  0.71485  0.50994  0.06423  1.0000
  C   C1304     1.0  0.74408  0.91876  0.07076  1.0000
  S   S180      1.0  0.85493  0.67378  0.99820  1.0000
  H   H1039     1.0  0.89356  0.66746  0.24609  1.0000
  H   H1040     1.0  0.66938  0.90900  0.00631  1.0000
  C   C1305     1.0  0.75561  0.92603  0.03449  1.0000
  C   C1306     1.0  0.70704  0.71166  0.01784  1.0000
  C   C1307     1.0  0.74208  0.51820  0.07550  1.0000
  C   C1308     1.0  0.90612  0.54474  0.09974  1.0000
  C   C1309     1.0  0.88372  0.51731  0.18459  1.0000
  C   C1310     1.0  0.70635  0.55737  0.10882  1.0000
  C   C1311     1.0  0.85722  0.70831  0.01065  1.0000
  C   C1312     1.0  0.95865  0.50964  0.26049  1.0000
  H   H1041     1.0  0.77661  0.51658  0.15800  1.0000
  C   C1313     1.0  0.85996  0.50874  0.02781  1.0000
  C   C1314     1.0  0.90383  0.67894  0.18391  1.0000
  H   H1042     1.0  0.80595  0.96114  0.05759  1.0000
  H   H1043     1.0  0.91821  0.69214  0.12587  1.0000
  C   C1315     1.0  0.95094  0.93506  0.47521  1.0000
  C   C1316     1.0  0.98547  0.51889  0.11414  1.0000
  C   C1317     1.0  0.95784  0.96514  0.28198  1.0000
  H   H1044     1.0  0.71528  0.54811  0.99354  1.0000
  H   H1045     1.0  0.72723  0.92130  0.07225  1.0000
  C   C1318     1.0  0.91984  0.69084  0.15986  1.0000
  C   C1319     1.0  0.93783  0.70109  0.17968  1.0000
  C   C1320     1.0  0.87494  0.54298  0.18924  1.0000
  C   C1321     1.0  0.88636  0.87779  0.41409  1.0000
  H   H1046     1.0  0.92775  0.73138  0.38579  1.0000
  C   C1322     1.0  0.92413  0.87715  0.42548  1.0000
  H   H1047     1.0  0.98230  0.61668  0.19658  1.0000
  H   H1048     1.0  0.78442  0.55255  0.03601  1.0000
  C   C1323     1.0  0.98861  0.66887  0.24980  1.0000
  C   C1324     1.0  0.96148  0.71484  0.30574  1.0000
  H   H1049     1.0  0.93233  0.95702  0.23972  1.0000
  Fe  Fe91      1.0  0.99640  0.57390  0.42152  1.0000
  C   C1325     1.0  0.73370  0.97474  0.00920  1.0000
  H   H1050     1.0  0.89113  0.53456  0.09605  1.0000
  C   C1326     1.0  0.87186  0.96494  0.02115  1.0000
  H   H1051     1.0  0.95999  0.94418  0.29021  1.0000
  C   C1327     1.0  0.95953  0.71737  0.39428  1.0000
  C   C1328     1.0  0.66967  0.92338  0.17327  1.0000
  S   S181      1.0  0.99069  0.67236  0.46987  1.0000
  H   H1052     1.0  0.80449  0.90713  0.06840  1.0000
  H   H1053     1.0  0.92577  0.68348  0.28111  1.0000
  C   C1329     1.0  0.93988  0.69957  0.22379  1.0000
  C   C1330     1.0  0.79270  0.78352  0.99106  1.0000
  C   C1331     1.0  0.67226  0.57928  0.10973  1.0000
  H   H1054     1.0  0.70918  0.85727  0.99398  1.0000
  H   H1055     1.0  0.95006  0.71039  0.16066  1.0000
  S   S182      1.0  0.98873  0.53803  0.46728  1.0000
  C   C1332     1.0  0.97919  0.70831  0.33025  1.0000
  C   C1333     1.0  0.94210  0.97256  0.25334  1.0000
  H   H1056     1.0  0.95877  0.71768  0.42851  1.0000
  C   C1334     1.0  0.95299  0.78998  0.20238  1.0000
  C   C1335     1.0  0.94633  0.50527  0.22458  1.0000
  C   C1336     1.0  0.77864  0.66674  0.99848  1.0000
  C   C1337     1.0  0.84938  0.49764  0.20036  1.0000
  Fe  Fe92      1.0  0.85731  0.83200  0.99577  1.0000
  C   C1338     1.0  0.92153  0.89196  0.46281  1.0000
  C   C1339     1.0  0.99321  0.62117  0.13251  1.0000
  H   H1057     1.0  0.99171  0.70377  0.39297  1.0000
  H   H1058     1.0  0.74051  0.50257  0.13939  1.0000
  C   C1340     1.0  0.70131  0.92265  0.99979  1.0000
  H   H1059     1.0  0.97779  0.66088  0.27332  1.0000
  C   C1341     1.0  0.98511  0.69417  0.23158  1.0000
  H   H1060     1.0  0.78294  0.65944  0.02955  1.0000
  H   H1061     1.0  0.78467  0.60448  0.99986  1.0000
  C   C1342     1.0  0.66991  0.89664  0.18685  1.0000
  H   H1062     1.0  0.74713  0.67689  0.01693  1.0000
  H   H1063     1.0  0.78260  0.48375  0.04608  1.0000
  C   C1343     1.0  0.79807  0.73570  0.00011  1.0000
  C   C1344     1.0  0.97200  0.80295  0.21159  1.0000
  C   C1345     1.0  0.99111  0.60763  0.17092  1.0000
  H   H1064     1.0  0.98427  0.53844  0.09932  1.0000
  H   H1065     1.0  0.86808  0.89934  0.46039  1.0000
  H   H1066     1.0  0.71323  0.79949  0.00318  1.0000
  H   H1067     1.0  0.67049  0.52266  0.05013  1.0000
  S   S183      1.0  0.66495  0.84675  0.00712  1.0000
  H   H1068     1.0  0.98619  0.64086  0.12859  1.0000
  C   C1346     1.0  0.87073  0.49460  0.19021  1.0000
  C   C1347     1.0  0.75840  0.67690  0.99124  1.0000
  H   H1069     1.0  0.95685  0.50449  0.08528  1.0000
  H   H1070     1.0  0.98308  0.97906  0.32201  1.0000
  H   H1071     1.0  0.78730  0.92844  0.00815  1.0000
  H   H1072     1.0  0.88892  0.96926  0.23386  1.0000
  H   H1073     1.0  0.87682  0.95033  0.99794  1.0000
  C   C1348     1.0  0.86068  0.75473  0.98587  1.0000
  C   C1349     1.0  0.76295  0.85290  0.98560  1.0000
  C   C1350     1.0  0.70955  0.69272  0.98542  1.0000
  H   H1074     1.0  0.76099  0.98129  0.04874  1.0000
  P   P45       1.0  0.74238  0.94224  0.99053  1.0000
  C   C1351     1.0  0.68305  0.90982  0.98595  1.0000
  S   S184      1.0  0.87784  0.86853  0.98520  1.0000
  H   H1075     1.0  0.99591  0.72227  0.18365  1.0000
  H   H1076     1.0  0.81501  0.49599  0.98433  1.0000
  C   C1352     1.0  0.98855  0.85991  0.80682  1.0000
  H   H1077     1.0  0.85786  0.72020  0.94520  1.0000
  S   S185      1.0  0.97491  0.85428  0.60115  1.0000
  C   C1353     1.0  0.75398  0.60232  0.97081  1.0000
  C   C1354     1.0  0.96116  0.85030  0.48807  1.0000
  C   C1355     1.0  0.74702  0.74894  0.92316  1.0000
  Fe  Fe93      1.0  0.97199  0.85195  0.67278  1.0000
  S   S186      1.0  0.94263  0.84070  0.71305  1.0000
  C   C1356     1.0  0.84649  0.96197  0.86649  1.0000
  Fe  Fe94      1.0  0.86344  0.86978  0.91995  1.0000
  C   C1357     1.0  0.98283  0.87114  0.84580  1.0000
  S   S187      1.0  0.88413  0.88568  0.86453  1.0000
  Fe  Fe95      1.0  0.81851  0.85793  0.95659  1.0000
  S   S188      1.0  0.78294  0.85265  0.94554  1.0000
  H   H1078     1.0  0.99443  0.96914  0.70900  1.0000
  C   C1358     1.0  0.98585  0.73918  0.54702  1.0000
  S   S189      1.0  0.83615  0.89625  0.94120  1.0000
  S   S190      1.0  0.84439  0.83149  0.92952  1.0000
  C   C1359     1.0  0.79323  0.66525  0.96547  1.0000
  S   S191      1.0  0.71561  0.59787  0.93201  1.0000
  H   H1079     1.0  0.92538  0.95834  0.95186  1.0000
  H   H1080     1.0  0.76026  0.60137  0.93909  1.0000
  S   S192      1.0  0.99493  0.88595  0.68338  1.0000
  H   H1081     1.0  0.66806  0.88813  0.93562  1.0000
  C   C1360     1.0  0.97670  0.92239  0.77935  1.0000
  C   C1361     1.0  0.78619  0.54695  0.94314  1.0000
  H   H1082     1.0  0.86338  0.95437  0.92397  1.0000
  C   C1362     1.0  0.97455  0.94390  0.91447  1.0000
  H   H1083     1.0  0.75433  0.54371  0.92032  1.0000
  H   H1084     1.0  0.73782  0.85634  0.94050  1.0000
  C   C1363     1.0  0.92784  0.85356  0.75719  1.0000
  C   C1364     1.0  0.91632  0.83554  0.78294  1.0000
  C   C1365     1.0  0.90333  0.84478  0.81642  1.0000
  C   C1366     1.0  0.90127  0.87236  0.82432  1.0000
  C   C1367     1.0  0.91285  0.89038  0.79864  1.0000
  C   C1368     1.0  0.92605  0.88111  0.76558  1.0000
  H   H1085     1.0  0.91726  0.81421  0.77670  1.0000
  H   H1086     1.0  0.89454  0.83055  0.83548  1.0000
  H   H1087     1.0  0.91137  0.91176  0.80402  1.0000
  H   H1088     1.0  0.93423  0.89537  0.74567  1.0000
  H   H1089     1.0  0.70681  0.54346  0.91815  1.0000
  C   C1369     1.0  0.70953  0.77848  0.92488  1.0000
  C   C1370     1.0  0.80815  0.73470  0.96083  1.0000
  H   H1090     1.0  0.67528  0.68998  0.82492  1.0000
  C   C1371     1.0  0.78374  0.92758  0.89391  1.0000
  H   H1091     1.0  0.76179  0.73818  0.92282  1.0000
  H   H1092     1.0  0.70008  0.65328  0.96315  1.0000
  H   H1093     1.0  0.76211  0.78676  0.90804  1.0000
  C   C1372     1.0  0.97774  0.83178  0.48696  1.0000
  C   C1373     1.0  0.85851  0.72709  0.97753  1.0000
  H   H1094     1.0  0.96792  0.77008  0.66236  1.0000
  H   H1095     1.0  0.96973  0.70117  0.53774  1.0000
  H   H1096     1.0  0.78744  0.56829  0.93677  1.0000
  H   H1097     1.0  0.98268  0.97244  0.59777  1.0000
  C   C1374     1.0  0.96537  0.87805  0.48701  1.0000
  C   C1375     1.0  0.78353  0.49140  0.95838  1.0000
  C   C1376     1.0  0.74732  0.77659  0.91470  1.0000
  C   C1377     1.0  0.77222  0.92545  0.93142  1.0000
  C   C1378     1.0  0.75741  0.96954  0.91949  1.0000
  H   H1098     1.0  0.96318  0.79978  0.81492  1.0000
  C   C1379     1.0  0.76888  0.97168  0.88182  1.0000
  H   H1099     1.0  0.95451  0.81836  0.88550  1.0000
  C   C1380     1.0  0.76630  0.50526  0.94108  1.0000
  C   C1381     1.0  0.70034  0.89815  0.92051  1.0000
  C   C1382     1.0  0.70557  0.52618  0.93883  1.0000
  H   H1100     1.0  0.91635  0.92027  0.90471  1.0000
  H   H1101     1.0  0.70485  0.97549  0.97238  1.0000
  C   C1383     1.0  0.96919  0.81929  0.82413  1.0000
  C   C1384     1.0  0.74168  0.85478  0.97359  1.0000
  C   C1385     1.0  0.98640  0.88689  0.48629  1.0000
  H   H1102     1.0  0.86178  0.76897  0.96011  1.0000
  C   C1386     1.0  0.80312  0.53349  0.96154  1.0000
  C   C1387     1.0  0.81026  0.75796  0.93643  1.0000
  H   H1103     1.0  0.97561  0.74541  0.57253  1.0000
  C   C1388     1.0  0.94886  0.91771  0.57741  1.0000
  H   H1104     1.0  0.86524  0.49530  0.96403  1.0000
  C   C1389     1.0  0.72787  0.73578  0.93220  1.0000
  C   C1390     1.0  0.80170  0.50595  0.96969  1.0000
  Fe  Fe96      1.0  0.67962  0.59647  0.93232  1.0000
  H   H1105     1.0  0.69498  0.78992  0.92647  1.0000
  C   C1391     1.0  0.71877  0.91078  0.93437  1.0000
  C   C1392     1.0  0.93772  0.94827  0.93421  1.0000
  P   P46       1.0  0.94408  0.90172  0.49370  1.0000
  C   C1393     1.0  0.76766  0.53297  0.93354  1.0000
  H   H1106     1.0  0.75181  0.49493  0.93338  1.0000
  H   H1107     1.0  0.99226  0.76465  0.78158  1.0000
  C   C1394     1.0  0.80247  0.78234  0.95152  1.0000
  C   C1395     1.0  0.97648  0.75331  0.67597  1.0000
  C   C1396     1.0  0.72858  0.79129  0.91521  1.0000
  H   H1108     1.0  0.73236  0.91056  0.91377  1.0000
  H   H1109     1.0  0.69998  0.88841  0.88999  1.0000
  C   C1397     1.0  0.78764  0.67401  0.92512  1.0000
  C   C1398     1.0  0.93263  0.92679  0.90777  1.0000
  H   H1110     1.0  0.91044  0.86379  0.62191  1.0000
  C   C1399     1.0  0.71314  0.64441  0.84950  1.0000
  C   C1400     1.0  0.69619  0.65605  0.82828  1.0000
  C   C1401     1.0  0.68882  0.68129  0.84056  1.0000
  C   C1402     1.0  0.69840  0.69491  0.87401  1.0000
  C   C1403     1.0  0.71566  0.68353  0.89523  1.0000
  C   C1404     1.0  0.72276  0.65797  0.88294  1.0000
  H   H1111     1.0  0.96425  0.90769  0.78299  1.0000
  C   C1405     1.0  0.98091  0.49444  0.52107  1.0000
  H   H1112     1.0  0.72888  0.81269  0.90884  1.0000
  P   P47       1.0  0.72676  0.69977  0.94124  1.0000
  H   H1113     1.0  0.92912  0.89424  0.67053  1.0000
  C   C1406     1.0  0.99206  0.92521  0.81074  1.0000
  C   C1407     1.0  0.71074  0.52859  0.98151  1.0000
  C   C1408     1.0  0.75282  0.68637  0.95103  1.0000
  C   C1409     1.0  0.76757  0.68468  0.91793  1.0000
  C   C1410     1.0  0.83117  0.97770  0.84677  1.0000
  C   C1411     1.0  0.71941  0.92331  0.97415  1.0000
  H   H1114     1.0  0.81739  0.54442  0.96972  1.0000
  C   C1412     1.0  0.95865  0.95695  0.93731  1.0000
  H   H1115     1.0  0.79364  0.91098  0.88389  1.0000
  H   H1116     1.0  0.79058  0.95196  0.83948  1.0000
  H   H1117     1.0  0.99059  0.95129  0.91639  1.0000
  H   H1118     1.0  0.79897  0.67268  0.89953  1.0000
  C   C1413     1.0  0.97746  0.93831  0.74296  1.0000
  H   H1119     1.0  0.71836  0.62435  0.84125  1.0000
  C   C1414     1.0  0.99038  0.97736  0.56825  1.0000
  H   H1120     1.0  0.99683  0.52450  0.62494  1.0000
  H   H1121     1.0  0.69188  0.71395  0.88363  1.0000
  H   H1122     1.0  0.73518  0.64790  0.90012  1.0000
  H   H1123     1.0  0.96041  0.93196  0.56577  1.0000
  H   H1124     1.0  0.99018  0.90808  0.48794  1.0000
  C   C1415     1.0  0.99357  0.95725  0.73770  1.0000
  C   C1416     1.0  0.94544  0.91564  0.62090  1.0000
  H   H1125     1.0  0.99512  0.51400  0.72072  1.0000
  H   H1126     1.0  0.76347  0.69148  0.88652  1.0000
  H   H1127     1.0  0.81845  0.75723  0.90640  1.0000
  H   H1128     1.0  0.69319  0.50037  0.89043  1.0000
  H   H1129     1.0  0.96712  0.86349  0.90553  1.0000
  C   C1417     1.0  0.97721  0.71370  0.72036  1.0000
  C   C1418     1.0  0.68241  0.89788  0.94616  1.0000
  H   H1130     1.0  0.96761  0.50622  0.53171  1.0000
  C   C1419     1.0  0.96965  0.92167  0.88901  1.0000
  C   C1420     1.0  0.98250  0.71395  0.52703  1.0000
  C   C1421     1.0  0.98161  0.83416  0.79600  1.0000
  H   H1131     1.0  0.96913  0.69968  0.74110  1.0000
  H   H1132     1.0  0.95422  0.92840  0.64220  1.0000
  C   C1422     1.0  0.98832  0.49670  0.70514  1.0000
  H   H1133     1.0  0.80429  0.80050  0.93294  1.0000
  H   H1134     1.0  0.97455  0.81038  0.48889  1.0000
  H   H1135     1.0  0.93244  0.95607  0.52238  1.0000
  C   C1423     1.0  0.94846  0.91376  0.88486  1.0000
  C   C1424     1.0  0.69795  0.50186  0.92313  1.0000
  H   H1136     1.0  0.77289  0.90691  0.94921  1.0000
  C   C1425     1.0  0.96629  0.73566  0.70369  1.0000
  C   C1426     1.0  0.94284  0.95796  0.49540  1.0000
  H   H1137     1.0  0.80890  0.65729  0.97123  1.0000
  H   H1138     1.0  0.94984  0.73883  0.71167  1.0000
  P   P48       1.0  0.99001  0.90535  0.85832  1.0000
  C   C1427     1.0  0.70923  0.75100  0.93400  1.0000
  C   C1428     1.0  0.93803  0.90084  0.54940  1.0000
  C   C1429     1.0  0.92412  0.88134  0.56566  1.0000
  C   C1430     1.0  0.92076  0.87926  0.60923  1.0000
  C   C1431     1.0  0.93137  0.89643  0.63681  1.0000
  H   H1139     1.0  0.69438  0.74172  0.94277  1.0000
  H   H1140     1.0  0.98538  0.82607  0.76523  1.0000
  H   H1141     1.0  0.94398  0.89766  0.86371  1.0000
  H   H1142     1.0  0.81505  0.71603  0.95004  1.0000
  C   C1432     1.0  0.97127  0.85554  0.87483  1.0000
  C   C1433     1.0  0.78201  0.95065  0.86901  1.0000
  H   H1143     1.0  0.96575  0.93559  0.71855  1.0000
  H   H1144     1.0  0.68836  0.64514  0.80321  1.0000
  C   C1434     1.0  0.99418  0.50503  0.48912  1.0000
  H   H1145     1.0  0.85449  0.94610  0.84926  1.0000
  H   H1146     1.0  0.91636  0.86721  0.54492  1.0000
  C   C1435     1.0  0.96424  0.82984  0.86375  1.0000
  H   H1147     1.0  0.94514  0.84294  0.49099  1.0000
  C   C1436     1.0  0.75933  0.94662  0.94505  1.0000
  C   C1437     1.0  0.85152  0.96662  0.90866  1.0000
  H   H1148     1.0  0.96252  0.97395  0.95718  1.0000
  H   H1149     1.0  0.95783  0.50241  0.73418  1.0000
  C   C1438     1.0  0.99552  0.70499  0.49360  1.0000
  H   H1150     1.0  0.89901  0.91234  0.50298  1.0000
  C   C1439     1.0  0.73206  0.60178  0.97690  1.0000
  H   H1151     1.0  0.82741  0.97414  0.81393  1.0000
  C   C1440     1.0  0.96711  0.49037  0.71258  1.0000
  H   H1152     1.0  0.80806  0.97481  0.98301  1.0000
